REMARK  Name = ZINC34271593
REMARK                            x       y       z     vdW  Elec       q    Type
REMARK                         _______ _______ _______ _____ _____    ______ ____
ROOT
ATOM      1  C   LIG    1       -5.362  -3.166  -4.031  0.00  0.00    +0.342 C 
ATOM      2  N   LIG    1       -4.874  -2.739  -5.160  0.00  0.00    -0.293 N 
ATOM      3  H   LIG    1       -4.041  -2.241  -5.170  0.00  0.00    +0.254 HD
ATOM      4  H   LIG    1       -5.342  -2.918  -5.990  0.00  0.00    +0.254 HD
ENDROOT
BRANCH   1   5
ATOM      5  N   LIG    1       -6.490  -3.961  -4.024  0.00  0.00    -0.172 N 
ATOM      6  H   LIG    1       -6.875  -4.265  -4.861  0.00  0.00    +0.254 HD
ATOM      7  C   LIG    1       -7.059  -4.315  -2.854  0.00  0.00    +0.328 C 
ATOM      8  O   LIG    1       -6.521  -4.021  -1.804  0.00  0.00    -0.250 OA
BRANCH   7   9
ATOM      9  C   LIG    1       -8.330  -5.058  -2.848  0.00  0.00    +0.183 A 
ATOM     10  C   LIG    1       -8.984  -5.324  -1.634  0.00  0.00    +0.151 A 
ATOM     11  N   LIG    1      -10.130  -5.994  -1.634  0.00  0.00    -0.213 NA
ATOM     12  C   LIG    1      -10.653  -6.409  -2.781  0.00  0.00    +0.156 A 
ATOM     13  C   LIG    1       -9.999  -6.142  -3.990  0.00  0.00    +0.170 A 
ATOM     14 CL   LIG    1      -10.690  -6.688  -5.486  0.00  0.00    -0.058 Cl
ATOM     15  N   LIG    1       -8.866  -5.474  -3.996  0.00  0.00    -0.222 NA
BRANCH  12  16
ATOM     16  N   LIG    1      -11.848  -7.108  -2.781  0.00  0.00    -0.341 N 
ATOM     17  H   LIG    1      -12.232  -7.412  -3.619  0.00  0.00    +0.144 HD
ATOM     18  H   LIG    1      -12.302  -7.294  -1.945  0.00  0.00    +0.144 HD
ENDBRANCH  12  16
BRANCH  10  19
ATOM     19  N   LIG    1       -8.435  -4.891  -0.441  0.00  0.00    -0.341 N 
ATOM     20  H   LIG    1       -8.844  -5.144   0.402  0.00  0.00    +0.144 HD
ATOM     21  H   LIG    1       -7.641  -4.334  -0.447  0.00  0.00    +0.144 HD
ENDBRANCH  10  19
ENDBRANCH   7   9
ENDBRANCH   1   5
BRANCH   1  22
ATOM     22  N   LIG    1       -4.755  -2.825  -2.846  0.00  0.00    -0.280 N 
ATOM     23  H   LIG    1       -5.162  -3.076  -2.002  0.00  0.00    +0.258 HD
BRANCH  22  24
ATOM     24  C   LIG    1       -3.492  -2.083  -2.857  0.00  0.00    +0.195 C 
BRANCH  24  25
ATOM     25  C   LIG    1       -3.034  -1.833  -1.419  0.00  0.00    +0.037 C 
BRANCH  25  26
ATOM     26  C   LIG    1       -1.714  -1.058  -1.431  0.00  0.00    +0.008 C 
BRANCH  26  27
ATOM     27  C   LIG    1       -1.256  -0.809   0.007  0.00  0.00    +0.035 C 
BRANCH  27  33
ATOM     28  C   LIG    1        0.031   1.337   0.004  0.00  0.00    +0.007 A 
ATOM     29  C   LIG    1        1.221   2.039  -0.006  0.00  0.00    +0.046 A 
ATOM     30  C   LIG    1        2.428   1.356  -0.025  0.00  0.00    +0.121 A 
ATOM     31  C   LIG    1        2.437  -0.031  -0.034  0.00  0.00    +0.046 A 
ATOM     32  C   LIG    1        1.245  -0.729  -0.023  0.00  0.00    +0.007 A 
ATOM     33  C   LIG    1        0.043  -0.045  -0.004  0.00  0.00    -0.047 A 
BRANCH  30  34
ATOM     34  O   LIG    1        3.600   2.044  -0.036  0.00  0.00    -0.489 OA
BRANCH  34  35
ATOM     35  C   LIG    1        4.804   1.275  -0.055  0.00  0.00    +0.262 C 
BRANCH  35  36
ATOM     36  C   LIG    1        6.010   2.216  -0.065  0.00  0.00    +0.177 C 
BRANCH  36  37
ATOM     37  O   LIG    1        6.020   2.966  -1.282  0.00  0.00    -0.386 OA
ATOM     38  H   LIG    1        6.077   2.421  -2.079  0.00  0.00    +0.210 HD
ENDBRANCH  36  37
BRANCH  36  39
ATOM     39  C   LIG    1        7.298   1.397   0.040  0.00  0.00    +0.190 C 
BRANCH  39  40
ATOM     40  O   LIG    1        8.416   2.279   0.148  0.00  0.00    -0.392 OA
ATOM     41  H   LIG    1        9.268   1.827   0.218  0.00  0.00    +0.210 HD
ENDBRANCH  39  40
ENDBRANCH  36  39
ENDBRANCH  35  36
ENDBRANCH  34  35
ENDBRANCH  30  34
ENDBRANCH  27  33
ENDBRANCH  26  27
ENDBRANCH  25  26
ENDBRANCH  24  25
ENDBRANCH  22  24
ENDBRANCH   1  22
TORSDOF 16
