REMARK  Name = ZINC28872223
REMARK                            x       y       z     vdW  Elec       q    Type
REMARK                         _______ _______ _______ _____ _____    ______ ____
ROOT
ATOM      1  C   LIG    1       -2.786   8.611  -3.064  0.00  0.00    +0.247 C 
ATOM      2  N   LIG    1       -2.026   7.775  -2.330  0.00  0.00    -0.295 N 
ATOM      3  C   LIG    1       -2.406   6.364  -2.158  0.00  0.00    +0.123 C 
ATOM      4  C   LIG    1       -2.384   6.034  -0.661  0.00  0.00    +0.104 C 
ATOM      5  N   LIG    1       -1.076   6.397  -0.102  0.00  0.00    -0.289 NA
ATOM      6  C   LIG    1       -0.836   7.843  -0.203  0.00  0.00    +0.104 C 
ATOM      7  C   LIG    1       -0.794   8.248  -1.681  0.00  0.00    +0.123 C 
ATOM      8  O   LIG    1       -3.856   8.234  -3.502  0.00  0.00    -0.270 OA
ENDROOT
BRANCH   5   9
ATOM      9  C   LIG    1       -0.952   5.939   1.289  0.00  0.00    +0.118 C 
ATOM     10  C   LIG    1       -2.186   6.318   2.071  0.00  0.00    -0.018 A 
ATOM     11  C   LIG    1       -2.757   7.537   2.366  0.00  0.00    +0.006 A 
ATOM     12  C   LIG    1       -3.918   7.595   3.117  0.00  0.00    +0.000 A 
ATOM     13  C   LIG    1       -4.503   6.430   3.581  0.00  0.00    +0.001 A 
ATOM     14  C   LIG    1       -3.938   5.206   3.290  0.00  0.00    +0.009 A 
ATOM     15  C   LIG    1       -2.769   5.140   2.529  0.00  0.00    -0.013 A 
ATOM     16  C   LIG    1       -1.963   3.980   2.076  0.00  0.00    -0.013 A 
ATOM     17  C   LIG    1       -2.131   2.608   2.275  0.00  0.00    +0.009 A 
ATOM     18  C   LIG    1       -1.225   1.718   1.738  0.00  0.00    +0.001 A 
ATOM     19  C   LIG    1       -0.147   2.178   1.003  0.00  0.00    +0.000 A 
ATOM     20  C   LIG    1        0.026   3.536   0.802  0.00  0.00    +0.006 A 
ATOM     21  C   LIG    1       -0.875   4.433   1.335  0.00  0.00    -0.018 A 
ENDBRANCH   5   9
BRANCH   1  25
ATOM     22  C   LIG    1       -1.446  12.566  -3.845  0.00  0.00    +0.000 A 
ATOM     23  C   LIG    1       -2.801  12.291  -3.815  0.00  0.00    +0.001 A 
ATOM     24  C   LIG    1       -3.244  11.009  -3.562  0.00  0.00    +0.013 A 
ATOM     25  C   LIG    1       -2.320   9.988  -3.336  0.00  0.00    +0.037 A 
ATOM     26  C   LIG    1       -0.953  10.272  -3.361  0.00  0.00    +0.013 A 
ATOM     27  C   LIG    1       -0.525  11.558  -3.621  0.00  0.00    +0.001 A 
ENDBRANCH   1  25
TORSDOF 2
