REMARK  Name = ZINC18066800
REMARK                            x       y       z     vdW  Elec       q    Type
REMARK                         _______ _______ _______ _____ _____    ______ ____
ROOT
ATOM      1  N   LIG    1       -0.036  -2.932  -0.305  0.00  0.00    -0.206 N 
ATOM      2  C   LIG    1        0.549  -3.258   0.885  0.00  0.00    +0.233 C 
ATOM      3  C   LIG    1        1.967  -3.636   0.552  0.00  0.00    +0.125 C 
ATOM      4  C   LIG    1        2.585  -4.881   1.201  0.00  0.00    +0.163 C 
ATOM      5  O   LIG    1        3.433  -5.416   0.142  0.00  0.00    -0.348 OA
ATOM      6  C   LIG    1        2.877  -5.024  -1.147  0.00  0.00    +0.206 C 
ATOM      7  C   LIG    1        3.879  -4.161  -1.871  0.00  0.00    +0.204 C 
ATOM      8  C   LIG    1        4.263  -4.877  -3.102  0.00  0.00    +0.031 A 
ATOM      9  C   LIG    1        5.149  -4.524  -4.122  0.00  0.00    +0.012 A 
ATOM     10  C   LIG    1        5.347  -5.375  -5.192  0.00  0.00    +0.001 A 
ATOM     11  C   LIG    1        4.671  -6.580  -5.264  0.00  0.00    +0.001 A 
ATOM     12  C   LIG    1        3.789  -6.948  -4.266  0.00  0.00    +0.012 A 
ATOM     13  C   LIG    1        3.574  -6.103  -3.175  0.00  0.00    +0.031 A 
ATOM     14  O   LIG    1        4.292  -3.080  -1.509  0.00  0.00    -0.288 OA
ATOM     15  C   LIG    1        2.701  -6.257  -1.997  0.00  0.00    +0.204 C 
ATOM     16  O   LIG    1        1.977  -7.200  -1.756  0.00  0.00    -0.288 OA
ATOM     17  C   LIG    1        1.623  -4.324  -0.832  0.00  0.00    +0.138 C 
ATOM     18  O   LIG    1        0.033  -3.246   1.982  0.00  0.00    -0.274 OA
ATOM     19  C   LIG    1        0.673  -3.391  -1.388  0.00  0.00    +0.234 C 
ATOM     20  O   LIG    1        0.534  -3.081  -2.551  0.00  0.00    -0.274 OA
ENDROOT
BRANCH   1  26
ATOM     21  C   LIG    1       -1.210  -0.821  -0.493  0.00  0.00    +0.142 A 
ATOM     22  C   LIG    1       -2.397  -0.115  -0.602  0.00  0.00    +0.047 A 
ATOM     23  C   LIG    1       -3.604  -0.789  -0.625  0.00  0.00    +0.004 A 
ATOM     24  C   LIG    1       -3.630  -2.169  -0.538  0.00  0.00    +0.002 A 
ATOM     25  C   LIG    1       -2.450  -2.881  -0.428  0.00  0.00    +0.027 A 
ATOM     26  C   LIG    1       -1.236  -2.211  -0.411  0.00  0.00    +0.085 A 
BRANCH  21  28
ATOM     27  C   LIG    1       -0.073   1.266  -0.559  0.00  0.00    +0.277 C 
ATOM     28  O   LIG    1       -0.023  -0.159  -0.471  0.00  0.00    -0.493 OA
ENDBRANCH  21  28
ENDBRANCH   1  26
BRANCH   4  29
ATOM     29  C   LIG    1        1.514  -5.870   1.582  0.00  0.00    -0.018 A 
ATOM     30  C   LIG    1        1.396  -7.061   0.891  0.00  0.00    +0.006 A 
ATOM     31  C   LIG    1        0.414  -7.969   1.240  0.00  0.00    +0.000 A 
ATOM     32  C   LIG    1       -0.450  -7.686   2.282  0.00  0.00    +0.000 A 
ATOM     33  C   LIG    1       -0.332  -6.495   2.974  0.00  0.00    +0.000 A 
ATOM     34  C   LIG    1        0.653  -5.589   2.627  0.00  0.00    +0.006 A 
ENDBRANCH   4  29
TORSDOF 3
