REMARK  Name = ZINC00004041
REMARK                            x       y       z     vdW  Elec       q    Type
REMARK                         _______ _______ _______ _____ _____    ______ ____
ROOT
ATOM      1  C   LIG    1       -1.745  -1.028  -1.429  0.00  0.00    -0.010 C 
ATOM      2  C   LIG    1       -2.082   0.306  -2.102  0.00  0.00    -0.015 C 
ATOM      3  C   LIG    1       -2.609   0.040  -3.514  0.00  0.00    -0.078 C 
ATOM      4  N   LIG    1       -3.816  -0.792  -3.441  0.00  0.00    +0.382 N 
ATOM      5  H   LIG    1       -4.505  -0.334  -2.863  0.00  0.00    -0.082 HD
ATOM      6  C   LIG    1       -3.485  -2.100  -2.863  0.00  0.00    -0.078 C 
ATOM      7  C   LIG    1       -2.992  -1.916  -1.426  0.00  0.00    -0.015 C 
ENDROOT
BRANCH   1   8
ATOM      8  C   LIG    1       -1.293  -0.775   0.010  0.00  0.00    +0.038 C 
BRANCH   8  15
ATOM      9  C   LIG    1       -0.017   1.378   0.010  0.00  0.00    +0.006 A 
ATOM     10  C   LIG    1        1.170   2.086   0.002  0.00  0.00    +0.038 A 
ATOM     11  C   LIG    1        2.379   1.410  -0.013  0.00  0.00    +0.123 A 
ATOM     12  F   LIG    1        3.540   2.101  -0.021  0.00  0.00    -0.205 F 
ATOM     13  C   LIG    1        2.396   0.026  -0.021  0.00  0.00    +0.038 A 
ATOM     14  C   LIG    1        1.208  -0.680  -0.013  0.00  0.00    +0.006 A 
ATOM     15  C   LIG    1        0.002  -0.004   0.002  0.00  0.00    -0.047 A 
ENDBRANCH   8  15
ENDBRANCH   1   8
BRANCH   4  16
ATOM     16  C   LIG    1       -4.362  -0.980  -4.792  0.00  0.00    -0.042 C 
BRANCH  16  17
ATOM     17  C   LIG    1       -5.686  -1.741  -4.706  0.00  0.00    +0.128 C 
BRANCH  17  18
ATOM     18  C   LIG    1       -6.185  -2.041  -6.096  0.00  0.00    -0.021 A 
ATOM     19  C   LIG    1       -6.829  -1.059  -6.826  0.00  0.00    +0.007 A 
ATOM     20  C   LIG    1       -7.287  -1.334  -8.101  0.00  0.00    +0.020 A 
ATOM     21  C   LIG    1       -7.099  -2.591  -8.647  0.00  0.00    +0.041 A 
ATOM     22 CL   LIG    1       -7.674  -2.937 -10.248  0.00  0.00    -0.084 Cl
ATOM     23  C   LIG    1       -6.454  -3.573  -7.916  0.00  0.00    +0.020 A 
ATOM     24  C   LIG    1       -5.992  -3.296  -6.643  0.00  0.00    +0.007 A 
ENDBRANCH  17  18
BRANCH  17  25
ATOM     25  O   LIG    1       -6.650  -0.942  -4.016  0.00  0.00    -0.389 OA
ATOM     26  H   LIG    1       -6.836  -0.094  -4.442  0.00  0.00    +0.210 HD
ENDBRANCH  17  25
ENDBRANCH  16  17
ENDBRANCH   4  16
TORSDOF 6
