REMARK  Name = ZINC53204366
REMARK                            x       y       z     vdW  Elec       q    Type
REMARK                         _______ _______ _______ _____ _____    ______ ____
ROOT
ATOM      1  C   LIG    1        0.596  -3.135  -0.019  0.00  0.00    +0.241 C 
ATOM      2  C   LIG    1        0.177  -3.493  -1.463  0.00  0.00    +0.133 C 
ATOM      3  C   LIG    1        0.106  -5.036  -1.461  0.00  0.00    +0.166 C 
ATOM      4  C   LIG    1        0.489  -5.428  -0.017  0.00  0.00    +0.176 C 
ATOM      5  O   LIG    1        1.266  -4.314   0.476  0.00  0.00    -0.347 OA
ENDROOT
BRANCH   1  11
ATOM      6  C   LIG    1       -0.016   1.312   0.009  0.00  0.00    +0.225 A 
ATOM      7  N   LIG    1        1.089   2.036   0.003  0.00  0.00    -0.219 NA
ATOM      8  C   LIG    1        2.288   1.462  -0.012  0.00  0.00    +0.147 A 
ATOM      9  C   LIG    1        2.358   0.059  -0.020  0.00  0.00    +0.147 A 
ATOM     10  C   LIG    1        1.155  -0.666  -0.013  0.00  0.00    +0.167 A 
ATOM     11  N   LIG    1        1.511  -1.991  -0.023  0.00  0.00    -0.286 N 
ATOM     12  C   LIG    1        2.873  -2.048  -0.036  0.00  0.00    +0.203 A 
ATOM     13  N   LIG    1        3.368  -0.844  -0.034  0.00  0.00    -0.231 NA
ATOM     14  N   LIG    1        0.002  -0.004   0.002  0.00  0.00    -0.216 NA
BRANCH   8  15
ATOM     15  N   LIG    1        3.439   2.229  -0.019  0.00  0.00    -0.341 N 
ATOM     16  H   LIG    1        4.309   1.799  -0.030  0.00  0.00    +0.144 HD
ATOM     17  H   LIG    1        3.377   3.197  -0.014  0.00  0.00    +0.144 HD
ENDBRANCH   8  15
ENDBRANCH   1  11
BRANCH   2  18
ATOM     18  N   LIG    1       -1.136  -2.914  -1.777  0.00  0.00    -0.322 NA
ATOM     19  H   LIG    1       -1.831  -3.212  -1.110  0.00  0.00    +0.119 HD
ATOM     20  H   LIG    1       -1.416  -3.143  -2.719  0.00  0.00    +0.119 HD
ENDBRANCH   2  18
BRANCH   3  21
ATOM     21  O   LIG    1       -1.219  -5.476  -1.767  0.00  0.00    -0.387 OA
ATOM     22  H   LIG    1       -1.321  -6.438  -1.779  0.00  0.00    +0.210 HD
ENDBRANCH   3  21
BRANCH   4  23
ATOM     23  C   LIG    1        1.327  -6.708  -0.016  0.00  0.00    +0.190 C 
BRANCH  23  24
ATOM     24  O   LIG    1        1.572  -7.117   1.331  0.00  0.00    -0.392 OA
ATOM     25  H   LIG    1        2.100  -7.923   1.407  0.00  0.00    +0.210 HD
ENDBRANCH  23  24
ENDBRANCH   4  23
TORSDOF 6
