REMARK  Name = ZINC22931094
REMARK                            x       y       z     vdW  Elec       q    Type
REMARK                         _______ _______ _______ _____ _____    ______ ____
ROOT
ATOM      1  C   LIG    1        2.356  -4.094   4.573  0.00  0.00    +0.016 C 
ENDROOT
BRANCH   1   2
ATOM      2  C   LIG    1        1.182  -4.545   3.701  0.00  0.00    +0.009 C 
BRANCH   2   8
ATOM      3  C   LIG    1       -1.016  -4.913  -0.522  0.00  0.00    +0.124 A 
ATOM      4  C   LIG    1       -2.244  -4.852   0.113  0.00  0.00    +0.046 A 
ATOM      5  C   LIG    1       -2.309  -4.495   1.446  0.00  0.00    +0.004 A 
ATOM      6  C   LIG    1       -1.151  -4.200   2.134  0.00  0.00    +0.004 A 
ATOM      7  C   LIG    1        0.085  -4.258   1.501  0.00  0.00    -0.038 A 
ATOM      8  C   LIG    1        1.306  -3.915   2.313  0.00  0.00    +0.019 C 
ATOM      9  C   LIG    1        2.568  -4.456   1.637  0.00  0.00    +0.008 C 
ATOM     10  C   LIG    1        2.566  -3.985   0.178  0.00  0.00    +0.005 C 
ATOM     11  C   LIG    1        1.460  -4.730  -0.568  0.00  0.00    +0.039 C 
ATOM     12  C   LIG    1        0.155  -4.624   0.176  0.00  0.00    -0.002 A 
BRANCH   3  14
ATOM     13  C   LIG    1       -2.186  -5.548  -2.492  0.00  0.00    +0.277 C 
ATOM     14  O   LIG    1       -0.950  -5.264  -1.834  0.00  0.00    -0.495 OA
ENDBRANCH   3  14
ENDBRANCH   2   8
ENDBRANCH   1   2
BRANCH   1  15
ATOM     15  C   LIG    1        2.166  -4.620   5.997  0.00  0.00    +0.084 C 
BRANCH  15  16
ATOM     16  N   LIG    1        3.293  -4.186   6.834  0.00  0.00    -0.306 NA
ATOM     17  C   LIG    1        3.292  -2.726   7.003  0.00  0.00    +0.066 C 
ATOM     18  C   LIG    1        4.512  -2.311   7.828  0.00  0.00    -0.063 C 
ATOM     19  N   LIG    1        4.465  -2.973   9.139  0.00  0.00    +0.383 N 
ATOM     20  H   LIG    1        3.617  -2.710   9.618  0.00  0.00    -0.081 HD
ATOM     21  C   LIG    1        4.491  -4.430   8.955  0.00  0.00    -0.063 C 
ATOM     22  C   LIG    1        3.271  -4.863   8.138  0.00  0.00    +0.066 C 
BRANCH  19  23
ATOM     23  C   LIG    1        5.626  -2.560   9.938  0.00  0.00    -0.068 C 
ATOM     24  C   LIG    1        5.598  -1.042  10.131  0.00  0.00    -0.015 C 
ATOM     25  C   LIG    1        6.808  -0.612  10.963  0.00  0.00    -0.002 C 
ATOM     26  C   LIG    1        6.759  -1.302  12.328  0.00  0.00    -0.000 C 
ATOM     27  C   LIG    1        6.787  -2.819  12.135  0.00  0.00    -0.002 C 
ATOM     28  C   LIG    1        5.577  -3.249  11.303  0.00  0.00    -0.015 C 
ENDBRANCH  19  23
ENDBRANCH  15  16
ENDBRANCH   1  15
TORSDOF 6
