REMARK  Name = ZINC22062081
REMARK                            x       y       z     vdW  Elec       q    Type
REMARK                         _______ _______ _______ _____ _____    ______ ____
ROOT
ATOM      1  C   LIG    1       -1.187   1.624   0.017  0.00  0.00    +0.217 C 
ATOM      2  N   LIG    1       -0.011   0.966   0.007  0.00  0.00    -0.305 N 
ATOM      3  H   LIG    1        0.004  -0.134   0.006  0.00  0.00    +0.149 HD
ATOM      4  O   LIG    1       -1.204   2.837   0.023  0.00  0.00    -0.275 OA
ENDROOT
BRANCH   1   6
ATOM      5  C   LIG    1       -2.557  -0.021  -1.235  0.00  0.00    +0.018 C 
ATOM      6  C   LIG    1       -2.482   0.853   0.018  0.00  0.00    +0.081 C 
BRANCH   6   7
ATOM      7  C   LIG    1       -3.658   1.831   0.029  0.00  0.00    +0.078 C 
BRANCH   7   8
ATOM      8  S   LIG    1       -5.212   0.907   0.181  0.00  0.00    -0.178 S 
ATOM      9  H   LIG    1       -6.171   1.444   0.206  0.00  0.00    +0.102 HD
ENDBRANCH   7   8
ENDBRANCH   6   7
ENDBRANCH   1   6
BRANCH   2  10
ATOM     10  C   LIG    1        1.248   1.716  -0.001  0.00  0.00    +0.224 C 
BRANCH  10  11
ATOM     11  C   LIG    1        2.406   0.752  -0.017  0.00  0.00    +0.322 C 
ATOM     12  O   LIG    1        2.201  -0.439  -0.021  0.00  0.00    -0.249 OA
BRANCH  11  13
ATOM     13  O   LIG    1        3.665   1.216  -0.026  0.00  0.00    -0.480 OA
ATOM     14  H   LIG    1        3.824   2.140  -0.023  0.00  0.00    +0.295 HD
ENDBRANCH  11  13
ENDBRANCH  10  11
ENDBRANCH   2  10
TORSDOF 6
