REMARK  Name = ZINC28824607
REMARK                            x       y       z     vdW  Elec       q    Type
REMARK                         _______ _______ _______ _____ _____    ______ ____
ROOT
ATOM      1  C   LIG    1       -0.006  -2.799  -4.899  0.00  0.00    +0.141 A 
ATOM      2  N   LIG    1       -0.026  -2.217  -6.137  0.00  0.00    -0.335 N 
ATOM      3  C   LIG    1       -0.017  -3.243  -7.064  0.00  0.00    +0.108 A 
ATOM      4  C   LIG    1       -0.026  -3.293  -8.458  0.00  0.00    +0.077 A 
ATOM      5  C   LIG    1       -0.019  -4.545  -9.070  0.00  0.00    +0.082 A 
ATOM      6 CL   LIG    1       -0.030  -4.675 -10.801  0.00  0.00    -0.080 Cl
ATOM      7  C   LIG    1       -0.002  -5.684  -8.284  0.00  0.00    +0.135 A 
ATOM      8  N   LIG    1        0.006  -5.612  -6.970  0.00  0.00    -0.233 NA
ATOM      9  C   LIG    1       -0.000  -4.440  -6.331  0.00  0.00    +0.180 A 
ATOM     10  H   LIG    1       -0.042  -1.266  -6.328  0.00  0.00    +0.167 HD
ATOM     11  N   LIG    1        0.005  -4.105  -5.024  0.00  0.00    -0.208 NA
ENDROOT
BRANCH   1  15
ATOM     12  C   LIG    1        0.000  -0.694  -1.208  0.00  0.00    +0.029 A 
ATOM     13  C   LIG    1        0.013  -2.085  -1.214  0.00  0.00    +0.024 A 
ATOM     14  C   LIG    1        0.011  -2.770  -2.409  0.00  0.00    +0.013 A 
ATOM     15  C   LIG    1       -0.005  -2.067  -3.616  0.00  0.00    +0.017 A 
ATOM     16  C   LIG    1       -0.018  -0.670  -3.607  0.00  0.00    +0.013 A 
ATOM     17  C   LIG    1       -0.021   0.009  -2.409  0.00  0.00    +0.024 A 
BRANCH  12  19
ATOM     18  C   LIG    1       -0.018   1.461   0.010  0.00  0.00    +0.129 C 
ATOM     19  N   LIG    1        0.002  -0.004   0.002  0.00  0.00    -0.336 N 
ATOM     20  C   LIG    1        0.024  -0.743   1.267  0.00  0.00    +0.129 C 
ENDBRANCH  12  19
ENDBRANCH   1  15
BRANCH   4  21
ATOM     21  N   LIG    1       -0.043  -2.124  -9.218  0.00  0.00    -0.325 N 
ATOM     22  C   LIG    1       -1.315  -1.500  -9.615  0.00  0.00    +0.120 C 
ATOM     23  C   LIG    1       -1.272  -0.018  -9.228  0.00  0.00    +0.104 C 
ATOM     24  N   LIG    1       -0.070   0.600  -9.804  0.00  0.00    -0.291 NA
ATOM     25  C   LIG    1        1.153  -0.001  -9.255  0.00  0.00    +0.104 C 
ATOM     26  C   LIG    1        1.210  -1.478  -9.638  0.00  0.00    +0.120 C 
BRANCH  24  27
ATOM     27  C   LIG    1       -0.078   2.055  -9.602  0.00  0.00    +0.181 C 
BRANCH  27  28
ATOM     28  C   LIG    1        1.030   2.681 -10.409  0.00  0.00    +0.233 C 
ATOM     29  N   LIG    1        1.215   4.015 -10.379  0.00  0.00    -0.264 N 
ATOM     30  H   LIG    1        0.635   4.573  -9.838  0.00  0.00    +0.157 HD
ATOM     31  O   LIG    1        1.756   1.983 -11.086  0.00  0.00    -0.274 OA
BRANCH  29  32
ATOM     32  C   LIG    1        2.238   4.592 -11.123  0.00  0.00    +0.164 A 
ATOM     33  N   LIG    1        3.110   4.000 -11.911  0.00  0.00    -0.233 NA
ATOM     34  C   LIG    1        4.029   4.695 -12.555  0.00  0.00    +0.120 A 
ATOM     35  C   LIG    1        4.030   6.038 -12.367  0.00  0.00    +0.068 A 
ATOM     36  S   LIG    1        2.656   6.218 -11.241  0.00  0.00    -0.061 S 
ENDBRANCH  29  32
ENDBRANCH  27  28
ENDBRANCH  24  27
ENDBRANCH   4  21
TORSDOF 6
