REMARK  Name = ZINC38995988
REMARK                            x       y       z     vdW  Elec       q    Type
REMARK                         _______ _______ _______ _____ _____    ______ ____
ROOT
ATOM      1  C   LIG    1       -0.017   1.383   0.010  0.00  0.00    +0.007 A 
ATOM      2  C   LIG    1        1.162   2.099   0.002  0.00  0.00    +0.028 A 
ATOM      3  C   LIG    1        2.377   1.428  -0.013  0.00  0.00    +0.067 A 
ATOM      4  C   LIG    1        2.402   0.022  -0.021  0.00  0.00    +0.090 A 
ATOM      5  N   LIG    1        3.704  -0.355  -0.036  0.00  0.00    -0.226 NA
ATOM      6  C   LIG    1        4.471   0.708  -0.038  0.00  0.00    +0.161 A 
ATOM      7  C   LIG    1        1.197  -0.687  -0.013  0.00  0.00    +0.034 A 
ATOM      8  N   LIG    1        3.697   1.837  -0.024  0.00  0.00    -0.337 N 
ATOM      9  H   LIG    1        4.016   2.754  -0.023  0.00  0.00    +0.167 HD
ATOM     10  C   LIG    1        0.002  -0.004   0.002  0.00  0.00    -0.031 A 
ENDROOT
BRANCH   6  11
ATOM     11  C   LIG    1        5.948   0.691  -0.053  0.00  0.00    +0.149 A 
ATOM     12  C   LIG    1        6.766  -0.463  -0.073  0.00  0.00    +0.083 A 
ATOM     13  C   LIG    1        8.057  -0.054  -0.082  0.00  0.00    +0.129 A 
ATOM     14  N   LIG    1        8.065   1.305  -0.068  0.00  0.00    -0.282 N 
ATOM     15  H   LIG    1        8.853   1.870  -0.070  0.00  0.00    +0.188 HD
ATOM     16  N   LIG    1        6.736   1.748  -0.055  0.00  0.00    -0.169 NA
BRANCH  12  17
ATOM     17  N   LIG    1        6.318  -1.795  -0.083  0.00  0.00    -0.266 N 
ATOM     18  H   LIG    1        5.367  -1.988  -0.074  0.00  0.00    +0.156 HD
ATOM     19  C   LIG    1        7.210  -2.806  -0.102  0.00  0.00    +0.304 C 
ATOM     20  N   LIG    1        6.781  -4.083  -0.111  0.00  0.00    -0.296 N 
ATOM     21  H   LIG    1        5.830  -4.276  -0.103  0.00  0.00    +0.151 HD
ATOM     22  O   LIG    1        8.402  -2.564  -0.112  0.00  0.00    -0.252 OA
BRANCH  20  23
ATOM     23  C   LIG    1        7.750  -5.181  -0.133  0.00  0.00    +0.075 C 
ATOM     24  C   LIG    1        7.471  -6.351  -1.078  0.00  0.00    +0.024 C 
ATOM     25  C   LIG    1        7.301  -6.531   0.432  0.00  0.00    +0.024 C 
ENDBRANCH  20  23
ENDBRANCH  12  17
ENDBRANCH   6  11
BRANCH  10  26
ATOM     26  C   LIG    1       -1.296  -0.769   0.011  0.00  0.00    +0.119 C 
BRANCH  26  27
ATOM     27  N   LIG    1       -1.732  -1.010  -1.371  0.00  0.00    -0.294 NA
ATOM     28  C   LIG    1       -2.081   0.251  -2.041  0.00  0.00    +0.113 C 
ATOM     29  C   LIG    1       -2.471  -0.040  -3.493  0.00  0.00    +0.175 C 
ATOM     30  O   LIG    1       -3.548  -0.980  -3.513  0.00  0.00    -0.377 OA
ATOM     31  C   LIG    1       -3.242  -2.220  -2.869  0.00  0.00    +0.175 C 
ATOM     32  C   LIG    1       -2.860  -1.952  -1.411  0.00  0.00    +0.113 C 
ENDBRANCH  26  27
ENDBRANCH  10  26
TORSDOF 5
