REMARK  Name = ZINC19407717
REMARK                            x       y       z     vdW  Elec       q    Type
REMARK                         _______ _______ _______ _____ _____    ______ ____
ROOT
ATOM      1  C   UNK A  0       -2.507   1.283   0.020  0.00  0.00    +0.250 C 
ATOM      2  N   ASN A  1       -3.093   0.948  -1.146  0.00  0.00    -0.298 N 
ATOM      3  H   ASN A  1       -2.624   1.233  -2.099  0.00  0.00    +0.150 HD
ATOM      4  O   UNK A  0       -3.026   0.969   1.074  0.00  0.00    -0.270 OA
ENDROOT
BRANCH   1   9
ATOM      5  C   UNK A  0        1.153   3.439   0.010  0.00  0.00    +0.006 A 
ATOM      6  C   UNK A  0       -0.048   4.124   0.025  0.00  0.00    +0.039 A 
ATOM      7  C   UNK A  0       -1.243   3.431   0.033  0.00  0.00    +0.138 A 
ATOM      8  F   UNK A  0       -2.416   4.102   0.048  0.00  0.00    -0.205 F 
ATOM      9  C   UNK A  0       -1.236   2.032   0.019  0.00  0.00    +0.107 A 
ATOM     10  C   UNK A  0       -0.016   1.347   0.009  0.00  0.00    +0.138 A 
ATOM     11  F   UNK A  0        0.002  -0.004   0.002  0.00  0.00    -0.205 F 
ATOM     12  C   UNK A  0        1.170   2.056   0.002  0.00  0.00    +0.039 A 
ENDBRANCH   1   9
BRANCH   2  13
ATOM     13  CA  ASN A  1       -4.356   0.205  -1.145  0.00  0.00    +0.191 C 
BRANCH  13  14
ATOM     14  C   ASN A  1       -4.070  -1.271  -1.031  0.00  0.00    +0.326 C 
ATOM     15  O   ASN A  1       -2.929  -1.661  -0.958  0.00  0.00    -0.249 OA
BRANCH  14  16
ATOM     16  OXT ASN A  1       -5.083  -2.151  -1.010  0.00  0.00    -0.479 OA
ATOM     17  HXT ASN A  1       -5.968  -1.848  -1.066  0.00  0.00    +0.295 HD
ENDBRANCH  14  16
ENDBRANCH  13  14
BRANCH  13  18
ATOM     18  CB  ASN A  1       -5.110   0.479  -2.447  0.00  0.00    +0.129 C 
BRANCH  18  19
ATOM     19  CG  ASN A  1       -5.504   1.932  -2.503  0.00  0.00    +0.213 C 
ATOM     20  ND2 ASN A  1       -6.183   2.406  -3.567  0.00  0.00    -0.329 N 
ATOM     21 HD21 ASN A  1       -6.450   1.732  -4.394  0.00  0.00    +0.145 HD
ATOM     22 HD22 ASN A  1       -6.470   3.467  -3.608  0.00  0.00    +0.145 HD
ATOM     23  OD1 ASN A  1       -5.210   2.676  -1.592  0.00  0.00    -0.276 OA
ENDBRANCH  18  19
ENDBRANCH  13  18
ENDBRANCH   2  13
TORSDOF 6
