REMARK  Name = ZINC15834288
REMARK                            x       y       z     vdW  Elec       q    Type
REMARK                         _______ _______ _______ _____ _____    ______ ____
ROOT
ATOM      1  C   LIG    1       -2.593   1.579  -0.142  0.00  0.00    +0.069 A 
ATOM      2  C   LIG    1       -3.219   0.404  -0.474  0.00  0.00    +0.089 A 
ATOM      3  C   LIG    1       -3.981   0.669  -1.721  0.00  0.00    +0.082 A 
ATOM      4  N   LIG    1       -4.722  -0.374  -2.295  0.00  0.00    -0.294 N 
ATOM      5  C   LIG    1       -5.493  -0.175  -3.525  0.00  0.00    +0.154 C 
ATOM      6  C   LIG    1       -4.696  -1.571  -1.667  0.00  0.00    +0.332 A 
ATOM      7  N   LIG    1       -4.024  -1.844  -0.545  0.00  0.00    -0.263 N 
ATOM      8  C   LIG    1       -4.110  -3.202  -0.002  0.00  0.00    +0.157 C 
ATOM      9  O   LIG    1       -5.337  -2.475  -2.166  0.00  0.00    -0.246 OA
ATOM     10  C   LIG    1       -3.767   1.939  -2.032  0.00  0.00    +0.073 A 
ATOM     11  C   LIG    1       -4.322   2.752  -3.182  0.00  0.00    +0.150 C 
ATOM     12  N   LIG    1       -3.403   3.868  -3.434  0.00  0.00    -0.330 N 
ATOM     13  H   LIG    1       -3.216   4.144  -4.345  0.00  0.00    +0.147 HD
ATOM     14  C   LIG    1       -2.792   4.531  -2.364  0.00  0.00    +0.052 A 
ATOM     15  C   LIG    1       -2.430   5.865  -2.476  0.00  0.00    +0.025 A 
ATOM     16  C   LIG    1       -1.787   6.495  -1.427  0.00  0.00    +0.002 A 
ATOM     17  C   LIG    1       -1.502   5.803  -0.263  0.00  0.00    +0.002 A 
ATOM     18  C   LIG    1       -1.867   4.474  -0.138  0.00  0.00    +0.028 A 
ATOM     19  C   LIG    1       -2.516   3.840  -1.180  0.00  0.00    +0.068 A 
ATOM     20  C   LIG    1       -3.266  -0.935   0.122  0.00  0.00    +0.266 A 
ATOM     21  O   LIG    1       -2.665  -1.214   1.142  0.00  0.00    -0.267 OA
ATOM     22  N   LIG    1       -2.919   2.500  -1.088  0.00  0.00    -0.306 N 
ENDROOT
BRANCH   1  29
ATOM     23  C   LIG    1        0.255   1.108  -0.353  0.00  0.00    +0.044 C 
ATOM     24  C   LIG    1       -0.352   1.580   0.944  0.00  0.00    -0.041 A 
ATOM     25  C   LIG    1        0.452   1.798   2.044  0.00  0.00    +0.004 A 
ATOM     26  C   LIG    1       -0.103   2.232   3.235  0.00  0.00    +0.000 A 
ATOM     27  C   LIG    1       -1.466   2.451   3.331  0.00  0.00    +0.001 A 
ATOM     28  C   LIG    1       -2.282   2.237   2.240  0.00  0.00    +0.010 A 
ATOM     29  C   LIG    1       -1.728   1.804   1.033  0.00  0.00    +0.003 A 
ENDBRANCH   1  29
BRANCH  11  30
ATOM     30  C   LIG    1       -5.678   3.297  -2.815  0.00  0.00    -0.021 A 
ATOM     31  C   LIG    1       -5.801   4.200  -1.776  0.00  0.00    +0.006 A 
ATOM     32  C   LIG    1       -7.044   4.704  -1.442  0.00  0.00    +0.000 A 
ATOM     33  C   LIG    1       -8.165   4.296  -2.140  0.00  0.00    +0.000 A 
ATOM     34  C   LIG    1       -8.043   3.389  -3.175  0.00  0.00    +0.000 A 
ATOM     35  C   LIG    1       -6.799   2.889  -3.512  0.00  0.00    +0.006 A 
ENDBRANCH  11  30
TORSDOF 2
