REMARK  Name = ZINC13860744
REMARK                            x       y       z     vdW  Elec       q    Type
REMARK                         _______ _______ _______ _____ _____    ______ ____
ROOT
ATOM      1  C   LIG    1        0.051   4.234   0.025  0.00  0.00    +0.001 A 
ATOM      2  C   LIG    1       -1.165   3.564   0.033  0.00  0.00    +0.001 A 
ATOM      3  C   LIG    1       -1.210   2.187   0.031  0.00  0.00    +0.014 A 
ATOM      4  C   LIG    1       -0.018   1.464   0.010  0.00  0.00    +0.050 A 
ATOM      5  C   LIG    1        1.218   2.150   0.002  0.00  0.00    +0.011 A 
ATOM      6  C   LIG    1        2.453   1.365  -0.014  0.00  0.00    +0.080 A 
ATOM      7  N   LIG    1        2.398   0.067  -0.020  0.00  0.00    -0.172 NA
ATOM      8  N   LIG    1        1.194  -0.637  -0.013  0.00  0.00    -0.222 N 
ATOM      9  C   LIG    1        0.002  -0.004   0.002  0.00  0.00    +0.275 A 
ATOM     10  O   LIG    1       -1.038  -0.639   0.008  0.00  0.00    -0.266 OA
ATOM     11  C   LIG    1        1.232   3.546   0.010  0.00  0.00    +0.010 A 
ENDROOT
BRANCH   6  12
ATOM     12  C   LIG    1        3.789   2.063  -0.023  0.00  0.00    +0.178 C 
BRANCH  12  13
ATOM     13  C   LIG    1        4.892   1.037  -0.040  0.00  0.00    +0.311 C 
ATOM     14  O   LIG    1        4.621  -0.141  -0.043  0.00  0.00    -0.251 OA
BRANCH  13  15
ATOM     15  O   LIG    1        6.175   1.430  -0.050  0.00  0.00    -0.480 OA
ATOM     16  H   LIG    1        6.385   2.343  -0.048  0.00  0.00    +0.295 HD
ENDBRANCH  13  15
ENDBRANCH  12  13
ENDBRANCH   6  12
BRANCH   8  17
ATOM     17  C   LIG    1        1.224  -2.102  -0.020  0.00  0.00    +0.210 C 
BRANCH  17  18
ATOM     18  C   LIG    1        1.220  -2.596  -1.444  0.00  0.00    +0.101 A 
ATOM     19  N   LIG    1        2.240  -2.836  -2.219  0.00  0.00    -0.242 NA
ATOM     20  C   LIG    1        2.099  -3.284  -3.484  0.00  0.00    +0.080 A 
ATOM     21  C   LIG    1        3.098  -3.590  -4.436  0.00  0.00    +0.049 A 
ATOM     22  C   LIG    1        2.756  -4.033  -5.687  0.00  0.00    +0.043 A 
ATOM     23 CL   LIG    1        4.010  -4.400  -6.830  0.00  0.00    -0.083 Cl
ATOM     24  C   LIG    1        1.427  -4.195  -6.062  0.00  0.00    +0.021 A 
ATOM     25  C   LIG    1        0.426  -3.904  -5.155  0.00  0.00    +0.018 A 
ATOM     26  C   LIG    1        0.759  -3.460  -3.898  0.00  0.00    +0.039 A 
ATOM     27  S   LIG    1       -0.144  -2.978  -2.448  0.00  0.00    -0.070 S 
ENDBRANCH  17  18
ENDBRANCH   8  17
TORSDOF 5
