REMARK  Name = ZINC29547560
REMARK                            x       y       z     vdW  Elec       q    Type
REMARK                         _______ _______ _______ _____ _____    ______ ____
ROOT
ATOM      1  C   LIG    1        1.419   4.391   0.011  0.00  0.00    +0.166 C 
ENDROOT
BRANCH   1   2
ATOM      2  N   LIG    1        0.603   3.174   0.013  0.00  0.00    -0.322 N 
ATOM      3  C   LIG    1        1.066   1.877   0.002  0.00  0.00    +0.106 A 
ATOM      4  C   LIG    1       -0.013   1.076   0.008  0.00  0.00    +0.102 A 
ATOM      5  N   LIG    1       -1.113   1.847   0.017  0.00  0.00    -0.340 N 
ATOM      6  H   LIG    1       -2.110   1.383   0.016  0.00  0.00    +0.167 HD
ATOM      7  C   LIG    1       -0.756   3.111   0.025  0.00  0.00    +0.158 A 
ATOM      8  S   LIG    1       -1.852   4.491   0.042  0.00  0.00    -0.013 S 
ENDBRANCH   1   2
BRANCH   1  14
ATOM      9  C   LIG    1        2.585   4.552   2.312  0.00  0.00    +0.014 A 
ATOM     10  C   LIG    1        2.561   5.123   3.571  0.00  0.00    +0.028 A 
ATOM     11  C   LIG    1        1.554   5.976   3.887  0.00  0.00    +0.078 A 
ATOM     12 CL   LIG    1        1.266   6.825   5.373  0.00  0.00    -0.076 Cl
ATOM     13  S   LIG    1        0.602   5.997   2.377  0.00  0.00    -0.080 S 
ATOM     14  C   LIG    1        1.609   4.870   1.427  0.00  0.00    +0.011 A 
ENDBRANCH   1  14
TORSDOF 2
