REMARK  Name = ZINC28526372
REMARK                            x       y       z     vdW  Elec       q    Type
REMARK                         _______ _______ _______ _____ _____    ______ ____
ROOT
ATOM      1  C   LIG    1       -0.036   0.954   0.049  0.00  0.00    +0.065 C 
ATOM      2  C   LIG    1       -0.735   1.474   1.278  0.00  0.00    +0.041 A 
ATOM      3  C   LIG    1        0.005   1.700   2.433  0.00  0.00    +0.024 A 
ATOM      4  C   LIG    1       -0.630   2.178   3.567  0.00  0.00    +0.015 A 
ATOM      5  C   LIG    1       -2.001   2.415   3.498  0.00  0.00    +0.048 A 
ATOM      6  C   LIG    1       -2.760   2.925   4.657  0.00  0.00    +0.116 A 
ATOM      7  C   LIG    1       -4.155   3.130   4.469  0.00  0.00    +0.004 A 
ATOM      8  C   LIG    1       -4.713   2.846   3.238  0.00  0.00    +0.119 A 
ATOM      9  N   LIG    1       -4.012   2.393   2.224  0.00  0.00    -0.235 NA
ATOM     10  C   LIG    1       -2.695   2.165   2.291  0.00  0.00    +0.162 A 
ATOM     11  N   LIG    1       -2.025   1.708   1.228  0.00  0.00    -0.232 NA
ENDROOT
BRANCH   6  12
ATOM     12  N   LIG    1       -2.173   3.178   5.810  0.00  0.00    -0.073 NA
ATOM     13  N   LIG    1       -1.484   2.418   6.268  0.00  0.00    -0.192 NA
ATOM     14  N   LIG    1       -0.794   1.658   6.727  0.00  0.00    -0.127 NA
ATOM     15  H   LIG    1       -1.120   0.747   6.913  0.00  0.00    +0.228 HD
ENDBRANCH   6  12
BRANCH   7  16
ATOM     16  C   LIG    1       -5.011   3.648   5.596  0.00  0.00    +0.074 C 
BRANCH  16  17
ATOM     17  C   LIG    1       -4.945   5.154   5.624  0.00  0.00    -0.043 A 
ATOM     18  C   LIG    1       -3.979   5.789   6.381  0.00  0.00    +0.004 A 
ATOM     19  C   LIG    1       -3.916   7.170   6.403  0.00  0.00    +0.000 A 
ATOM     20  C   LIG    1       -4.825   7.915   5.677  0.00  0.00    +0.000 A 
ATOM     21  C   LIG    1       -5.795   7.280   4.925  0.00  0.00    +0.000 A 
ATOM     22  C   LIG    1       -5.855   5.899   4.898  0.00  0.00    +0.004 A 
ENDBRANCH  16  17
ENDBRANCH   7  16
TORSDOF 3
