REMARK  Name = ZINC52969848
REMARK                            x       y       z     vdW  Elec       q    Type
REMARK                         _______ _______ _______ _____ _____    ______ ____
ROOT
ATOM      1  C   LIG    1       -0.610  -2.180   0.926  0.00  0.00    +0.161 C 
ENDROOT
BRANCH   1   2
ATOM      2  N   LIG    1        0.180  -2.652  -0.219  0.00  0.00    -0.311 NA
ATOM      3  H   LIG    1       -0.216  -2.329  -1.089  0.00  0.00    +0.120 HD
ATOM      4  H   LIG    1        0.263  -3.658  -0.211  0.00  0.00    +0.120 HD
ENDBRANCH   1   2
BRANCH   1   6
ATOM      5  C   LIG    1        0.002  -0.004   0.002  0.00  0.00    -0.048 C 
ATOM      6  C   LIG    1       -0.631  -0.673   0.934  0.00  0.00    +0.002 C 
BRANCH   5   7
ATOM      7  C   LIG    1       -0.018   1.503   0.010  0.00  0.00    -0.059 C 
BRANCH   7   8
ATOM      8  N   LIG    1        1.360   2.011  -0.000  0.00  0.00    +0.380 N 
ATOM      9  H   LIG    1        1.346   3.020   0.005  0.00  0.00    -0.090 HD
ATOM     10  H   LIG    1        1.832   1.686  -0.830  0.00  0.00    -0.090 HD
ATOM     11  H   LIG    1        1.848   1.677   0.817  0.00  0.00    -0.090 HD
ENDBRANCH   7   8
ENDBRANCH   5   7
ENDBRANCH   1   6
BRANCH   1  12
ATOM     12  C   LIG    1       -2.020  -2.701   0.812  0.00  0.00    +0.331 C 
ATOM     13  O   LIG    1       -2.337  -3.401  -0.134  0.00  0.00    -0.248 OA
BRANCH  12  14
ATOM     14  O   LIG    1       -2.843  -2.422   1.667  0.00  0.00    -0.479 OA
ATOM     15  H   LIG    1       -2.600  -1.884   2.395  0.00  0.00    +0.295 HD
ENDBRANCH  12  14
ENDBRANCH   1  12
BRANCH   1  16
ATOM     16  C   LIG    1        0.019  -2.688   2.224  0.00  0.00    +0.251 C 
ATOM     17  F   LIG    1       -0.734  -2.238   3.314  0.00  0.00    -0.246 F 
ENDBRANCH   1  16
TORSDOF 7
