REMARK  Name = ZINC27646328
REMARK                            x       y       z     vdW  Elec       q    Type
REMARK                         _______ _______ _______ _____ _____    ______ ____
ROOT
ATOM      1  C   LIG    1        3.652   2.170  -0.022  0.00  0.00    +0.139 A 
ATOM      2  C   LIG    1        3.964   3.207  -0.873  0.00  0.00    +0.050 A 
ATOM      3  C   LIG    1        5.252   3.634  -0.541  0.00  0.00    +0.050 A 
ATOM      4  C   LIG    1        5.680   2.837   0.507  0.00  0.00    +0.130 A 
ATOM      5  O   LIG    1        4.694   1.965   0.804  0.00  0.00    -0.455 OA
ENDROOT
BRANCH   4   6
ATOM      6  C   LIG    1        6.930   2.925   1.154  0.00  0.00    +0.066 C 
ATOM      7  C   LIG    1        7.229   2.074   2.180  0.00  0.00    +0.082 C 
ATOM      8  C   LIG    1        8.412   1.987   2.971  0.00  0.00    +0.258 C 
ATOM      9  N   LIG    1        8.460   1.065   3.918  0.00  0.00    -0.243 N 
ATOM     10  H   LIG    1        9.255   0.987   4.469  0.00  0.00    +0.159 HD
ATOM     11  C   LIG    1        7.419   0.230   4.129  0.00  0.00    +0.283 C 
ATOM     12  O   LIG    1        7.310  -0.660   4.951  0.00  0.00    -0.262 OA
ATOM     13  O   LIG    1        9.351   2.740   2.781  0.00  0.00    -0.269 OA
ATOM     14  S   LIG    1        6.240   0.770   2.901  0.00  0.00    -0.026 S 
ENDBRANCH   4   6
BRANCH   1  17
ATOM     15  C   LIG    1       -0.017   1.383   0.010  0.00  0.00    +0.039 A 
ATOM     16  C   LIG    1        1.164   2.094   0.002  0.00  0.00    +0.018 A 
ATOM     17  C   LIG    1        2.386   1.415  -0.013  0.00  0.00    +0.059 A 
ATOM     18  C   LIG    1        2.401   0.013  -0.021  0.00  0.00    +0.130 A 
ATOM     19  C   LIG    1        1.207  -0.687  -0.013  0.00  0.00    +0.084 A 
ATOM     20  C   LIG    1        0.002  -0.004   0.002  0.00  0.00    +0.127 A 
ATOM     21  F   LIG    1       -1.161  -0.692   0.010  0.00  0.00    -0.205 F 
BRANCH  18  22
ATOM     22  O   LIG    1        3.583  -0.656  -0.036  0.00  0.00    -0.506 OA
ATOM     23  H   LIG    1        3.934  -0.854   0.843  0.00  0.00    +0.292 HD
ENDBRANCH  18  22
ENDBRANCH   1  17
TORSDOF 3
