REMARK  Name = ZINC29250560
REMARK                            x       y       z     vdW  Elec       q    Type
REMARK                         _______ _______ _______ _____ _____    ______ ____
ROOT
ATOM      1  C   UNK A  0        2.472   1.417  -0.008  0.00  0.00    +0.015 A 
ATOM      2  C   UNK A  0        3.652   2.124  -0.021  0.00  0.00    +0.024 A 
ATOM      3  C   UNK A  0        3.632   3.517  -0.014  0.00  0.00    +0.031 A 
ATOM      4  C   UNK A  0        2.418   4.198   0.002  0.00  0.00    +0.024 A 
ATOM      5  C   UNK A  0        1.234   3.496   0.009  0.00  0.00    +0.015 A 
ATOM      6  C   UNK A  0        1.251   2.099   0.001  0.00  0.00    +0.037 A 
ENDROOT
BRANCH   6   7
ATOM      7  C   UNK A  0       -0.016   1.344   0.009  0.00  0.00    +0.245 C 
ATOM      8  N   GLU A  1        0.002  -0.004   0.002  0.00  0.00    -0.298 N 
ATOM      9  H   GLU A  1        0.962  -0.541  -0.010  0.00  0.00    +0.150 HD
ATOM     10  O   UNK A  0       -1.077   1.937   0.018  0.00  0.00    -0.270 OA
BRANCH   8  11
ATOM     11  CA  GLU A  1       -1.256  -0.754   0.010  0.00  0.00    +0.182 C 
BRANCH  11  12
ATOM     12  C   GLU A  1       -1.738  -0.912   1.429  0.00  0.00    +0.325 C 
ATOM     13  O   GLU A  1       -1.096  -0.446   2.341  0.00  0.00    -0.249 OA
BRANCH  12  14
ATOM     14  OXT GLU A  1       -2.880  -1.570   1.681  0.00  0.00    -0.479 OA
ATOM     15  HXT GLU A  1       -3.378  -1.931   0.974  0.00  0.00    +0.295 HD
ENDBRANCH  12  14
ENDBRANCH  11  12
BRANCH  11  16
ATOM     16  CB  GLU A  1       -1.032  -2.135  -0.609  0.00  0.00    +0.045 C 
BRANCH  16  17
ATOM     17  CG  GLU A  1       -0.663  -1.978  -2.086  0.00  0.00    +0.123 C 
BRANCH  17  18
ATOM     18  CD  GLU A  1       -0.442  -3.338  -2.696  0.00  0.00    +0.305 C 
ATOM     19  OE1 GLU A  1       -0.566  -4.331  -2.019  0.00  0.00    -0.251 OA
BRANCH  18  20
ATOM     20  OE2 GLU A  1       -0.107  -3.446  -3.991  0.00  0.00    -0.481 OA
ATOM     21  HE2 GLU A  1       -0.011  -2.676  -4.516  0.00  0.00    +0.295 HD
ENDBRANCH  18  20
ENDBRANCH  17  18
ENDBRANCH  16  17
ENDBRANCH  11  16
ENDBRANCH   8  11
ENDBRANCH   6   7
BRANCH   3  22
ATOM     22  N   UNK A  0        4.827   4.228  -0.022  0.00  0.00    -0.312 N 
BRANCH  22  23
ATOM     23  C   UNK A  0        6.105   3.513  -0.039  0.00  0.00    +0.141 C 
BRANCH  23  24
ATOM     24  C   UNK A  0        6.529   3.275  -1.465  0.00  0.00    -0.029 A 
ATOM     25  C   UNK A  0        6.136   2.107  -2.113  0.00  0.00    +0.007 A 
ATOM     26  C   UNK A  0        6.498   1.864  -3.404  0.00  0.00    +0.029 A 
ATOM     27  C   UNK A  0        7.288   2.798  -4.089  0.00  0.00    +0.080 A 
ATOM     28  C   UNK A  0        7.692   3.983  -3.427  0.00  0.00    +0.065 A 
ATOM     29  C   UNK A  0        8.488   4.912  -4.138  0.00  0.00    +0.260 A 
ATOM     30  O   UNK A  0        8.902   6.060  -3.555  0.00  0.00    -0.267 OA
ATOM     31  N   UNK A  0        8.818   4.629  -5.387  0.00  0.00    -0.295 N 
ATOM     32  H   UNK A  0        9.437   5.332  -5.965  0.00  0.00    +0.172 HD
ATOM     33  C   UNK A  0        8.418   3.504  -5.974  0.00  0.00    +0.194 A 
ATOM     34  N   UNK A  0        7.675   2.604  -5.358  0.00  0.00    -0.216 NA
ATOM     35  C   UNK A  0        7.298   4.205  -2.102  0.00  0.00    +0.020 A 
BRANCH  33  36
ATOM     36  N   UNK A  0        8.797   3.268  -7.283  0.00  0.00    -0.329 N 
ATOM     37  H   UNK A  0        9.416   4.003  -7.817  0.00  0.00    +0.145 HD
ATOM     38  H   UNK A  0        8.479   2.344  -7.789  0.00  0.00    +0.145 HD
ENDBRANCH  33  36
ENDBRANCH  23  24
ENDBRANCH  22  23
BRANCH  22  39
ATOM     39  C   UNK A  0        4.807   5.693  -0.014  0.00  0.00    +0.224 C 
BRANCH  39  40
ATOM     40  C   UNK A  0        4.814   6.176   1.376  0.00  0.00    +0.082 C 
ATOM     41  N   UNK A  0        4.819   6.549   2.449  0.00  0.00    -0.195 NA
ENDBRANCH  39  40
ENDBRANCH  22  39
ENDBRANCH   3  22
TORSDOF 14
