REMARK  Name = ZINC44127101
REMARK                            x       y       z     vdW  Elec       q    Type
REMARK                         _______ _______ _______ _____ _____    ______ ____
ROOT
ATOM      1  C   LIG    1        0.731  -0.503   1.223  0.00  0.00    -0.047 A 
ATOM      2  C   LIG    1        2.101  -0.709   1.172  0.00  0.00    +0.007 A 
ATOM      3  C   LIG    1        2.786  -1.167   2.281  0.00  0.00    +0.046 A 
ATOM      4  C   LIG    1        2.103  -1.424   3.456  0.00  0.00    +0.129 A 
ATOM      5  C   LIG    1        0.713  -1.215   3.511  0.00  0.00    +0.018 A 
ATOM      6  C   LIG    1        0.011  -1.494   4.772  0.00  0.00    +0.026 C 
ATOM      7  C   LIG    1        0.759  -1.615   5.902  0.00  0.00    +0.086 C 
ATOM      8  C   LIG    1        2.253  -1.441   5.829  0.00  0.00    +0.314 C 
ATOM      9  O   LIG    1        2.745  -1.876   4.561  0.00  0.00    -0.474 OA
ATOM     10  C   LIG    1        0.032  -0.748   2.387  0.00  0.00    +0.015 A 
ENDROOT
BRANCH   8  11
ATOM     11  C   LIG    1        2.601   0.036   6.022  0.00  0.00    +0.431 C 
ATOM     12  F   LIG    1        1.992   0.794   5.016  0.00  0.00    -0.167 F 
ATOM     13  F   LIG    1        3.988   0.202   5.955  0.00  0.00    -0.167 F 
ATOM     14  F   LIG    1        2.140   0.464   7.272  0.00  0.00    -0.167 F 
ENDBRANCH   8  11
BRANCH   1  16
ATOM     15  C   LIG    1       -0.019   1.526   0.010  0.00  0.00    +0.009 C 
ATOM     16  C   LIG    1        0.002  -0.004   0.002  0.00  0.00    +0.032 C 
ENDBRANCH   1  16
BRANCH   7  17
ATOM     17  C   LIG    1        0.136  -1.901   7.138  0.00  0.00    +0.337 C 
ATOM     18  O   LIG    1       -1.080  -2.042   7.194  0.00  0.00    -0.245 OA
BRANCH  17  19
ATOM     19  O   LIG    1        0.813  -2.010   8.154  0.00  0.00    -0.477 OA
ATOM     20  H   LIG    1        1.743  -1.902   8.111  0.00  0.00    +0.295 HD
ENDBRANCH  17  19
ENDBRANCH   7  17
TORSDOF 4
