REMARK  Name = ZINC18847034
REMARK                            x       y       z     vdW  Elec       q    Type
REMARK                         _______ _______ _______ _____ _____    ______ ____
ROOT
ATOM      1  C   LIG    1       -1.271  -0.765   0.011  0.00  0.00    +0.064 A 
ATOM      2  C   LIG    1       -2.131  -0.698  -1.040  0.00  0.00    +0.208 A 
ATOM      3  O   LIG    1       -3.279  -1.378  -1.077  0.00  0.00    -0.462 OA
ATOM      4  C   LIG    1       -3.813  -1.929   0.030  0.00  0.00    +0.142 A 
ATOM      5  C   LIG    1       -5.137  -2.351   0.043  0.00  0.00    +0.092 A 
ATOM      6  C   LIG    1       -5.666  -2.923   1.187  0.00  0.00    +0.120 A 
ATOM      7  C   LIG    1       -4.884  -3.082   2.329  0.00  0.00    +0.046 A 
ATOM      8  C   LIG    1       -3.582  -2.670   2.335  0.00  0.00    +0.019 A 
ATOM      9  C   LIG    1       -3.036  -2.087   1.191  0.00  0.00    +0.065 A 
ATOM     10  C   LIG    1       -1.637  -1.619   1.157  0.00  0.00    +0.200 A 
ATOM     11  O   LIG    1       -0.833  -1.915   2.024  0.00  0.00    -0.286 OA
ENDROOT
BRANCH   1  17
ATOM     12  C   LIG    1       -0.017   1.390   0.010  0.00  0.00    +0.012 A 
ATOM     13  C   LIG    1        1.169   2.094   0.002  0.00  0.00    +0.046 A 
ATOM     14  C   LIG    1        2.380   1.416  -0.013  0.00  0.00    +0.117 A 
ATOM     15  C   LIG    1        2.402   0.029  -0.022  0.00  0.00    +0.046 A 
ATOM     16  C   LIG    1        1.220  -0.682  -0.014  0.00  0.00    +0.012 A 
ATOM     17  C   LIG    1        0.002  -0.004   0.002  0.00  0.00    -0.011 A 
BRANCH  14  18
ATOM     18  O   LIG    1        3.547   2.113  -0.021  0.00  0.00    -0.507 OA
ATOM     19  H   LIG    1        3.894   2.310   0.860  0.00  0.00    +0.292 HD
ENDBRANCH  14  18
ENDBRANCH   1  17
BRANCH   6  20
ATOM     20  O   LIG    1       -6.960  -3.333   1.196  0.00  0.00    -0.507 OA
ATOM     21  H   LIG    1       -7.084  -4.251   0.916  0.00  0.00    +0.292 HD
ENDBRANCH   6  20
TORSDOF 3
