REMARK  Name = ZINC14959960
REMARK                            x       y       z     vdW  Elec       q    Type
REMARK                         _______ _______ _______ _____ _____    ______ ____
ROOT
ATOM      1  N   LIG    1       -0.202  -4.738  -0.501  0.00  0.00    -0.270 N 
ATOM      2  H   LIG    1       -0.713  -4.329  -1.217  0.00  0.00    +0.156 HD
ATOM      3  C   LIG    1       -0.040  -6.075  -0.466  0.00  0.00    +0.223 C 
ATOM      4  O   LIG    1        0.519  -6.594   0.476  0.00  0.00    -0.275 OA
ENDROOT
BRANCH   1   9
ATOM      5  C   LIG    1        1.530  -3.811   2.486  0.00  0.00    +0.236 A 
ATOM      6  C   LIG    1        1.491  -2.409   2.458  0.00  0.00    +0.134 A 
ATOM      7  C   LIG    1        0.849  -1.769   1.378  0.00  0.00    +0.051 A 
ATOM      8  C   LIG    1        0.282  -2.562   0.386  0.00  0.00    +0.068 A 
ATOM      9  C   LIG    1        0.365  -3.942   0.490  0.00  0.00    +0.131 A 
ATOM     10  N   LIG    1        0.980  -4.518   1.515  0.00  0.00    -0.197 NA
BRANCH   7  11
ATOM     11  N   LIG    1        0.785  -0.386   1.306  0.00  0.00    -0.357 N 
ATOM     12  H   LIG    1        0.340   0.042   0.558  0.00  0.00    +0.142 HD
ATOM     13  H   LIG    1        1.185   0.155   2.006  0.00  0.00    +0.142 HD
ENDBRANCH   7  11
BRANCH   6  14
ATOM     14  C   LIG    1        2.092  -1.642   3.507  0.00  0.00    +0.106 C 
ATOM     15  N   LIG    1        2.569  -1.033   4.340  0.00  0.00    -0.191 NA
ENDBRANCH   6  14
BRANCH   5  16
ATOM     16  O   LIG    1        2.142  -4.446   3.515  0.00  0.00    -0.476 OA
BRANCH  16  18
ATOM     17  C   LIG    1        2.882  -6.407   4.717  0.00  0.00    +0.048 C 
ATOM     18  C   LIG    1        2.153  -5.874   3.482  0.00  0.00    +0.227 C 
ENDBRANCH  16  18
ENDBRANCH   5  16
ENDBRANCH   1   9
BRANCH   3  19
ATOM     19  C   LIG    1       -0.555  -6.926  -1.598  0.00  0.00    +0.135 C 
BRANCH  19  20
ATOM     20  C   LIG    1       -0.250  -8.375  -1.317  0.00  0.00    +0.006 A 
ATOM     21  C   LIG    1        0.894  -8.953  -1.833  0.00  0.00    +0.053 A 
ATOM     22  C   LIG    1        1.176 -10.286  -1.573  0.00  0.00    +0.121 A 
ATOM     23  C   LIG    1        0.308 -11.039  -0.796  0.00  0.00    +0.049 A 
ATOM     24  C   LIG    1       -0.835 -10.461  -0.280  0.00  0.00    +0.049 A 
ATOM     25  C   LIG    1       -1.114  -9.127  -0.535  0.00  0.00    +0.124 A 
BRANCH  22  26
ATOM     26  O   LIG    1        2.301 -10.854  -2.082  0.00  0.00    -0.495 OA
ATOM     27  C   LIG    1        2.528 -12.231  -1.774  0.00  0.00    +0.277 C 
ENDBRANCH  22  26
BRANCH  25  28
ATOM     28  O   LIG    1       -2.237  -8.556  -0.023  0.00  0.00    -0.495 OA
ATOM     29  C   LIG    1       -3.082  -9.389   0.773  0.00  0.00    +0.277 C 
ENDBRANCH  25  28
ENDBRANCH  19  20
ENDBRANCH   3  19
TORSDOF 9
