REMARK  Name = ZINC34061016
REMARK                            x       y       z     vdW  Elec       q    Type
REMARK                         _______ _______ _______ _____ _____    ______ ____
ROOT
ATOM      1  C   LIG    1        0.011   1.072   2.506  0.00  0.00    +0.037 C 
ENDROOT
BRANCH   1   5
ATOM      2  C   LIG    1       -1.988   2.450   6.021  0.00  0.00    +0.000 A 
ATOM      3  C   LIG    1       -2.342   1.240   5.454  0.00  0.00    +0.000 A 
ATOM      4  C   LIG    1       -1.696   0.794   4.316  0.00  0.00    +0.003 A 
ATOM      5  C   LIG    1       -0.694   1.558   3.746  0.00  0.00    -0.047 A 
ATOM      6  C   LIG    1       -0.336   2.765   4.317  0.00  0.00    +0.003 A 
ATOM      7  C   LIG    1       -0.986   3.213   5.452  0.00  0.00    +0.000 A 
ENDBRANCH   1   5
BRANCH   1   8
ATOM      8  C   LIG    1       -0.729   1.579   1.267  0.00  0.00    +0.026 C 
BRANCH   8   9
ATOM      9  C   LIG    1       -0.013   1.086   0.008  0.00  0.00    +0.123 C 
BRANCH   9  10
ATOM     10  N   LIG    1       -0.721   1.571  -1.179  0.00  0.00    -0.337 N 
ATOM     11  C   LIG    1       -1.734   0.929  -1.839  0.00  0.00    +0.106 A 
ATOM     12  C   LIG    1       -2.096   1.724  -2.864  0.00  0.00    +0.130 A 
ATOM     13  N   LIG    1       -1.319   2.817  -2.836  0.00  0.00    -0.244 NA
ATOM     14  C   LIG    1       -0.493   2.732  -1.829  0.00  0.00    +0.199 A 
ENDBRANCH   9  10
ENDBRANCH   8   9
ENDBRANCH   1   8
TORSDOF 4
