REMARK  Name = ZINC36178158
REMARK                            x       y       z     vdW  Elec       q    Type
REMARK                         _______ _______ _______ _____ _____    ______ ____
ROOT
ATOM      1  C   LIG    1        3.963 -14.283  -8.637  0.00  0.00    +0.125 C 
ENDROOT
BRANCH   1   2
ATOM      2  O   LIG    1        4.442 -14.760  -7.378  0.00  0.00    -0.389 OA
ATOM      3  H   LIG    1        3.904 -14.486  -6.623  0.00  0.00    +0.210 HD
ENDBRANCH   1   2
BRANCH   1   5
ATOM      4  C   LIG    1        4.423 -12.121  -7.601  0.00  0.00    -0.029 C 
ATOM      5  C   LIG    1        3.943 -12.777  -8.628  0.00  0.00    -0.002 C 
BRANCH   4   6
ATOM      6  C   LIG    1        4.403 -10.614  -7.593  0.00  0.00    +0.027 C 
BRANCH   6   7
ATOM      7  C   LIG    1        3.687 -10.120  -6.334  0.00  0.00    +0.004 C 
BRANCH   7   8
ATOM      8  C   LIG    1        3.666  -8.591  -6.326  0.00  0.00    +0.000 C 
BRANCH   8   9
ATOM      9  C   LIG    1        2.950  -8.097  -5.067  0.00  0.00    +0.000 C 
BRANCH   9  10
ATOM     10  C   LIG    1        2.929  -6.567  -5.058  0.00  0.00    +0.000 C 
BRANCH  10  11
ATOM     11  C   LIG    1        2.213  -6.074  -3.800  0.00  0.00    +0.000 C 
BRANCH  11  12
ATOM     12  C   LIG    1        2.192  -4.544  -3.791  0.00  0.00    -0.000 C 
BRANCH  12  13
ATOM     13  C   LIG    1        1.476  -4.051  -2.532  0.00  0.00    -0.000 C 
BRANCH  13  14
ATOM     14  C   LIG    1        1.455  -2.521  -2.524  0.00  0.00    -0.000 C 
BRANCH  14  15
ATOM     15  C   LIG    1        0.739  -2.027  -1.265  0.00  0.00    -0.000 C 
BRANCH  15  16
ATOM     16  C   LIG    1        0.718  -0.497  -1.257  0.00  0.00    -0.000 C 
BRANCH  16  18
ATOM     17  C   LIG    1       -0.019   1.526   0.010  0.00  0.00    +0.004 C 
ATOM     18  C   LIG    1        0.002  -0.004   0.002  0.00  0.00    -0.003 C 
ENDBRANCH  16  18
ENDBRANCH  15  16
ENDBRANCH  14  15
ENDBRANCH  13  14
ENDBRANCH  12  13
ENDBRANCH  11  12
ENDBRANCH  10  11
ENDBRANCH   9  10
ENDBRANCH   8   9
ENDBRANCH   7   8
ENDBRANCH   6   7
ENDBRANCH   4   6
ENDBRANCH   1   5
BRANCH   1  19
ATOM     19  C   LIG    1        2.547 -14.811  -8.877  0.00  0.00    -0.015 C 
BRANCH  19  20
ATOM     20  N   LIG    1        1.637 -14.243  -7.873  0.00  0.00    +0.383 N 
ATOM     21  H   LIG    1        0.703 -14.591  -8.032  0.00  0.00    -0.089 HD
ATOM     22  H   LIG    1        1.638 -13.237  -7.950  0.00  0.00    -0.089 HD
ATOM     23  H   LIG    1        1.944 -14.511  -6.950  0.00  0.00    -0.089 HD
ENDBRANCH  19  20
BRANCH  19  24
ATOM     24  C   LIG    1        2.546 -16.337  -8.761  0.00  0.00    +0.159 C 
BRANCH  24  25
ATOM     25  O   LIG    1        1.251 -16.839  -9.099  0.00  0.00    -0.288 OA
BRANCH  25  26
ATOM     26  P   LIG    1        0.887 -18.407  -9.085  0.00  0.00    +0.472 P 
ATOM     27  O   LIG    1        1.897 -19.185  -9.996  0.00  0.00    -0.228 OA
BRANCH  26  28
ATOM     28  O   LIG    1        0.980 -18.952  -7.620  0.00  0.00    -0.303 OA
ATOM     29  H   LIG    1        1.881 -18.826  -7.284  0.00  0.00    +0.222 HD
ENDBRANCH  26  28
BRANCH  26  30
ATOM     30  O   LIG    1       -0.569 -18.610  -9.627  0.00  0.00    -0.303 OA
ATOM     31  H   LIG    1       -0.626 -18.273 -10.535  0.00  0.00    +0.222 HD
ENDBRANCH  26  30
ENDBRANCH  25  26
ENDBRANCH  24  25
ENDBRANCH  19  24
ENDBRANCH   1  19
TORSDOF 21
