REMARK  Name = ZINC29391506
REMARK                            x       y       z     vdW  Elec       q    Type
REMARK                         _______ _______ _______ _____ _____    ______ ____
ROOT
ATOM      1  C   LIG    1       -0.391   2.808  -1.771  0.00  0.00    +0.007 A 
ATOM      2  C   LIG    1       -1.044   3.283  -2.887  0.00  0.00    +0.026 A 
ATOM      3  C   LIG    1       -2.066   2.533  -3.463  0.00  0.00    +0.047 A 
ATOM      4  C   LIG    1       -2.419   1.293  -2.894  0.00  0.00    +0.001 A 
ATOM      5  C   LIG    1       -3.473   0.764  -3.678  0.00  0.00    +0.042 A 
ATOM      6  CA  LIG    1       -3.735   1.654  -4.673  0.00  0.00    +0.125 A 
ATOM      7  C   LIG    1       -1.736   0.829  -1.763  0.00  0.00    +0.015 A 
ATOM      8  N   LIG    1       -2.883   2.735  -4.550  0.00  0.00    -0.349 N 
ATOM      9  H   LIG    1       -2.782   3.650  -5.151  0.00  0.00    +0.166 HD
ATOM     10  C   LIG    1       -0.742   1.585  -1.213  0.00  0.00    -0.027 A 
ENDROOT
BRANCH   6  11
ATOM     11  C   LIG    1       -4.760   1.491  -5.712  0.00  0.00    +0.353 C 
ATOM     12  O   LIG    1       -5.458   0.496  -5.727  0.00  0.00    -0.243 OA
BRANCH  11  13
ATOM     13  OXT LIG    1       -4.927   2.446  -6.649  0.00  0.00    -0.476 OA
ATOM     14  HXT LIG    1       -4.389   3.213  -6.638  0.00  0.00    +0.295 HD
ENDBRANCH  11  13
ENDBRANCH   6  11
BRANCH  10  15
ATOM     15  C   LIG    1       -0.013   1.086   0.008  0.00  0.00    +0.157 C 
BRANCH  15  16
ATOM     16  N   LIG    1       -0.698   1.558   1.213  0.00  0.00    -0.334 N 
ATOM     17  C   LIG    1       -0.451   2.726   1.884  0.00  0.00    +0.105 A 
ATOM     18  C   LIG    1       -1.304   2.766   2.925  0.00  0.00    +0.101 A 
ATOM     19  N   LIG    1       -2.046   1.649   2.896  0.00  0.00    -0.352 N 
ATOM     20  H   LIG    1       -2.811   1.476   3.668  0.00  0.00    +0.166 HD
ATOM     21  C   LIG    1       -1.689   0.920   1.874  0.00  0.00    +0.174 A 
ENDBRANCH  15  16
ENDBRANCH  10  15
TORSDOF 4
