REMARK  Name = ZINC00002139
REMARK                            x       y       z     vdW  Elec       q    Type
REMARK                         _______ _______ _______ _____ _____    ______ ____
ROOT
ATOM      1  C   LIG    1        4.134  -1.551  -1.127  0.00  0.00    +0.120 A 
ATOM      2  C   LIG    1        3.793  -2.277  -2.259  0.00  0.00    +0.046 A 
ATOM      3  C   LIG    1        4.687  -2.381  -3.307  0.00  0.00    +0.007 A 
ATOM      4  C   LIG    1        5.921  -1.762  -3.228  0.00  0.00    -0.043 A 
ATOM      5  C   LIG    1        6.264  -1.038  -2.101  0.00  0.00    +0.007 A 
ATOM      6  C   LIG    1        5.371  -0.927  -1.053  0.00  0.00    +0.046 A 
ENDROOT
BRANCH   1   7
ATOM      7  O   LIG    1        3.257  -1.448  -0.095  0.00  0.00    -0.494 OA
BRANCH   7   8
ATOM      8  C   LIG    1        2.002  -2.116  -0.240  0.00  0.00    +0.210 C 
BRANCH   8   9
ATOM      9  C   LIG    1        1.154  -1.888   1.012  0.00  0.00    -0.037 C 
BRANCH   9  10
ATOM     10  N   LIG    1        0.823  -0.461   1.126  0.00  0.00    +0.382 N 
ATOM     11  H   LIG    1        1.672   0.084   1.110  0.00  0.00    -0.082 HD
BRANCH  10  13
ATOM     12  C   LIG    1       -0.264   1.446   0.039  0.00  0.00    -0.017 C 
ATOM     13  C   LIG    1       -0.033  -0.066  -0.001  0.00  0.00    -0.082 C 
ENDBRANCH  10  13
BRANCH  10  14
ATOM     14  C   LIG    1        0.111  -0.222   2.389  0.00  0.00    -0.082 C 
ATOM     15  C   LIG    1        1.053  -0.495   3.563  0.00  0.00    -0.017 C 
ENDBRANCH  10  14
ENDBRANCH   9  10
ENDBRANCH   8   9
ENDBRANCH   7   8
ENDBRANCH   1   7
BRANCH   4  16
ATOM     16  C   LIG    1        6.894  -1.877  -4.373  0.00  0.00    +0.070 C 
BRANCH  16  17
ATOM     17  C   LIG    1        6.669  -0.744  -5.340  0.00  0.00    -0.043 A 
ATOM     18  C   LIG    1        5.774  -0.892  -6.383  0.00  0.00    +0.004 A 
ATOM     19  C   LIG    1        5.567   0.147  -7.270  0.00  0.00    +0.000 A 
ATOM     20  C   LIG    1        6.255   1.336  -7.114  0.00  0.00    +0.000 A 
ATOM     21  C   LIG    1        7.149   1.485  -6.071  0.00  0.00    +0.000 A 
ATOM     22  C   LIG    1        7.353   0.447  -5.181  0.00  0.00    +0.004 A 
ENDBRANCH  16  17
ENDBRANCH   4  16
TORSDOF 8
