REMARK  Name = ZINC13782471
REMARK                            x       y       z     vdW  Elec       q    Type
REMARK                         _______ _______ _______ _____ _____    ______ ____
ROOT
ATOM      1  C   LIG    1        1.161   2.106   0.002  0.00  0.00    +0.146 A 
ATOM      2  C   LIG    1       -0.017   1.383   0.010  0.00  0.00    +0.048 A 
ATOM      3  C   LIG    1        0.002  -0.004   0.002  0.00  0.00    +0.004 A 
ATOM      4  C   LIG    1        1.197  -0.691  -0.013  0.00  0.00    +0.015 A 
ATOM      5  C   LIG    1        2.398   0.016  -0.021  0.00  0.00    +0.068 A 
ATOM      6  C   LIG    1        3.700  -0.670  -0.037  0.00  0.00    +0.260 A 
ATOM      7  O   LIG    1        3.773  -1.885  -0.044  0.00  0.00    -0.267 OA
ATOM      8  N   LIG    1        4.811   0.102  -0.045  0.00  0.00    -0.306 N 
ATOM      9  H   LIG    1        5.687  -0.315  -0.056  0.00  0.00    +0.170 HD
ATOM     10  C   LIG    1        4.707   1.467  -0.036  0.00  0.00    +0.142 A 
ATOM     11  N   LIG    1        3.560   2.095  -0.021  0.00  0.00    -0.225 NA
ATOM     12  C   LIG    1        2.389   1.429  -0.013  0.00  0.00    +0.120 A 
ENDROOT
BRANCH  10  13
ATOM     13  C   LIG    1        5.949   2.268  -0.044  0.00  0.00    +0.017 A 
ATOM     14  C   LIG    1        7.192   1.630  -0.054  0.00  0.00    +0.013 A 
ATOM     15  C   LIG    1        8.348   2.377  -0.067  0.00  0.00    +0.019 A 
ATOM     16  C   LIG    1        8.279   3.772  -0.058  0.00  0.00    +0.052 A 
ATOM     17  C   LIG    1        7.036   4.410  -0.043  0.00  0.00    +0.019 A 
ATOM     18  C   LIG    1        5.880   3.663  -0.036  0.00  0.00    +0.013 A 
BRANCH  16  19
ATOM     19  C   LIG    1        9.482   4.549  -0.065  0.00  0.00    +0.099 C 
ATOM     20  N   LIG    1       10.437   5.165  -0.070  0.00  0.00    -0.191 NA
ENDBRANCH  16  19
ENDBRANCH  10  13
BRANCH   1  22
ATOM     21  C   LIG    1       -0.159   4.084   0.025  0.00  0.00    +0.277 C 
ATOM     22  O   LIG    1        1.129   3.465   0.009  0.00  0.00    -0.493 OA
ENDBRANCH   1  22
TORSDOF 3
