REMARK  Name = ZINC19796087
REMARK                            x       y       z     vdW  Elec       q    Type
REMARK                         _______ _______ _______ _____ _____    ______ ____
ROOT
ATOM      1  C   LIG    1        1.395  -0.235   1.584  0.00  0.00    +0.066 C 
ATOM      2  C   LIG    1        1.235  -1.727   1.719  0.00  0.00    +0.049 C 
ATOM      3  C   LIG    1       -0.010  -2.271   1.577  0.00  0.00    +0.069 C 
ATOM      4  C   LIG    1       -0.139  -3.776   1.718  0.00  0.00    +0.096 C 
ATOM      5  C   LIG    1        1.149  -4.527   2.006  0.00  0.00    +0.065 C 
ATOM      6  C   LIG    1        2.317  -3.769   2.113  0.00  0.00    +0.049 C 
ATOM      7  C   LIG    1        3.622  -4.467   2.398  0.00  0.00    +0.066 C 
ATOM      8  C   LIG    1        1.165  -5.897   2.156  0.00  0.00    +0.285 C 
ATOM      9  N   LIG    1        2.308  -2.464   1.966  0.00  0.00    -0.256 NA
ENDROOT
BRANCH   4  10
ATOM     10  C   LIG    1       -1.107  -4.063   2.837  0.00  0.00    -0.033 A 
ATOM     11  C   LIG    1       -0.884  -3.536   4.096  0.00  0.00    +0.005 A 
ATOM     12  C   LIG    1       -1.772  -3.799   5.122  0.00  0.00    +0.003 A 
ATOM     13  C   LIG    1       -2.883  -4.589   4.890  0.00  0.00    +0.032 A 
ATOM     14  C   LIG    1       -3.106  -5.115   3.631  0.00  0.00    +0.122 A 
ATOM     15  C   LIG    1       -2.220  -4.848   2.604  0.00  0.00    +0.037 A 
BRANCH  14  16
ATOM     16  N   LIG    1       -4.295  -5.960   3.383  0.00  0.00    +0.006 N 
ATOM     17  O   LIG    1       -5.114  -6.124   4.257  0.00  0.00    -0.130 OA
BRANCH  16  18
ATOM     18  O   LIG    1       -4.448  -6.487   2.305  0.00  0.00    -0.396 OA
ATOM     19  H   LIG    1       -3.814  -6.359   1.628  0.00  0.00    +0.329 HD
ENDBRANCH  16  18
ENDBRANCH  14  16
ENDBRANCH   4  10
BRANCH   3  20
ATOM     20  C   LIG    1       -1.131  -1.465   1.310  0.00  0.00    +0.338 C 
ATOM     21  O   LIG    1       -1.015  -0.253   1.277  0.00  0.00    -0.245 OA
BRANCH  20  22
ATOM     22  O   LIG    1       -2.335  -2.035   1.091  0.00  0.00    -0.460 OA
BRANCH  22  23
ATOM     23  C   LIG    1       -3.420  -1.159   0.778  0.00  0.00    +0.248 C 
BRANCH  23  24
ATOM     24  C   LIG    1       -4.695  -1.980   0.573  0.00  0.00    +0.125 C 
BRANCH  24  25
ATOM     25  N   LIG    1       -4.539  -2.838  -0.609  0.00  0.00    -0.298 NA
ATOM     26  C   LIG    1       -4.643  -2.054  -1.847  0.00  0.00    +0.105 C 
BRANCH  25  27
ATOM     27  C   LIG    1       -5.518  -3.933  -0.597  0.00  0.00    +0.119 C 
BRANCH  27  28
ATOM     28  C   LIG    1       -5.102  -4.990  -1.587  0.00  0.00    -0.033 A 
ATOM     29  C   LIG    1       -5.611  -4.973  -2.872  0.00  0.00    +0.005 A 
ATOM     30  C   LIG    1       -5.229  -5.942  -3.781  0.00  0.00    +0.000 A 
ATOM     31  C   LIG    1       -4.338  -6.929  -3.404  0.00  0.00    +0.000 A 
ATOM     32  C   LIG    1       -3.827  -6.946  -2.119  0.00  0.00    +0.000 A 
ATOM     33  C   LIG    1       -4.206  -5.974  -1.212  0.00  0.00    +0.005 A 
ENDBRANCH  27  28
ENDBRANCH  25  27
ENDBRANCH  24  25
ENDBRANCH  23  24
ENDBRANCH  22  23
ENDBRANCH  20  22
ENDBRANCH   3  20
BRANCH   8  34
ATOM     34  O   LIG    1        0.036  -6.608   1.968  0.00  0.00    -0.467 OA
ATOM     35  C   LIG    1        0.126  -8.024   2.139  0.00  0.00    +0.280 C 
ENDBRANCH   8  34
BRANCH   8  36
ATOM     36  O   LIG    1        2.310  -6.525   2.490  0.00  0.00    -0.480 OA
ATOM     37  H   LIG    1        3.095  -6.030   2.621  0.00  0.00    +0.295 HD
ENDBRANCH   8  36
TORSDOF 12
