REMARK  Name = ZINC21219614
REMARK                            x       y       z     vdW  Elec       q    Type
REMARK                         _______ _______ _______ _____ _____    ______ ____
ROOT
ATOM      1  N   LIG    1       -0.288   1.272  -2.443  0.00  0.00    -0.285 N 
ATOM      2  H   LIG    1        0.655   0.719  -2.557  0.00  0.00    +0.155 HD
ATOM      3  C   LIG    1       -0.739   1.590  -1.213  0.00  0.00    +0.218 C 
ATOM      4  O   LIG    1       -1.735   2.270  -1.089  0.00  0.00    -0.275 OA
ENDROOT
BRANCH   1  13
ATOM      5  C   LIG    1       -2.451   3.215  -4.710  0.00  0.00    +0.002 A 
ATOM      6  C   LIG    1       -2.500   2.427  -5.821  0.00  0.00    +0.010 A 
ATOM      7  C   LIG    1       -1.803   1.210  -5.844  0.00  0.00    +0.002 A 
ATOM      8  C   LIG    1       -1.822   0.363  -6.965  0.00  0.00    +0.119 A 
ATOM      9  N   LIG    1       -1.140  -0.759  -6.948  0.00  0.00    -0.263 NA
ATOM     10  C   LIG    1       -0.432  -1.153  -5.899  0.00  0.00    +0.111 A 
ATOM     11  C   LIG    1       -0.355  -0.406  -4.762  0.00  0.00    +0.030 A 
ATOM     12  C   LIG    1       -1.048   0.815  -4.709  0.00  0.00    +0.006 A 
ATOM     13  C   LIG    1       -1.020   1.646  -3.572  0.00  0.00    +0.041 A 
ATOM     14  C   LIG    1       -1.718   2.835  -3.589  0.00  0.00    +0.024 A 
ENDBRANCH   1  13
BRANCH   3  15
ATOM     15  C   LIG    1       -0.004   1.100   0.008  0.00  0.00    +0.101 C 
BRANCH  15  16
ATOM     16  C   LIG    1       -0.718   1.598   1.266  0.00  0.00    +0.044 C 
BRANCH  16  17
ATOM     17  C   LIG    1        0.017   1.108   2.488  0.00  0.00    -0.047 A 
ATOM     18  C   LIG    1       -0.324  -0.103   3.060  0.00  0.00    +0.005 A 
ATOM     19  C   LIG    1        0.354  -0.555   4.176  0.00  0.00    +0.020 A 
ATOM     20  C   LIG    1        1.366   0.210   4.728  0.00  0.00    +0.041 A 
ATOM     21 CL   LIG    1        2.213  -0.354   6.135  0.00  0.00    -0.084 Cl
ATOM     22  C   LIG    1        1.703   1.425   4.159  0.00  0.00    +0.020 A 
ATOM     23  C   LIG    1        1.028   1.873   3.039  0.00  0.00    +0.005 A 
ENDBRANCH  16  17
ENDBRANCH  15  16
ENDBRANCH   3  15
TORSDOF 4
