REMARK  Name = ZINC21873676
REMARK                            x       y       z     vdW  Elec       q    Type
REMARK                         _______ _______ _______ _____ _____    ______ ____
ROOT
ATOM      1  C   LIG    1       -3.708  -2.787   0.137  0.00  0.00    +0.222 A 
ATOM      2  N   LIG    1       -3.988  -2.276  -1.056  0.00  0.00    -0.198 NA
ATOM      3  C   LIG    1       -4.103  -3.054  -2.125  0.00  0.00    +0.139 A 
ATOM      4  C   LIG    1       -3.922  -4.443  -1.969  0.00  0.00    +0.079 A 
ATOM      5  C   LIG    1       -3.965  -5.552  -2.841  0.00  0.00    +0.148 A 
ATOM      6  N   LIG    1       -3.718  -6.629  -2.152  0.00  0.00    -0.177 NA
ATOM      7  N   LIG    1       -3.502  -6.291  -0.810  0.00  0.00    -0.249 N 
ATOM      8  C   LIG    1       -3.196  -7.229   0.273  0.00  0.00    +0.174 C 
ATOM      9  C   LIG    1       -3.627  -4.939  -0.685  0.00  0.00    +0.165 A 
ATOM     10  N   LIG    1       -3.524  -4.082   0.329  0.00  0.00    -0.195 NA
ENDROOT
BRANCH   1  14
ATOM     11  C   LIG    1       -2.631   1.688   1.748  0.00  0.00    +0.039 C 
ATOM     12  C   LIG    1       -2.475   0.166   1.748  0.00  0.00    +0.133 C 
ATOM     13  C   LIG    1       -3.676  -0.472   1.042  0.00  0.00    +0.139 C 
ATOM     14  N   LIG    1       -3.598  -1.931   1.219  0.00  0.00    -0.295 N 
ATOM     15  C   LIG    1       -3.401  -2.453   2.581  0.00  0.00    +0.139 C 
ATOM     16  C   LIG    1       -2.212  -1.718   3.212  0.00  0.00    +0.133 C 
ATOM     17  C   LIG    1       -2.103  -2.099   4.690  0.00  0.00    +0.039 C 
ATOM     18  O   LIG    1       -2.414  -0.307   3.096  0.00  0.00    -0.371 OA
ENDBRANCH   1  14
BRANCH   3  19
ATOM     19  N   LIG    1       -4.395  -2.515  -3.364  0.00  0.00    -0.299 N 
ATOM     20  H   LIG    1       -4.578  -3.099  -4.117  0.00  0.00    +0.154 HD
BRANCH  19  21
ATOM     21  C   LIG    1       -4.428  -1.127  -3.532  0.00  0.00    +0.036 A 
ATOM     22  C   LIG    1       -3.554  -0.319  -2.814  0.00  0.00    +0.023 A 
ATOM     23  C   LIG    1       -3.587   1.052  -2.980  0.00  0.00    +0.005 A 
ATOM     24  C   LIG    1       -4.487   1.623  -3.860  0.00  0.00    +0.046 A 
ATOM     25  C   LIG    1       -5.361   0.821  -4.579  0.00  0.00    +0.122 A 
ATOM     26  C   LIG    1       -5.329  -0.555  -4.419  0.00  0.00    +0.069 A 
BRANCH  25  27
ATOM     27  O   LIG    1       -6.246   1.384  -5.443  0.00  0.00    -0.495 OA
ATOM     28  C   LIG    1       -6.220   2.808  -5.561  0.00  0.00    +0.277 C 
ENDBRANCH  25  27
ENDBRANCH  19  21
ENDBRANCH   3  19
TORSDOF 4
