REMARK  Name = ZINC14644952
REMARK                            x       y       z     vdW  Elec       q    Type
REMARK                         _______ _______ _______ _____ _____    ______ ____
ROOT
ATOM      1  C   LIG    1       -2.173   7.719   1.700  0.00  0.00    +0.169 A 
ATOM      2  C   LIG    1       -1.157   6.953   2.249  0.00  0.00    +0.096 A 
ATOM      3  C   LIG    1       -1.019   5.621   1.890  0.00  0.00    +0.147 A 
ATOM      4  C   LIG    1       -1.916   5.057   0.967  0.00  0.00    +0.113 A 
ATOM      5  C   LIG    1       -1.751   3.641   0.601  0.00  0.00    +0.238 A 
ATOM      6  C   LIG    1       -0.685   2.929   1.210  0.00  0.00    +0.211 A 
ATOM      7  C   LIG    1        0.127   3.569   2.098  0.00  0.00    +0.181 A 
ATOM      8  O   LIG    1       -2.501   3.099  -0.195  0.00  0.00    -0.283 OA
ATOM      9  C   LIG    1       -2.941   5.834   0.414  0.00  0.00    +0.177 A 
ATOM     10  O   LIG    1       -0.034   4.864   2.419  0.00  0.00    -0.451 OA
ATOM     11  C   LIG    1       -3.064   7.163   0.784  0.00  0.00    +0.204 A 
ENDROOT
BRANCH   7  12
ATOM     12  C   LIG    1        1.226   2.813   2.727  0.00  0.00    +0.021 A 
ATOM     13  C   LIG    1        0.979   1.561   3.297  0.00  0.00    +0.015 A 
ATOM     14  C   LIG    1        2.009   0.856   3.879  0.00  0.00    +0.046 A 
ATOM     15  C   LIG    1        3.291   1.392   3.909  0.00  0.00    +0.117 A 
ATOM     16  C   LIG    1        3.540   2.639   3.348  0.00  0.00    +0.046 A 
ATOM     17  C   LIG    1        2.516   3.349   2.760  0.00  0.00    +0.015 A 
BRANCH  15  18
ATOM     18  O   LIG    1        4.303   0.696   4.488  0.00  0.00    -0.507 OA
ATOM     19  H   LIG    1        4.417   0.879   5.431  0.00  0.00    +0.292 HD
ENDBRANCH  15  18
ENDBRANCH   7  12
BRANCH   1  21
ATOM     20  C   LIG    1       -1.357   9.533   3.000  0.00  0.00    +0.277 C 
ATOM     21  O   LIG    1       -2.301   9.023   2.057  0.00  0.00    -0.491 OA
ENDBRANCH   1  21
BRANCH   6  22
ATOM     22  O   LIG    1       -0.479   1.617   0.914  0.00  0.00    -0.488 OA
ATOM     23  C   LIG    1        0.297   1.328  -0.250  0.00  0.00    +0.277 C 
ENDBRANCH   6  22
BRANCH   9  24
ATOM     24  O   LIG    1       -3.808   5.289  -0.479  0.00  0.00    -0.503 OA
ATOM     25  H   LIG    1       -4.594   4.897  -0.075  0.00  0.00    +0.292 HD
ENDBRANCH   9  24
BRANCH  11  26
ATOM     26  O   LIG    1       -4.058   7.928   0.252  0.00  0.00    -0.488 OA
ATOM     27  C   LIG    1       -5.302   7.955   0.954  0.00  0.00    +0.277 C 
ENDBRANCH  11  26
TORSDOF 6
