REMARK  Name = ZINC37361506
REMARK                            x       y       z     vdW  Elec       q    Type
REMARK                         _______ _______ _______ _____ _____    ______ ____
ROOT
ATOM      1  C   LIG    1        2.879  -1.482  -5.064  0.00  0.00    +0.195 C 
ATOM      2  O   LIG    1        2.255  -1.515  -6.108  0.00  0.00    -0.287 OA
ENDROOT
BRANCH   1   3
ATOM      3  C   LIG    1        4.345  -1.550  -5.082  0.00  0.00    +0.047 A 
ATOM      4  C   LIG    1        5.184  -1.398  -4.015  0.00  0.00    +0.095 A 
ATOM      5  N   LIG    1        6.469  -1.527  -4.422  0.00  0.00    -0.360 N 
ATOM      6  C   LIG    1        6.523  -1.769  -5.779  0.00  0.00    +0.047 A 
ATOM      7  C   LIG    1        7.573  -1.973  -6.668  0.00  0.00    +0.026 A 
ATOM      8  C   LIG    1        7.310  -2.210  -8.000  0.00  0.00    +0.002 A 
ATOM      9  C   LIG    1        6.005  -2.237  -8.469  0.00  0.00    +0.001 A 
ATOM     10  C   LIG    1        4.952  -2.034  -7.605  0.00  0.00    +0.011 A 
ATOM     11  H   LIG    1        7.242  -1.459  -3.841  0.00  0.00    +0.165 HD
ATOM     12  C   LIG    1        5.202  -1.801  -6.255  0.00  0.00    +0.010 A 
ENDBRANCH   1   3
BRANCH   1  16
ATOM     13  C   LIG    1        0.813  -1.173  -1.365  0.00  0.00    +0.088 A 
ATOM     14  C   LIG    1        0.296  -0.565  -2.495  0.00  0.00    +0.027 A 
ATOM     15  C   LIG    1        0.962  -0.662  -3.699  0.00  0.00    +0.013 A 
ATOM     16  C   LIG    1        2.160  -1.374  -3.776  0.00  0.00    +0.022 A 
ATOM     17  C   LIG    1        2.676  -1.985  -2.631  0.00  0.00    +0.013 A 
ATOM     18  C   LIG    1        2.003  -1.876  -1.432  0.00  0.00    +0.027 A 
BRANCH  13  20
ATOM     19  C   LIG    1        0.616   0.454   0.949  0.00  0.00    +0.200 C 
ATOM     20  S   LIG    1       -0.044  -1.045   0.170  0.00  0.00    -0.006 S 
ATOM     21  O   LIG    1       -1.405  -0.851  -0.190  0.00  0.00    -0.170 OA
ATOM     22  O   LIG    1        0.354  -2.194   0.904  0.00  0.00    -0.170 OA
ENDBRANCH  13  20
ENDBRANCH   1  16
TORSDOF 3
