REMARK  Name = ZINC26392916
REMARK                            x       y       z     vdW  Elec       q    Type
REMARK                         _______ _______ _______ _____ _____    ______ ____
ROOT
ATOM      1  C   LIG    1        0.349   2.211   3.627  0.00  0.00    +0.000 C 
ATOM      2  C   LIG    1        0.068   0.775   3.180  0.00  0.00    +0.000 C 
ATOM      3  C   LIG    1       -1.166   0.756   2.273  0.00  0.00    +0.004 C 
ATOM      4  C   LIG    1       -0.928   1.677   1.081  0.00  0.00    -0.047 C 
ATOM      5  C   LIG    1       -0.013   1.086   0.008  0.00  0.00    -0.076 C 
ATOM      6  N   LIG    1       -0.915   1.668  -1.004  0.00  0.00    +0.389 N 
ATOM      7  H1  LIG    1       -0.951   1.010  -1.885  0.00  0.00    -0.085 HD
ATOM      8  H2  LIG    1       -0.543   2.659  -1.301  0.00  0.00    -0.085 HD
ATOM      9  C   LIG    1       -0.573   3.105   1.484  0.00  0.00    +0.004 C 
ATOM     10  CA  LIG    1       -2.001   1.583  -0.008  0.00  0.00    +0.044 C 
ATOM     11  C   LIG    1        0.650   3.081   2.405  0.00  0.00    +0.000 C 
ENDROOT
BRANCH  10  12
ATOM     12  C   LIG    1       -2.935   2.765  -0.035  0.00  0.00    +0.291 C 
ATOM     13  O   LIG    1       -2.747   3.666  -0.819  0.00  0.00    -0.253 OA
BRANCH  12  14
ATOM     14  OXT LIG    1       -3.976   2.818   0.810  0.00  0.00    -0.482 OA
ATOM     15  HXT LIG    1       -4.122   2.120   1.418  0.00  0.00    +0.295 HD
ENDBRANCH  12  14
ENDBRANCH  10  12
TORSDOF 2
