REMARK  Name = ZINC21982951
REMARK                            x       y       z     vdW  Elec       q    Type
REMARK                         _______ _______ _______ _____ _____    ______ ____
ROOT
ATOM      1  N   LIG    1        0.397   2.684   7.750  0.00  0.00    -0.308 N 
ATOM      2  H   LIG    1        0.348   1.952   7.116  0.00  0.00    +0.149 HD
ENDROOT
BRANCH   1   3
ATOM      3  C   LIG    1        0.220   2.441   9.106  0.00  0.00    +0.144 C 
ATOM      4  N   LIG    1        0.391   3.418   9.996  0.00  0.00    -0.283 NA
ATOM      5  H   LIG    1       -0.258   4.162   9.739  0.00  0.00    +0.125 HD
ATOM      6  C   LIG    1        0.219   3.198  11.283  0.00  0.00    +0.121 C 
ATOM      7  C   LIG    1        0.418   4.334  12.252  0.00  0.00    +0.041 C 
ATOM      8  N   LIG    1       -0.116   2.011  11.748  0.00  0.00    -0.286 NA
ATOM      9  H   LIG    1       -0.230   1.887  12.703  0.00  0.00    +0.125 HD
ATOM     10  C   LIG    1       -0.300   0.982  10.924  0.00  0.00    +0.128 C 
ATOM     11  C   LIG    1       -0.134   1.174   9.556  0.00  0.00    +0.073 C 
BRANCH  10  12
ATOM     12  N   LIG    1       -0.653  -0.263  11.422  0.00  0.00    -0.285 NA
ATOM     13  C   LIG    1       -0.964  -0.445  12.848  0.00  0.00    +0.101 C 
ATOM     14  C   LIG    1       -2.311  -1.165  12.965  0.00  0.00    +0.100 C 
ATOM     15  N   LIG    1       -2.271  -2.403  12.175  0.00  0.00    -0.298 NA
ATOM     16  C   LIG    1       -2.083  -2.118  10.746  0.00  0.00    +0.100 C 
ATOM     17  C   LIG    1       -0.733  -1.435  10.538  0.00  0.00    +0.101 C 
BRANCH  15  18
ATOM     18  C   LIG    1       -3.480  -3.208  12.396  0.00  0.00    +0.112 C 
BRANCH  18  19
ATOM     19  C   LIG    1       -3.296  -4.589  11.763  0.00  0.00    +0.171 C 
BRANCH  19  20
ATOM     20  O   LIG    1       -2.247  -5.287  12.438  0.00  0.00    -0.394 OA
ATOM     21  H   LIG    1       -2.075  -6.172  12.088  0.00  0.00    +0.209 HD
ENDBRANCH  19  20
ENDBRANCH  18  19
ENDBRANCH  15  18
ENDBRANCH  10  12
ENDBRANCH   1   3
BRANCH   1  25
ATOM     22  C   LIG    1        1.089   6.235   6.073  0.00  0.00    +0.095 A 
ATOM     23  C   LIG    1        1.062   6.219   7.460  0.00  0.00    +0.133 A 
ATOM     24  N   LIG    1        0.836   5.060   8.025  0.00  0.00    -0.233 NA
ATOM     25  C   LIG    1        0.645   3.968   7.306  0.00  0.00    +0.160 A 
ATOM     26  S   LIG    1        0.767   4.514   5.718  0.00  0.00    -0.048 S 
BRANCH  22  29
ATOM     27  N   LIG    1        1.291   7.144   3.824  0.00  0.00    -0.280 N 
ATOM     28  H   LIG    1        1.048   6.273   3.472  0.00  0.00    +0.155 HD
ATOM     29  C   LIG    1        1.313   7.351   5.155  0.00  0.00    +0.256 C 
ATOM     30  O   LIG    1        1.518   8.468   5.595  0.00  0.00    -0.269 OA
BRANCH  27  38
ATOM     31  C   LIG    1        3.274   6.659   1.842  0.00  0.00    +0.046 C 
ATOM     32  C   LIG    1        2.581   7.991   1.966  0.00  0.00    -0.028 A 
ATOM     33  C   LIG    1        2.898   9.019   1.099  0.00  0.00    +0.005 A 
ATOM     34  C   LIG    1        2.264  10.242   1.213  0.00  0.00    +0.002 A 
ATOM     35  C   LIG    1        1.309  10.441   2.193  0.00  0.00    +0.022 A 
ATOM     36  C   LIG    1        0.987   9.418   3.064  0.00  0.00    +0.062 A 
ATOM     37 CL   LIG    1       -0.211   9.668   4.295  0.00  0.00    -0.082 Cl
ATOM     38  C   LIG    1        1.619   8.185   2.949  0.00  0.00    +0.055 A 
ENDBRANCH  27  38
ENDBRANCH  22  29
ENDBRANCH   1  25
TORSDOF 8
