REMARK  Name = ZINC13831238
REMARK                            x       y       z     vdW  Elec       q    Type
REMARK                         _______ _______ _______ _____ _____    ______ ____
ROOT
ATOM      1  C   LIG    1       -2.096  -4.291  -0.001  0.00  0.00    +0.019 C 
ENDROOT
BRANCH   1   2
ATOM      2  C   LIG    1       -2.396  -2.791   0.010  0.00  0.00    +0.103 C 
BRANCH   2   3
ATOM      3  N   LIG    1       -1.137  -2.041   0.002  0.00  0.00    -0.327 N 
ATOM      4  H   LIG    1       -0.291  -2.515  -0.009  0.00  0.00    +0.148 HD
BRANCH   3   5
ATOM      5  C   LIG    1       -1.156  -0.694   0.009  0.00  0.00    +0.130 C 
ATOM      6  S   LIG    1       -2.650   0.142   0.028  0.00  0.00    -0.019 S 
BRANCH   5   8
ATOM      7  C   LIG    1       -0.018   1.461   0.010  0.00  0.00    +0.127 C 
ATOM      8  N   LIG    1        0.002  -0.004   0.002  0.00  0.00    -0.330 N 
ATOM      9  H   LIG    1        0.849  -0.478  -0.009  0.00  0.00    +0.147 HD
ENDBRANCH   5   8
ENDBRANCH   3   5
ENDBRANCH   2   3
ENDBRANCH   1   2
BRANCH   1  10
ATOM     10  C   LIG    1       -3.411  -5.074   0.007  0.00  0.00    +0.008 C 
BRANCH  10  11
ATOM     11  C   LIG    1       -3.111  -6.575  -0.004  0.00  0.00    +0.057 C 
BRANCH  11  12
ATOM     12  C   LIG    1       -4.405  -7.346   0.005  0.00  0.00    +0.059 A 
ATOM     13  C   LIG    1       -4.772  -8.287  -0.886  0.00  0.00    +0.107 A 
ATOM     14  N   LIG    1       -6.011  -8.728  -0.509  0.00  0.00    -0.351 N 
ATOM     15  H   LIG    1       -6.541  -9.407  -0.956  0.00  0.00    +0.166 HD
ATOM     16  C   LIG    1       -6.360  -8.041   0.600  0.00  0.00    +0.196 A 
ATOM     17  N   LIG    1       -5.392  -7.219   0.904  0.00  0.00    -0.241 NA
ENDBRANCH  11  12
ENDBRANCH  10  11
ENDBRANCH   1  10
TORSDOF 7
