REMARK  Name = ZINC49109717
REMARK                            x       y       z     vdW  Elec       q    Type
REMARK                         _______ _______ _______ _____ _____    ______ ____
ROOT
ATOM      1  N   LIG    1        0.132  -2.739  -0.014  0.00  0.00    -0.175 NA
ATOM      2  C   LIG    1        0.154  -4.058  -0.022  0.00  0.00    +0.172 C 
ATOM      3  C   LIG    1       -1.002  -4.979  -0.021  0.00  0.00    +0.122 C 
ATOM      4  N   LIG    1       -0.531  -6.196  -0.031  0.00  0.00    -0.177 NA
ATOM      5  N   LIG    1        0.863  -6.199  -0.038  0.00  0.00    -0.201 N 
ATOM      6  H   LIG    1        1.415  -6.997  -0.045  0.00  0.00    +0.178 HD
ATOM      7  C   LIG    1        1.335  -4.937  -0.039  0.00  0.00    +0.285 C 
ATOM      8  O   LIG    1        2.504  -4.591  -0.050  0.00  0.00    -0.267 OA
ENDROOT
BRANCH   3   9
ATOM      9  C   LIG    1       -2.433  -4.591  -0.011  0.00  0.00    +0.022 A 
ATOM     10  C   LIG    1       -3.434  -5.568  -0.006  0.00  0.00    +0.013 A 
ATOM     11  C   LIG    1       -4.754  -5.154   0.003  0.00  0.00    +0.020 A 
ATOM     12  C   LIG    1       -5.039  -3.800   0.007  0.00  0.00    +0.111 A 
ATOM     13  N   LIG    1       -4.074  -2.902   0.002  0.00  0.00    -0.263 NA
ATOM     14  C   LIG    1       -2.803  -3.247  -0.001  0.00  0.00    +0.120 A 
ENDBRANCH   3   9
BRANCH   1  15
ATOM     15  N   LIG    1        1.239  -2.076  -0.021  0.00  0.00    -0.236 N 
ATOM     16  H   LIG    1        2.087  -2.547  -0.033  0.00  0.00    +0.174 HD
BRANCH  15  22
ATOM     17  C   LIG    1       -0.017   1.377   0.010  0.00  0.00    +0.002 A 
ATOM     18  C   LIG    1        1.170   2.087   0.002  0.00  0.00    +0.002 A 
ATOM     19  C   LIG    1        2.381   1.418  -0.013  0.00  0.00    +0.022 A 
ATOM     20  C   LIG    1        2.408   0.036  -0.021  0.00  0.00    +0.063 A 
ATOM     21 CL   LIG    1        3.927  -0.804  -0.041  0.00  0.00    -0.082 Cl
ATOM     22  C   LIG    1        1.216  -0.681  -0.013  0.00  0.00    +0.067 A 
ATOM     23  C   LIG    1        0.002  -0.004   0.002  0.00  0.00    +0.026 A 
ENDBRANCH  15  22
ENDBRANCH   1  15
TORSDOF 3
