REMARK  Name = ZINC38321402
REMARK                            x       y       z     vdW  Elec       q    Type
REMARK                         _______ _______ _______ _____ _____    ______ ____
ROOT
ATOM      1  C   LIG    1        0.853   0.305   0.785  0.00  0.00    +0.057 C 
ATOM      2  C   LIG    1        2.242   0.867   0.457  0.00  0.00    +0.015 C 
ATOM      3  C   LIG    1        2.526   2.051   1.369  0.00  0.00    -0.027 C 
ATOM      4  C   LIG    1        1.472   3.139   1.128  0.00  0.00    +0.009 C 
ATOM      5  C   LIG    1        0.082   2.587   1.445  0.00  0.00    +0.039 C 
ATOM      6  C   LIG    1        3.917   2.644   1.175  0.00  0.00    -0.057 C 
ATOM      7  C   LIG    1        4.261   3.776   2.143  0.00  0.00    +0.021 C 
ATOM      8  C   LIG    1        3.309   3.938   3.279  0.00  0.00    -0.041 A 
ATOM      9  C   LIG    1        2.446   2.897   3.567  0.00  0.00    +0.011 A 
ATOM     10  C   LIG    1        1.362   2.953   4.418  0.00  0.00    +0.166 A 
ATOM     11  O   LIG    1        0.519   1.911   4.193  0.00  0.00    -0.481 OA
ATOM     12  C   LIG    1        1.033   1.044   3.165  0.00  0.00    +0.217 C 
ATOM     13  C   LIG    1        1.253   4.078   5.247  0.00  0.00    +0.159 A 
ATOM     14  C   LIG    1        2.199   5.085   5.069  0.00  0.00    +0.049 A 
ATOM     15  C   LIG    1        3.192   5.041   4.101  0.00  0.00    +0.007 A 
ATOM     16  N   LIG    1        4.904   1.563   1.394  0.00  0.00    +0.382 N 
ATOM     17  H   LIG    1        4.649   0.753   0.850  0.00  0.00    -0.081 HD
ATOM     18  C   LIG    1        4.898   1.222   2.825  0.00  0.00    -0.077 C 
ATOM     19  C   LIG    1        3.533   0.646   3.210  0.00  0.00    -0.003 C 
ATOM     20  C   LIG    1        2.421   1.590   2.831  0.00  0.00    +0.042 C 
ATOM     21  C   LIG    1        0.187   1.129   1.892  0.00  0.00    +0.112 C 
ENDROOT
BRANCH   1  23
ATOM     22  C   LIG    1        0.431   1.508  -1.364  0.00  0.00    +0.042 C 
ATOM     23  C   LIG    1       -0.019   0.349  -0.471  0.00  0.00    +0.074 C 
BRANCH  23  24
ATOM     24  C   LIG    1        0.122  -0.968  -1.236  0.00  0.00    -0.009 C 
ATOM     25  C   LIG    1       -0.819  -0.960  -2.443  0.00  0.00    +0.013 C 
ATOM     26  C   LIG    1       -0.241  -2.134  -0.315  0.00  0.00    +0.013 C 
ATOM     27  C   LIG    1        1.565  -1.128  -1.717  0.00  0.00    +0.013 C 
ENDBRANCH  23  24
BRANCH  23  28
ATOM     28  O   LIG    1       -1.385   0.539  -0.097  0.00  0.00    -0.388 OA
ATOM     29  H   LIG    1       -1.738  -0.159   0.471  0.00  0.00    +0.210 HD
ENDBRANCH  23  28
ENDBRANCH   1  23
BRANCH  13  30
ATOM     30  O   LIG    1        0.270   4.181   6.182  0.00  0.00    -0.503 OA
ATOM     31  H   LIG    1        0.511   3.823   7.047  0.00  0.00    +0.292 HD
ENDBRANCH  13  30
BRANCH  21  32
ATOM     32  O   LIG    1       -1.121   0.614   2.148  0.00  0.00    -0.373 OA
ATOM     33  C   LIG    1       -1.832   1.316   3.170  0.00  0.00    +0.194 C 
ENDBRANCH  21  32
BRANCH  16  34
ATOM     34  C   LIG    1        6.241   2.026   1.000  0.00  0.00    -0.075 C 
BRANCH  34  35
ATOM     35  C   LIG    1        7.241   0.876   1.143  0.00  0.00    -0.028 C 
ATOM     36  C   LIG    1        8.367   1.043   2.165  0.00  0.00    +0.002 C 
ATOM     37  C   LIG    1        8.674   1.123   0.668  0.00  0.00    +0.002 C 
ENDBRANCH  34  35
ENDBRANCH  16  34
TORSDOF 7
