REMARK  Name = ZINC19702309
REMARK                            x       y       z     vdW  Elec       q    Type
REMARK                         _______ _______ _______ _____ _____    ______ ____
ROOT
ATOM      1  C   LIG    1        3.744   2.872   0.547  0.00  0.00    +0.188 A 
ATOM      2  C   LIG    1        4.665   1.847   0.664  0.00  0.00    +0.085 A 
ATOM      3 CL   LIG    1        4.473   0.667   1.923  0.00  0.00    -0.080 Cl
ATOM      4  C   LIG    1        5.743   1.748  -0.209  0.00  0.00    +0.026 A 
ATOM      5  C   LIG    1        5.948   2.636  -1.209  0.00  0.00    +0.032 A 
ATOM      6  C   LIG    1        5.060   3.726  -1.417  0.00  0.00    +0.103 A 
ATOM      7  N   LIG    1        5.120   4.680  -2.348  0.00  0.00    -0.191 NA
ATOM      8  S   LIG    1        3.840   5.620  -2.090  0.00  0.00    +0.117 S 
ATOM      9  N   LIG    1        3.149   4.918  -0.818  0.00  0.00    -0.187 NA
ATOM     10  C   LIG    1        3.912   3.867  -0.529  0.00  0.00    +0.143 A 
ENDROOT
BRANCH   1  16
ATOM     11  C   LIG    1       -0.013   1.086   0.008  0.00  0.00    +0.219 C 
ATOM     12  C   LIG    1       -0.619   1.608   1.323  0.00  0.00    +0.219 C 
ATOM     13  N   LIG    1        0.461   2.389   1.942  0.00  0.00    -0.235 N 
ATOM     14  H   LIG    1        0.404   2.857   2.789  0.00  0.00    +0.245 HD
ATOM     15  C   LIG    1        1.559   2.351   1.131  0.00  0.00    +0.370 C 
ATOM     16  N   LIG    1        2.691   2.958   1.412  0.00  0.00    -0.073 NA
ATOM     17  N   LIG    1        1.357   1.617  -0.002  0.00  0.00    -0.235 N 
ATOM     18  H   LIG    1        2.013   1.470  -0.702  0.00  0.00    +0.245 HD
ENDBRANCH   1  16
TORSDOF 1
