REMARK  Name = ZINC35143440
REMARK                            x       y       z     vdW  Elec       q    Type
REMARK                         _______ _______ _______ _____ _____    ______ ____
ROOT
ATOM      1  C   LIG    1       -0.018   1.503   0.010  0.00  0.00    +0.044 C 
ATOM      2  C   LIG    1        0.002  -0.004   0.002  0.00  0.00    -0.050 A 
ATOM      3  C   LIG    1        0.006  -0.689  -1.199  0.00  0.00    +0.004 A 
ATOM      4  C   LIG    1        0.025  -2.071  -1.206  0.00  0.00    +0.005 A 
ATOM      5  C   LIG    1        0.040  -2.768  -0.013  0.00  0.00    -0.028 A 
ATOM      6  C   LIG    1        0.037  -2.084   1.188  0.00  0.00    +0.005 A 
ATOM      7  C   LIG    1        0.023  -0.702   1.195  0.00  0.00    +0.004 A 
ENDROOT
BRANCH   5   8
ATOM      8  C   LIG    1        0.059  -4.275  -0.021  0.00  0.00    +0.157 C 
BRANCH   8   9
ATOM      9  N   LIG    1        1.447  -4.746  -0.032  0.00  0.00    -0.332 N 
ATOM     10  C   LIG    1        2.212  -4.995  -1.139  0.00  0.00    +0.107 A 
ATOM     11  C   LIG    1        3.415  -5.407  -0.697  0.00  0.00    +0.130 A 
ATOM     12  N   LIG    1        3.386  -5.408   0.644  0.00  0.00    -0.244 NA
ATOM     13  C   LIG    1        2.212  -5.008   1.050  0.00  0.00    +0.199 A 
ENDBRANCH   8   9
ENDBRANCH   5   8
TORSDOF 2
