REMARK  Name = ZINC00005886
REMARK                            x       y       z     vdW  Elec       q    Type
REMARK                         _______ _______ _______ _____ _____    ______ ____
ROOT
ATOM      1  C   LIG    1       -0.729   1.579   1.267  0.00  0.00    +0.046 C 
ENDROOT
BRANCH   1   7
ATOM      2  C   LIG    1        1.046   1.740   3.162  0.00  0.00    +0.022 A 
ATOM      3  C   LIG    1        1.416   0.958   4.197  0.00  0.00    +0.083 A 
ATOM      4  N   LIG    1        0.636  -0.160   4.186  0.00  0.00    -0.367 N 
ATOM      5  C   LIG    1       -0.233  -0.078   3.139  0.00  0.00    +0.086 A 
ATOM      6  H   LIG    1        0.689  -0.892   4.820  0.00  0.00    +0.165 HD
ATOM      7  C   LIG    1        0.000   1.080   2.488  0.00  0.00    -0.030 A 
ENDBRANCH   1   7
BRANCH   1   8
ATOM      8  C   LIG    1       -0.013   1.086   0.008  0.00  0.00    +0.100 C 
BRANCH   8   9
ATOM      9  C   LIG    1       -0.742   1.585  -1.213  0.00  0.00    +0.211 C 
ATOM     10  N   LIG    1       -0.288   1.272  -2.443  0.00  0.00    -0.329 N 
ATOM     11  H   LIG    1       -0.758   1.594  -3.229  0.00  0.00    +0.145 HD
ATOM     12  H   LIG    1        0.507   0.726  -2.543  0.00  0.00    +0.145 HD
ATOM     13  O   LIG    1       -1.736   2.268  -1.088  0.00  0.00    -0.276 OA
ENDBRANCH   8   9
ENDBRANCH   1   8
TORSDOF 3
