REMARK  Name = ZINC31262374
REMARK                            x       y       z     vdW  Elec       q    Type
REMARK                         _______ _______ _______ _____ _____    ______ ____
ROOT
ATOM      1  C   LIG    1        2.863   5.791   0.093  0.00  0.00    +0.001 A 
ATOM      2  C   LIG    1        2.946   7.168   0.218  0.00  0.00    +0.002 A 
ATOM      3  C   LIG    1        1.803   7.936   0.309  0.00  0.00    +0.024 A 
ATOM      4  C   LIG    1        0.551   7.331   0.276  0.00  0.00    +0.042 A 
ATOM      5  C   LIG    1        0.472   5.937   0.150  0.00  0.00    +0.008 A 
ATOM      6  C   LIG    1       -0.969   5.601   0.145  0.00  0.00    +0.048 C 
ATOM      7  C   LIG    1       -1.663   6.889   0.270  0.00  0.00    +0.249 C 
ATOM      8  O   LIG    1       -2.870   7.052   0.301  0.00  0.00    -0.270 OA
ATOM      9  C   LIG    1       -1.539   4.346   0.040  0.00  0.00    +0.039 C 
ATOM     10  N   LIG    1       -0.733   7.856   0.347  0.00  0.00    -0.281 N 
ATOM     11  H   LIG    1       -0.878   8.941   0.453  0.00  0.00    +0.155 HD
ATOM     12  C   LIG    1        1.630   5.172   0.059  0.00  0.00    +0.010 A 
ENDROOT
BRANCH   9  13
ATOM     13  C   LIG    1       -0.835   3.212   0.494  0.00  0.00    +0.040 A 
ATOM     14  C   LIG    1       -1.211   1.889   0.318  0.00  0.00    +0.027 A 
ATOM     15  C   LIG    1       -0.231   1.101   0.927  0.00  0.00    +0.019 A 
ATOM     16  C   LIG    1        0.710   1.930   1.444  0.00  0.00    +0.083 A 
ATOM     17  N   LIG    1        0.355   3.214   1.188  0.00  0.00    -0.361 N 
ATOM     18  H   LIG    1        0.845   4.167   1.437  0.00  0.00    +0.165 HD
ENDBRANCH   9  13
TORSDOF 1
