REMARK  Name = ZINC13779795
REMARK                            x       y       z     vdW  Elec       q    Type
REMARK                         _______ _______ _______ _____ _____    ______ ____
ROOT
ATOM      1  C   LIG    1        1.185   2.058   0.002  0.00  0.00    +0.120 A 
ATOM      2  C   LIG    1        2.360   1.319  -0.008  0.00  0.00    +0.045 A 
ATOM      3  C   LIG    1        3.580   1.966  -0.022  0.00  0.00    +0.004 A 
ATOM      4  C   LIG    1        3.633   3.348  -0.015  0.00  0.00    +0.004 A 
ATOM      5  C   LIG    1        2.464   4.086   0.000  0.00  0.00    -0.033 A 
ATOM      6  C   LIG    1        1.240   3.444   0.009  0.00  0.00    +0.049 A 
ENDROOT
BRANCH   1   8
ATOM      7  C   LIG    1        0.002  -0.004   0.002  0.00  0.00    +0.277 C 
ATOM      8  O   LIG    1       -0.017   1.425   0.010  0.00  0.00    -0.495 OA
ENDBRANCH   1   8
BRANCH   5   9
ATOM      9  C   LIG    1        2.525   5.591   0.007  0.00  0.00    +0.158 C 
BRANCH   9  10
ATOM     10  C   LIG    1        2.558   6.086   1.431  0.00  0.00    +0.243 C 
ATOM     11  N   LIG    1        2.536   5.291   2.439  0.00  0.00    -0.275 N 
ATOM     12  H   LIG    1        2.495   4.266   2.382  0.00  0.00    +0.304 HD
ATOM     13  C   LIG    1        2.579   6.067   3.690  0.00  0.00    +0.276 C 
ATOM     14  C   LIG    1        2.633   7.534   3.216  0.00  0.00    +0.268 C 
ATOM     15  N   LIG    1        2.620   7.410   1.749  0.00  0.00    -0.237 N 
ATOM     16  H   LIG    1        2.648   8.145   1.117  0.00  0.00    +0.291 HD
ENDBRANCH   9  10
ENDBRANCH   5   9
TORSDOF 3
