REMARK  Name = ZINC53276049
REMARK                            x       y       z     vdW  Elec       q    Type
REMARK                         _______ _______ _______ _____ _____    ______ ____
ROOT
ATOM      1  C   LIG    1       -8.025  -4.728   4.512  0.00  0.00    +0.223 A 
ATOM      2  N   LIG    1       -8.382  -3.483   4.241  0.00  0.00    -0.196 NA
ATOM      3  C   LIG    1       -9.485  -2.961   4.775  0.00  0.00    +0.145 A 
ATOM      4  C   LIG    1      -10.263  -3.761   5.633  0.00  0.00    +0.059 A 
ATOM      5  C   LIG    1       -9.847  -5.076   5.892  0.00  0.00    +0.137 A 
ATOM      6  C   LIG    1      -11.389  -2.930   6.056  0.00  0.00    +0.032 A 
ATOM      7  C   LIG    1      -11.237  -1.736   5.461  0.00  0.00    +0.085 A 
ATOM      8  N   LIG    1      -10.100  -1.742   4.691  0.00  0.00    -0.346 N 
ATOM      9  H   LIG    1       -9.780  -0.993   4.165  0.00  0.00    +0.167 HD
ATOM     10  N   LIG    1       -8.735  -5.515   5.311  0.00  0.00    -0.198 NA
ENDROOT
BRANCH   1  11
ATOM     11  N   LIG    1       -6.871  -5.231   3.935  0.00  0.00    -0.281 N 
ATOM     12  H   LIG    1       -6.642  -6.167   4.045  0.00  0.00    +0.155 HD
BRANCH  11  16
ATOM     13  C   LIG    1       -4.375  -2.716   1.725  0.00  0.00    +0.033 A 
ATOM     14  C   LIG    1       -5.071  -2.220   2.820  0.00  0.00    +0.025 A 
ATOM     15  C   LIG    1       -5.897  -3.053   3.550  0.00  0.00    +0.029 A 
ATOM     16  C   LIG    1       -6.032  -4.386   3.192  0.00  0.00    +0.076 A 
ATOM     17  C   LIG    1       -5.335  -4.885   2.095  0.00  0.00    +0.143 A 
ATOM     18  C   LIG    1       -4.511  -4.048   1.360  0.00  0.00    +0.070 A 
BRANCH  13  22
ATOM     19  N   LIG    1       -1.249  -0.459   0.260  0.00  0.00    -0.297 NA
ATOM     20  C   LIG    1       -2.009  -0.029   1.442  0.00  0.00    +0.103 C 
ATOM     21  C   LIG    1       -3.478  -0.430   1.275  0.00  0.00    +0.120 C 
ATOM     22  N   LIG    1       -3.539  -1.871   0.986  0.00  0.00    -0.327 N 
ATOM     23  C   LIG    1       -2.699  -2.400  -0.099  0.00  0.00    +0.120 C 
ATOM     24  C   LIG    1       -1.260  -1.921   0.123  0.00  0.00    +0.103 C 
BRANCH  19  26
ATOM     25  C   LIG    1        0.098   1.586   0.319  0.00  0.00    +0.024 C 
ATOM     26  C   LIG    1        0.126   0.056   0.301  0.00  0.00    +0.051 C 
ATOM     27  C   LIG    1        0.824  -0.456   1.563  0.00  0.00    +0.024 C 
ENDBRANCH  19  26
ENDBRANCH  13  22
BRANCH  17  28
ATOM     28  O   LIG    1       -5.466  -6.192   1.742  0.00  0.00    -0.493 OA
ATOM     29  C   LIG    1       -4.721  -6.636   0.606  0.00  0.00    +0.277 C 
ENDBRANCH  17  28
ENDBRANCH  11  16
ENDBRANCH   1  11
BRANCH   5  30
ATOM     30  N   LIG    1      -10.581  -5.898   6.729  0.00  0.00    -0.297 N 
ATOM     31  H   LIG    1      -11.360  -5.550   7.189  0.00  0.00    +0.154 HD
BRANCH  30  32
ATOM     32  C   LIG    1      -10.197  -7.233   6.911  0.00  0.00    +0.054 A 
ATOM     33  C   LIG    1       -8.856  -7.574   6.902  0.00  0.00    +0.025 A 
ATOM     34  C   LIG    1       -8.472  -8.889   7.082  0.00  0.00    +0.002 A 
ATOM     35  C   LIG    1       -9.431  -9.867   7.271  0.00  0.00    +0.005 A 
ATOM     36  C   LIG    1      -10.774  -9.534   7.282  0.00  0.00    -0.023 A 
ATOM     37  C   LIG    1      -12.006 -10.392   7.465  0.00  0.00    +0.055 C 
ATOM     38  C   LIG    1      -13.181  -9.403   7.387  0.00  0.00    +0.106 C 
ATOM     39  N   LIG    1      -12.565  -8.093   7.159  0.00  0.00    -0.342 N 
ATOM     40  H   LIG    1      -13.052  -7.260   7.057  0.00  0.00    +0.146 HD
ATOM     41  C   LIG    1      -11.173  -8.220   7.109  0.00  0.00    +0.052 A 
ENDBRANCH  30  32
ENDBRANCH   5  30
TORSDOF 7
