REMARK  Name = ZINC27719434
REMARK                            x       y       z     vdW  Elec       q    Type
REMARK                         _______ _______ _______ _____ _____    ______ ____
ROOT
ATOM      1  C   LIG    1        0.400   4.161  -0.931  0.00  0.00    -0.003 C 
ATOM      2  C   LIG    1       -0.984   3.506  -0.936  0.00  0.00    -0.019 C 
ATOM      3  C   LIG    1       -0.827   1.991  -1.096  0.00  0.00    -0.078 C 
ATOM      4  N   LIG    1       -0.018   1.464   0.010  0.00  0.00    +0.385 N 
ATOM      5  H   LIG    1       -0.489   1.771   0.956  0.00  0.00    -0.081 HD
ATOM      6  C   LIG    1        0.002  -0.004   0.002  0.00  0.00    -0.073 C 
ATOM      7  C   LIG    1        0.495  -0.503   1.371  0.00  0.00    +0.026 C 
ATOM      8  C   LIG    1        1.702   0.293   1.737  0.00  0.00    +0.009 A 
ATOM      9  C   LIG    1        2.128   1.445   1.154  0.00  0.00    +0.014 A 
ATOM     10  N   LIG    1        3.240   1.975   1.656  0.00  0.00    -0.342 N 
ATOM     11  H   LIG    1        3.644   2.907   1.233  0.00  0.00    +0.167 HD
ATOM     12  C   LIG    1        3.891   1.419   2.659  0.00  0.00    +0.134 A 
ATOM     13  S   LIG    1        2.920   0.015   2.991  0.00  0.00    -0.059 S 
ATOM     14  C   LIG    1        1.332   2.042   0.000  0.00  0.00    -0.020 C 
ATOM     15  C   LIG    1        1.240   3.556   0.198  0.00  0.00    -0.009 C 
ENDROOT
BRANCH  12  16
ATOM     16  N   LIG    1        5.051   1.845   3.286  0.00  0.00    -0.339 N 
ATOM     17  H   LIG    1        5.551   2.766   2.953  0.00  0.00    +0.144 HD
ATOM     18  H   LIG    1        5.472   1.261   4.119  0.00  0.00    +0.144 HD
ENDBRANCH  12  16
TORSDOF 1
