REMARK  Name = ZINC44306243
REMARK                            x       y       z     vdW  Elec       q    Type
REMARK                         _______ _______ _______ _____ _____    ______ ____
ROOT
ATOM      1  C   LIG    1       11.889  -4.413   7.163  0.00  0.00    +0.101 A 
ATOM      2  C   LIG    1       10.913  -4.759   8.117  0.00  0.00    +0.134 A 
ATOM      3  C   LIG    1       11.174  -5.759   9.034  0.00  0.00    +0.092 A 
ATOM      4  C   LIG    1       12.394  -6.424   9.016  0.00  0.00    +0.128 A 
ATOM      5  C   LIG    1       13.363  -6.090   8.079  0.00  0.00    +0.044 A 
ATOM      6  C   LIG    1       13.119  -5.097   7.149  0.00  0.00    +0.138 A 
ENDROOT
BRANCH   5   7
ATOM      7  C   LIG    1       14.683  -6.819   8.070  0.00  0.00    +0.063 C 
ATOM      8  C   LIG    1       15.734  -5.976   8.796  0.00  0.00    +0.062 C 
ATOM      9  C   LIG    1       16.087  -4.776   7.908  0.00  0.00    +0.204 C 
ATOM     10  O   LIG    1       16.707  -5.264   6.718  0.00  0.00    -0.484 OA
ATOM     11  C   LIG    1       16.092  -6.274   6.050  0.00  0.00    +0.129 A 
ATOM     12  C   LIG    1       16.462  -6.518   4.732  0.00  0.00    +0.091 A 
ATOM     13  C   LIG    1       15.862  -7.539   4.019  0.00  0.00    +0.120 A 
ATOM     14  C   LIG    1       14.887  -8.321   4.620  0.00  0.00    +0.046 A 
ATOM     15  C   LIG    1       14.518  -8.077   5.928  0.00  0.00    +0.011 A 
ATOM     16  C   LIG    1       15.117  -7.054   6.646  0.00  0.00    +0.002 A 
BRANCH   9  17
ATOM     17  C   LIG    1       17.038  -3.865   8.641  0.00  0.00    -0.007 A 
ATOM     18  C   LIG    1       18.398  -4.113   8.604  0.00  0.00    +0.011 A 
ATOM     19  C   LIG    1       19.271  -3.280   9.275  0.00  0.00    +0.046 A 
ATOM     20  C   LIG    1       18.784  -2.192   9.985  0.00  0.00    +0.117 A 
ATOM     21  C   LIG    1       17.419  -1.945  10.020  0.00  0.00    +0.046 A 
ATOM     22  C   LIG    1       16.550  -2.779   9.343  0.00  0.00    +0.011 A 
BRANCH  20  23
ATOM     23  O   LIG    1       19.642  -1.371  10.646  0.00  0.00    -0.507 OA
ATOM     24  H   LIG    1       19.963  -0.629  10.116  0.00  0.00    +0.292 HD
ENDBRANCH  20  23
ENDBRANCH   9  17
BRANCH  13  25
ATOM     25  O   LIG    1       16.225  -7.775   2.731  0.00  0.00    -0.507 OA
ATOM     26  H   LIG    1       15.708  -7.282   2.079  0.00  0.00    +0.292 HD
ENDBRANCH  13  25
ENDBRANCH   5   7
BRANCH   6  27
ATOM     27  O   LIG    1       14.065  -4.777   6.231  0.00  0.00    -0.506 OA
ATOM     28  H   LIG    1       13.898  -4.103   5.602  0.00  0.00    +0.292 HD
ENDBRANCH   6  27
BRANCH   4  29
ATOM     29  O   LIG    1       12.640  -7.405   9.920  0.00  0.00    -0.506 OA
ATOM     30  H   LIG    1       12.308  -8.274   9.658  0.00  0.00    +0.292 HD
ENDBRANCH   4  29
BRANCH   2  31
ATOM     31  O   LIG    1        9.722  -4.111   8.137  0.00  0.00    -0.506 OA
ATOM     32  H   LIG    1        9.042  -4.521   7.585  0.00  0.00    +0.292 HD
ENDBRANCH   2  31
BRANCH   1  33
ATOM     33  C   LIG    1       11.623  -3.357   6.189  0.00  0.00    +0.170 C 
ATOM     34  O   LIG    1       12.466  -3.066   5.365  0.00  0.00    -0.292 OA
BRANCH  33  35
ATOM     35  C   LIG    1       10.304  -2.628   6.208  0.00  0.00    +0.080 C 
BRANCH  35  36
ATOM     36  C   LIG    1       10.284  -1.580   5.094  0.00  0.00    +0.008 C 
BRANCH  36  37
ATOM     37  C   LIG    1        8.945  -0.841   5.114  0.00  0.00    +0.000 C 
BRANCH  37  38
ATOM     38  C   LIG    1        8.925   0.208   4.000  0.00  0.00    +0.000 C 
BRANCH  38  39
ATOM     39  C   LIG    1        7.586   0.947   4.019  0.00  0.00    +0.000 C 
BRANCH  39  40
ATOM     40  C   LIG    1        7.566   1.996   2.905  0.00  0.00    +0.000 C 
BRANCH  40  41
ATOM     41  C   LIG    1        6.226   2.735   2.924  0.00  0.00    +0.005 C 
BRANCH  41  42
ATOM     42  C   LIG    1        6.206   3.783   1.810  0.00  0.00    +0.035 C 
BRANCH  42  46
ATOM     43  C   LIG    1        2.468   5.849   1.863  0.00  0.00    +0.000 A 
ATOM     44  C   LIG    1        3.530   6.324   2.609  0.00  0.00    +0.000 A 
ATOM     45  C   LIG    1        4.740   5.655   2.592  0.00  0.00    +0.003 A 
ATOM     46  C   LIG    1        4.887   4.512   1.829  0.00  0.00    -0.047 A 
ATOM     47  C   LIG    1        3.824   4.036   1.084  0.00  0.00    +0.003 A 
ATOM     48  C   LIG    1        2.615   4.706   1.100  0.00  0.00    +0.000 A 
ENDBRANCH  42  46
ENDBRANCH  41  42
ENDBRANCH  40  41
ENDBRANCH  39  40
ENDBRANCH  38  39
ENDBRANCH  37  38
ENDBRANCH  36  37
ENDBRANCH  35  36
ENDBRANCH  33  35
ENDBRANCH   1  33
TORSDOF 17
