REMARK  Name = ZINC14517685
REMARK                            x       y       z     vdW  Elec       q    Type
REMARK                         _______ _______ _______ _____ _____    ______ ____
ROOT
ATOM      1  N   LIG    1        2.414   3.848  -0.001  0.00  0.00    -0.280 N 
ATOM      2  H   LIG    1        2.460   4.750   0.351  0.00  0.00    +0.155 HD
ATOM      3  C   LIG    1        3.519   3.265  -0.508  0.00  0.00    +0.250 C 
ATOM      4  O   LIG    1        3.442   2.175  -1.040  0.00  0.00    -0.270 OA
ENDROOT
BRANCH   1  13
ATOM      5  C   LIG    1       -0.003   1.067   0.036  0.00  0.00    +0.003 A 
ATOM      6  C   LIG    1       -1.199   1.718   0.048  0.00  0.00    +0.010 A 
ATOM      7  C   LIG    1       -1.233   3.122   0.053  0.00  0.00    +0.002 A 
ATOM      8  C   LIG    1       -2.453   3.824   0.070  0.00  0.00    +0.011 A 
ATOM      9  C   LIG    1       -2.411   5.189   0.069  0.00  0.00    +0.020 A 
ATOM     10  C   LIG    1       -1.183   5.847   0.050  0.00  0.00    +0.111 A 
ATOM     11  N   LIG    1       -0.049   5.189   0.035  0.00  0.00    -0.253 NA
ATOM     12  C   LIG    1       -0.020   3.854   0.035  0.00  0.00    +0.092 A 
ATOM     13  C   LIG    1        1.204   3.151   0.017  0.00  0.00    +0.060 A 
ATOM     14  C   LIG    1        1.196   1.774   0.018  0.00  0.00    +0.025 A 
ENDBRANCH   1  13
BRANCH   3  15
ATOM     15  C   LIG    1        4.824   3.953  -0.417  0.00  0.00    +0.055 A 
ATOM     16  C   LIG    1        5.980   3.358  -0.941  0.00  0.00    +0.017 A 
ATOM     17  C   LIG    1        7.176   4.042  -0.831  0.00  0.00    +0.041 A 
ATOM     18  C   LIG    1        7.194   5.282  -0.213  0.00  0.00    +0.129 A 
ATOM     19 CL   LIG    1        8.694   6.145  -0.072  0.00  0.00    -0.062 Cl
ATOM     20  N   LIG    1        6.088   5.818   0.271  0.00  0.00    -0.243 NA
ATOM     21  C   LIG    1        4.925   5.207   0.186  0.00  0.00    +0.125 A 
ENDBRANCH   3  15
TORSDOF 2
