REMARK  Name = ZINC40526006
REMARK                            x       y       z     vdW  Elec       q    Type
REMARK                         _______ _______ _______ _____ _____    ______ ____
ROOT
ATOM      1  N   LIG    1       -4.220  -2.537   2.198  0.00  0.00    -0.296 N 
ATOM      2  H   LIG    1       -4.290  -2.028   3.021  0.00  0.00    +0.151 HD
ATOM      3  C   LIG    1       -4.883  -3.703   2.068  0.00  0.00    +0.304 C 
ATOM      4  N   LIG    1       -5.642  -4.163   3.082  0.00  0.00    -0.269 N 
ATOM      5  H   LIG    1       -5.659  -3.690   3.928  0.00  0.00    +0.156 HD
ATOM      6  O   LIG    1       -4.795  -4.340   1.036  0.00  0.00    -0.253 OA
ENDROOT
BRANCH   1  12
ATOM      7  C   LIG    1       -0.002   1.490   0.016  0.00  0.00    +0.109 C 
ATOM      8  C   LIG    1        0.011  -0.017   0.001  0.00  0.00    +0.212 C 
ATOM      9  N   LIG    1       -1.150  -0.701   0.009  0.00  0.00    -0.302 N 
ATOM     10  C   LIG    1       -2.437   0.008   0.027  0.00  0.00    +0.109 C 
ATOM     11  C   LIG    1       -3.272  -0.515   1.200  0.00  0.00    +0.041 C 
ATOM     12  C   LIG    1       -3.394  -2.037   1.096  0.00  0.00    +0.077 C 
ATOM     13  C   LIG    1       -2.003  -2.669   1.174  0.00  0.00    +0.041 C 
ATOM     14  C   LIG    1       -1.153  -2.170  -0.005  0.00  0.00    +0.109 C 
ATOM     15  O   LIG    1        1.067  -0.614  -0.019  0.00  0.00    -0.276 OA
ENDBRANCH   1  12
BRANCH   4  16
ATOM     16  C   LIG    1       -6.407  -5.323   2.913  0.00  0.00    +0.035 A 
ATOM     17  C   LIG    1       -7.649  -5.433   3.523  0.00  0.00    +0.024 A 
ATOM     18  C   LIG    1       -8.401  -6.579   3.354  0.00  0.00    +0.014 A 
ATOM     19  C   LIG    1       -7.918  -7.617   2.579  0.00  0.00    +0.055 A 
ATOM     20  C   LIG    1       -6.680  -7.511   1.970  0.00  0.00    +0.014 A 
ATOM     21  C   LIG    1       -5.926  -6.365   2.131  0.00  0.00    +0.024 A 
BRANCH  19  22
ATOM     22  C   LIG    1       -8.741  -8.866   2.396  0.00  0.00    +0.417 C 
ATOM     23  F   LIG    1       -9.531  -9.074   3.532  0.00  0.00    -0.166 F 
ATOM     24  F   LIG    1       -7.891  -9.962   2.213  0.00  0.00    -0.166 F 
ATOM     25  F   LIG    1       -9.565  -8.722   1.275  0.00  0.00    -0.166 F 
ENDBRANCH  19  22
ENDBRANCH   4  16
TORSDOF 3
