REMARK  Name = ZINC18046173
REMARK                            x       y       z     vdW  Elec       q    Type
REMARK                         _______ _______ _______ _____ _____    ______ ____
ROOT
ATOM      1  C   LIG    1       -0.021  -2.769  -7.102  0.00  0.00    +0.086 A 
ATOM      2  C   LIG    1       -0.013  -4.166  -7.114  0.00  0.00    +0.031 A 
ATOM      3  C   LIG    1       -0.015  -4.842  -8.316  0.00  0.00    +0.031 A 
ATOM      4  C   LIG    1       -0.025  -4.141  -9.508  0.00  0.00    +0.108 A 
ATOM      5  C   LIG    1       -0.032  -2.757  -9.505  0.00  0.00    +0.031 A 
ATOM      6  C   LIG    1       -0.037  -2.067  -8.310  0.00  0.00    +0.031 A 
ENDROOT
BRANCH   4   7
ATOM      7  S   LIG    1       -0.026  -5.013 -11.039  0.00  0.00    +0.086 S 
ATOM      8  O   LIG    1        0.533  -6.293 -10.777  0.00  0.00    -0.151 OA
ATOM      9  O   LIG    1        0.515  -4.129 -12.011  0.00  0.00    -0.151 OA
BRANCH   7  10
ATOM     10  N   LIG    1       -1.609  -5.265 -11.457  0.00  0.00    -0.050 NA
ATOM     11  H   LIG    1       -1.944  -6.168 -11.569  0.00  0.00    +0.191 HD
BRANCH  10  12
ATOM     12  N   LIG    1       -2.465  -4.172 -11.650  0.00  0.00    -0.182 N 
ATOM     13  H   LIG    1       -2.572  -3.510 -10.949  0.00  0.00    +0.285 HD
BRANCH  12  14
ATOM     14  C   LIG    1       -3.152  -4.038 -12.833  0.00  0.00    +0.394 C 
ATOM     15  N   LIG    1       -3.007  -4.927 -13.775  0.00  0.00    -0.128 NA
ATOM     16  H   LIG    1       -3.492  -4.832 -14.610  0.00  0.00    +0.306 HD
BRANCH  14  17
ATOM     17  N   LIG    1       -3.991  -2.966 -13.023  0.00  0.00    -0.288 N 
ATOM     18  H   LIG    1       -4.476  -2.871 -13.858  0.00  0.00    +0.255 HD
ATOM     19  H   LIG    1       -4.099  -2.304 -12.322  0.00  0.00    +0.255 HD
ENDBRANCH  14  17
ENDBRANCH  12  14
ENDBRANCH  10  12
ENDBRANCH   7  10
ENDBRANCH   4   7
BRANCH   1  21
ATOM     20  N   LIG    1       -0.006  -2.742  -4.801  0.00  0.00    -0.149 NA
ATOM     21  N   LIG    1       -0.020  -2.091  -5.915  0.00  0.00    -0.149 NA
BRANCH  20  25
ATOM     22  C   LIG    1        0.000  -0.694  -1.208  0.00  0.00    +0.029 A 
ATOM     23  C   LIG    1        0.013  -2.086  -1.213  0.00  0.00    +0.025 A 
ATOM     24  C   LIG    1        0.011  -2.771  -2.407  0.00  0.00    +0.031 A 
ATOM     25  C   LIG    1       -0.004  -2.067  -3.616  0.00  0.00    +0.086 A 
ATOM     26  C   LIG    1       -0.017  -0.667  -3.606  0.00  0.00    +0.031 A 
ATOM     27  C   LIG    1       -0.021   0.011  -2.408  0.00  0.00    +0.025 A 
BRANCH  22  29
ATOM     28  C   LIG    1       -0.018   1.461   0.010  0.00  0.00    +0.129 C 
ATOM     29  N   LIG    1        0.002  -0.004   0.002  0.00  0.00    -0.336 N 
ATOM     30  C   LIG    1        0.024  -0.743   1.267  0.00  0.00    +0.129 C 
ENDBRANCH  22  29
ENDBRANCH  20  25
ENDBRANCH   1  21
TORSDOF 8
