REMARK  Name = ZINC26990904
REMARK                            x       y       z     vdW  Elec       q    Type
REMARK                         _______ _______ _______ _____ _____    ______ ____
ROOT
ATOM      1  C   LIG    1       -2.870   0.443   1.184  0.00  0.00    +0.250 C 
ATOM      2  N   LIG    1       -2.450   0.980   0.022  0.00  0.00    -0.284 N 
ATOM      3  O   LIG    1       -3.710  -0.435   1.180  0.00  0.00    -0.270 OA
ENDROOT
BRANCH   1   8
ATOM      4  C   LIG    1       -1.997   2.679   4.073  0.00  0.00    +0.001 A 
ATOM      5  C   LIG    1       -1.257   1.819   4.865  0.00  0.00    +0.002 A 
ATOM      6  C   LIG    1       -1.040   0.513   4.463  0.00  0.00    +0.033 A 
ATOM      7  C   LIG    1       -1.565   0.059   3.271  0.00  0.00    +0.134 A 
ATOM      8  C   LIG    1       -2.308   0.922   2.465  0.00  0.00    +0.067 A 
ATOM      9  C   LIG    1       -2.524   2.239   2.877  0.00  0.00    +0.015 A 
BRANCH   7  10
ATOM     10  N   LIG    1       -1.337  -1.341   2.846  0.00  0.00    +0.007 N 
ATOM     11  O   LIG    1       -0.615  -2.067   3.505  0.00  0.00    -0.130 OA
BRANCH  10  12
ATOM     12  O   LIG    1       -1.870  -1.765   1.836  0.00  0.00    -0.396 OA
ATOM     13  H   LIG    1       -2.424  -1.205   1.329  0.00  0.00    +0.329 HD
ENDBRANCH  10  12
ENDBRANCH   7  10
ENDBRANCH   1   8
BRANCH   2  14
ATOM     14  C   LIG    1       -3.091   0.594  -1.238  0.00  0.00    +0.077 C 
ATOM     15  C   LIG    1       -4.605   0.881  -1.169  0.00  0.00    +0.022 C 
ATOM     16  C   LIG    1       -5.251  -0.297  -1.939  0.00  0.00    +0.002 C 
ATOM     17  C   LIG    1       -4.369  -1.501  -1.524  0.00  0.00    +0.002 C 
ATOM     18  C   LIG    1       -2.941  -0.921  -1.463  0.00  0.00    +0.022 C 
ENDBRANCH   2  14
BRANCH   2  19
ATOM     19  C   LIG    1       -1.352   1.950   0.017  0.00  0.00    +0.228 C 
BRANCH  19  20
ATOM     20  C   LIG    1       -0.035   1.218  -0.013  0.00  0.00    +0.322 C 
ATOM     21  O   LIG    1       -0.015   0.010  -0.029  0.00  0.00    -0.249 OA
BRANCH  20  22
ATOM     22  O   LIG    1        1.116   1.908  -0.028  0.00  0.00    -0.480 OA
ATOM     23  H   LIG    1        1.101   2.845  -0.016  0.00  0.00    +0.295 HD
ENDBRANCH  20  22
ENDBRANCH  19  20
ENDBRANCH   2  19
TORSDOF 7
