REMARK  Name = ZINC16449901
REMARK                            x       y       z     vdW  Elec       q    Type
REMARK                         _______ _______ _______ _____ _____    ______ ____
ROOT
ATOM      1  C   LIG    1        2.548   5.696  -0.181  0.00  0.00    +0.128 A 
ATOM      2  C   LIG    1        1.913   6.925  -0.256  0.00  0.00    +0.047 A 
ATOM      3  C   LIG    1        0.533   6.996  -0.235  0.00  0.00    +0.019 A 
ATOM      4  C   LIG    1       -0.227   5.841  -0.139  0.00  0.00    +0.019 A 
ATOM      5 BR   LIG    1       -2.115   5.957  -0.111  0.00  0.00    -0.050 Br
ATOM      6  C   LIG    1        0.386   4.608  -0.069  0.00  0.00    +0.026 A 
ATOM      7  C   LIG    1        1.783   4.523  -0.084  0.00  0.00    +0.019 A 
ENDROOT
BRANCH   7   8
ATOM      8  C   LIG    1        2.443   3.214  -0.004  0.00  0.00    +0.032 C 
ATOM      9  C   LIG    1        1.746   2.083  -0.284  0.00  0.00    +0.077 C 
ATOM     10  C   LIG    1        2.145   0.670  -0.132  0.00  0.00    +0.256 C 
ATOM     11  N   LIG    1        1.253  -0.239  -0.488  0.00  0.00    -0.270 N 
ATOM     12  H   LIG    1        1.475  -1.179  -0.404  0.00  0.00    +0.156 HD
ATOM     13  C   LIG    1        0.042   0.112  -0.966  0.00  0.00    +0.118 C 
ATOM     14  S   LIG    1       -1.236  -0.907  -1.476  0.00  0.00    -0.027 S 
ATOM     15  O   LIG    1        3.239   0.357   0.300  0.00  0.00    -0.269 OA
ATOM     16  S   LIG    1        0.093   1.897  -0.939  0.00  0.00    -0.061 S 
ENDBRANCH   7   8
BRANCH   1  17
ATOM     17  O   LIG    1        3.904   5.627  -0.201  0.00  0.00    -0.487 OA
BRANCH  17  18
ATOM     18  C   LIG    1        4.615   6.862  -0.302  0.00  0.00    +0.266 C 
BRANCH  18  24
ATOM     19  C   LIG    1        7.920   5.038  -0.233  0.00  0.00    +0.000 A 
ATOM     20  C   LIG    1        8.817   6.086  -0.324  0.00  0.00    +0.001 A 
ATOM     21  C   LIG    1        8.354   7.386  -0.408  0.00  0.00    +0.020 A 
ATOM     22  C   LIG    1        6.994   7.638  -0.401  0.00  0.00    +0.047 A 
ATOM     23 CL   LIG    1        6.412   9.270  -0.506  0.00  0.00    -0.083 Cl
ATOM     24  C   LIG    1        6.097   6.588  -0.310  0.00  0.00    +0.008 A 
ATOM     25  C   LIG    1        6.561   5.289  -0.221  0.00  0.00    +0.008 A 
ENDBRANCH  18  24
ENDBRANCH  17  18
ENDBRANCH   1  17
TORSDOF 4
