REMARK  Name = ZINC13796725
REMARK                            x       y       z     vdW  Elec       q    Type
REMARK                         _______ _______ _______ _____ _____    ______ ____
ROOT
ATOM      1  C   UNK A  0        7.241   6.939  -0.215  0.00  0.00    +0.045 A 
ATOM      2  C   UNK A  0        7.113   5.552  -0.107  0.00  0.00    +0.015 A 
ATOM      3  C   UNK A  0        5.864   4.976  -0.077  0.00  0.00    +0.024 A 
ATOM      4  C   UNK A  0        4.720   5.768  -0.155  0.00  0.00    +0.028 A 
ATOM      5  C   UNK A  0        4.830   7.148  -0.268  0.00  0.00    +0.032 A 
ATOM      6  C   UNK A  0        6.086   7.743  -0.293  0.00  0.00    -0.003 A 
ENDROOT
BRANCH   6   7
ATOM      7  C   UNK A  0        6.210   9.213  -0.408  0.00  0.00    -0.009 A 
ATOM      8  C   UNK A  0        5.752  10.035   0.607  0.00  0.00    +0.009 A 
ATOM      9  C   UNK A  0        5.866  11.417   0.507  0.00  0.00    +0.001 A 
ATOM     10  C   UNK A  0        6.429  12.000  -0.589  0.00  0.00    +0.008 A 
ATOM     11  C   UNK A  0        6.907  11.203  -1.643  0.00  0.00    -0.017 A 
ATOM     12  C   UNK A  0        7.491  11.781  -2.784  0.00  0.00    +0.008 A 
ATOM     13  C   UNK A  0        7.943  10.980  -3.788  0.00  0.00    +0.001 A 
ATOM     14  C   UNK A  0        7.837   9.593  -3.701  0.00  0.00    +0.001 A 
ATOM     15  C   UNK A  0        7.277   9.000  -2.610  0.00  0.00    +0.009 A 
ATOM     16  C   UNK A  0        6.804   9.793  -1.555  0.00  0.00    -0.010 A 
ENDBRANCH   6   7
BRANCH   1  19
ATOM     17  N   LEU A  1        9.679   6.786  -0.171  0.00  0.00    -0.298 N 
ATOM     18  H   LEU A  1        9.592   5.823  -0.096  0.00  0.00    +0.150 HD
ATOM     19  C   UNK A  0        8.577   7.558  -0.247  0.00  0.00    +0.245 C 
ATOM     20  O   UNK A  0        8.686   8.765  -0.341  0.00  0.00    -0.270 OA
BRANCH  17  21
ATOM     21  CA  LEU A  1       11.008   7.402  -0.202  0.00  0.00    +0.182 C 
BRANCH  21  22
ATOM     22  C   LEU A  1       11.430   7.613  -1.633  0.00  0.00    +0.325 C 
ATOM     23  O   LEU A  1       10.696   7.283  -2.535  0.00  0.00    -0.249 OA
BRANCH  22  24
ATOM     24  OXT LEU A  1       12.622   8.167  -1.907  0.00  0.00    -0.479 OA
ATOM     25  HXT LEU A  1       13.191   8.423  -1.208  0.00  0.00    +0.295 HD
ENDBRANCH  22  24
ENDBRANCH  21  22
BRANCH  21  26
ATOM     26  CB  LEU A  1       12.013   6.482   0.495  0.00  0.00    +0.036 C 
BRANCH  26  28
ATOM     27  CD1 LEU A  1       12.582   5.352   2.650  0.00  0.00    +0.007 C 
ATOM     28  CG  LEU A  1       11.655   6.367   1.978  0.00  0.00    -0.015 C 
ATOM     29  CD2 LEU A  1       11.820   7.732   2.650  0.00  0.00    +0.007 C 
ENDBRANCH  26  28
ENDBRANCH  21  26
ENDBRANCH  17  21
ENDBRANCH   1  19
BRANCH   4  30
ATOM     30  N   UNK A  0        3.462   5.174  -0.124  0.00  0.00    -0.345 N 
ATOM     31  H   UNK A  0        2.665   5.724  -0.177  0.00  0.00    +0.146 HD
BRANCH  30  32
ATOM     32  C   UNK A  0        3.342   3.719  -0.010  0.00  0.00    +0.086 C 
BRANCH  32  33
ATOM     33  C   UNK A  0        1.863   3.328   0.002  0.00  0.00    -0.048 C 
BRANCH  33  34
ATOM     34  N   UNK A  0        1.206   3.904  -1.185  0.00  0.00    +0.382 N 
ATOM     35  H   UNK A  0        1.330   4.923  -1.178  0.00  0.00    -0.090 HD
ATOM     36  H   UNK A  0        0.210   3.690  -1.171  0.00  0.00    -0.090 HD
ATOM     37  H   UNK A  0        1.623   3.524  -2.033  0.00  0.00    -0.090 HD
ENDBRANCH  33  34
BRANCH  33  38
ATOM     38  C   UNK A  0        1.738   1.804  -0.005  0.00  0.00    +0.051 C 
BRANCH  38  39
ATOM     39  S   UNK A  0       -0.016   1.341   0.009  0.00  0.00    -0.180 S 
ATOM     40  H   UNK A  0        0.002  -0.004   0.002  0.00  0.00    +0.102 HD
ENDBRANCH  38  39
ENDBRANCH  33  38
ENDBRANCH  32  33
ENDBRANCH  30  32
ENDBRANCH   4  30
TORSDOF 13
