REMARK  Name = ZINC27721572
REMARK                            x       y       z     vdW  Elec       q    Type
REMARK                         _______ _______ _______ _____ _____    ______ ____
ROOT
ATOM      1  N   LIG    1       -0.065   1.106   1.339  0.00  0.00    -0.260 N 
ATOM      2  C   LIG    1       -1.398   0.937   1.446  0.00  0.00    +0.224 C 
ATOM      3  O   LIG    1       -2.092   1.840   1.863  0.00  0.00    -0.275 OA
ENDROOT
BRANCH   1   8
ATOM      4  C   LIG    1        2.354   5.863   3.262  0.00  0.00    +0.044 C 
ATOM      5  C   LIG    1        1.712   4.600   2.751  0.00  0.00    -0.050 A 
ATOM      6  C   LIG    1        2.459   3.691   2.024  0.00  0.00    +0.005 A 
ATOM      7  C   LIG    1        1.873   2.532   1.555  0.00  0.00    +0.024 A 
ATOM      8  C   LIG    1        0.532   2.279   1.813  0.00  0.00    +0.037 A 
ATOM      9  C   LIG    1       -0.217   3.196   2.539  0.00  0.00    +0.024 A 
ATOM     10  C   LIG    1        0.376   4.351   3.010  0.00  0.00    +0.005 A 
ENDBRANCH   1   8
BRANCH   2  11
ATOM     11  C   LIG    1       -2.025  -0.375   1.050  0.00  0.00    +0.082 C 
ATOM     12  C   LIG    1       -2.475  -0.304  -0.411  0.00  0.00    +0.018 C 
BRANCH  11  13
ATOM     13  C   LIG    1       -3.236  -0.652   1.943  0.00  0.00    +0.078 C 
BRANCH  13  14
ATOM     14  S   LIG    1       -3.902  -2.296   1.566  0.00  0.00    -0.178 S 
ATOM     15  H   LIG    1       -4.780  -2.672   2.112  0.00  0.00    +0.102 HD
ENDBRANCH  13  14
ENDBRANCH  11  13
ENDBRANCH   2  11
BRANCH   1  16
ATOM     16  C   LIG    1        0.759   0.062   0.724  0.00  0.00    +0.233 C 
BRANCH  16  17
ATOM     17  C   LIG    1        0.853   0.305  -0.760  0.00  0.00    +0.323 C 
ATOM     18  O   LIG    1        0.290   1.254  -1.254  0.00  0.00    -0.249 OA
BRANCH  17  19
ATOM     19  O   LIG    1        1.562  -0.531  -1.534  0.00  0.00    -0.480 OA
ATOM     20  H   LIG    1        1.999  -1.267  -1.151  0.00  0.00    +0.295 HD
ENDBRANCH  17  19
ENDBRANCH  16  17
ENDBRANCH   1  16
TORSDOF 7
