REMARK  Name = ZINC64479838
REMARK                            x       y       z     vdW  Elec       q    Type
REMARK                         _______ _______ _______ _____ _____    ______ ____
ROOT
ATOM      1  C   LIG    1        0.842  -2.014   1.121  0.00  0.00    +0.022 C 
ENDROOT
BRANCH   1   2
ATOM      2  C   LIG    1        1.571  -2.513   2.342  0.00  0.00    -0.014 A 
ATOM      3  C   LIG    1        2.937  -2.719   2.296  0.00  0.00    +0.006 A 
ATOM      4  C   LIG    1        3.606  -3.177   3.416  0.00  0.00    +0.000 A 
ATOM      5  C   LIG    1        2.910  -3.429   4.583  0.00  0.00    +0.003 A 
ATOM      6  C   LIG    1        1.544  -3.223   4.632  0.00  0.00    +0.038 A 
ATOM      7  C   LIG    1        0.874  -2.760   3.513  0.00  0.00    +0.126 A 
ATOM      8  F   LIG    1       -0.460  -2.553   3.561  0.00  0.00    -0.205 F 
ENDBRANCH   1   2
BRANCH   1   9
ATOM      9  C   LIG    1        0.713  -0.491   1.192  0.00  0.00    -0.051 C 
BRANCH   9  11
ATOM     10  C   LIG    1       -0.018   1.465   0.010  0.00  0.00    -0.071 C 
ATOM     11  N   LIG    1        0.002  -0.004   0.002  0.00  0.00    +0.384 N 
ATOM     12  H   LIG    1        0.474  -0.330  -0.828  0.00  0.00    -0.057 HD
BRANCH  11  13
ATOM     13  N   LIG    1       -1.362  -0.507   0.012  0.00  0.00    -0.379 NA
ATOM     14  H   LIG    1       -1.856  -0.195   0.835  0.00  0.00    +0.099 HD
ATOM     15  H   LIG    1       -1.377  -1.514  -0.058  0.00  0.00    +0.099 HD
ENDBRANCH  11  13
ENDBRANCH   9  11
ENDBRANCH   1   9
TORSDOF 4
