REMARK  Name = ZINC27428713
REMARK                            x       y       z     vdW  Elec       q    Type
REMARK                         _______ _______ _______ _____ _____    ______ ____
ROOT
ATOM      1  C   LIG    1       -1.871  -0.707   1.322  0.00  0.00    +0.272 C 
ATOM      2  C   LIG    1       -3.200  -1.461   1.219  0.00  0.00    +0.144 C 
ATOM      3  N   LIG    1       -4.171  -0.635   0.486  0.00  0.00    -0.282 NA
ATOM      4  C   LIG    1       -4.374   0.654   1.162  0.00  0.00    +0.113 C 
ATOM      5  C   LIG    1       -3.033   1.387   1.265  0.00  0.00    +0.178 C 
ATOM      6  O   LIG    1       -2.093   0.557   1.954  0.00  0.00    -0.348 OA
ENDROOT
BRANCH   2   7
ATOM      7  C   LIG    1       -2.986  -2.759   0.485  0.00  0.00    -0.025 A 
ATOM      8  C   LIG    1       -2.909  -2.768  -0.895  0.00  0.00    +0.008 A 
ATOM      9  C   LIG    1       -2.712  -3.958  -1.570  0.00  0.00    +0.038 A 
ATOM     10  C   LIG    1       -2.593  -5.142  -0.863  0.00  0.00    +0.123 A 
ATOM     11  F   LIG    1       -2.401  -6.306  -1.521  0.00  0.00    -0.205 F 
ATOM     12  C   LIG    1       -2.671  -5.133   0.520  0.00  0.00    +0.038 A 
ATOM     13  C   LIG    1       -2.862  -3.941   1.192  0.00  0.00    +0.008 A 
ENDBRANCH   2   7
BRANCH   1  14
ATOM     14  O   LIG    1       -1.339  -0.499   0.012  0.00  0.00    -0.342 OA
BRANCH  14  16
ATOM     15  C   LIG    1       -0.019   1.526   0.010  0.00  0.00    +0.043 C 
ATOM     16  C   LIG    1        0.002  -0.004   0.002  0.00  0.00    +0.148 C 
BRANCH  16  17
ATOM     17  C   LIG    1        0.707  -0.490  -1.238  0.00  0.00    -0.018 A 
ATOM     18  C   LIG    1        0.038  -0.522  -2.447  0.00  0.00    +0.018 A 
ATOM     19  C   LIG    1        0.685  -0.967  -3.584  0.00  0.00    +0.056 A 
ATOM     20  C   LIG    1        2.002  -1.381  -3.513  0.00  0.00    +0.024 A 
ATOM     21  C   LIG    1        2.672  -1.349  -2.304  0.00  0.00    +0.056 A 
ATOM     22  C   LIG    1        2.026  -0.899  -1.167  0.00  0.00    +0.018 A 
BRANCH  19  23
ATOM     23  C   LIG    1       -0.046  -1.003  -4.902  0.00  0.00    +0.417 C 
ATOM     24  F   LIG    1       -1.409  -1.219  -4.673  0.00  0.00    -0.166 F 
ATOM     25  F   LIG    1        0.465  -2.039  -5.691  0.00  0.00    -0.166 F 
ATOM     26  F   LIG    1        0.128   0.217  -5.564  0.00  0.00    -0.166 F 
ENDBRANCH  19  23
BRANCH  21  27
ATOM     27  C   LIG    1        4.107  -1.800  -2.226  0.00  0.00    +0.417 C 
ATOM     28  F   LIG    1        4.211  -2.874  -1.335  0.00  0.00    -0.166 F 
ATOM     29  F   LIG    1        4.905  -0.743  -1.777  0.00  0.00    -0.166 F 
ATOM     30  F   LIG    1        4.539  -2.204  -3.494  0.00  0.00    -0.166 F 
ENDBRANCH  21  27
ENDBRANCH  16  17
ENDBRANCH  14  16
ENDBRANCH   1  14
BRANCH   3  31
ATOM     31  C   LIG    1       -5.444  -1.347   0.316  0.00  0.00    +0.161 C 
BRANCH  31  32
ATOM     32  C   LIG    1       -6.323  -0.583  -0.641  0.00  0.00    +0.145 A 
ATOM     33  N   LIG    1       -6.013   0.532  -1.222  0.00  0.00    -0.155 NA
ATOM     34  N   LIG    1       -7.090   0.916  -2.032  0.00  0.00    -0.227 N 
ATOM     35  H   LIG    1       -7.137   1.710  -2.587  0.00  0.00    +0.194 HD
ATOM     36  C   LIG    1       -8.051  -0.021  -1.893  0.00  0.00    +0.342 A 
ATOM     37  O   LIG    1       -9.138  -0.026  -2.442  0.00  0.00    -0.245 OA
ATOM     38  N   LIG    1       -7.586  -0.951  -1.035  0.00  0.00    -0.293 N 
ATOM     39  H   LIG    1       -8.062  -1.746  -0.746  0.00  0.00    +0.172 HD
ENDBRANCH  31  32
ENDBRANCH   3  31
TORSDOF 8
