REMARK  Name = ZINC35318976
REMARK                            x       y       z     vdW  Elec       q    Type
REMARK                         _______ _______ _______ _____ _____    ______ ____
ROOT
ATOM      1  C   LIG    1        3.660   2.167  -0.022  0.00  0.00    +0.202 A 
ATOM      2  N   LIG    1        4.892   1.628  -0.042  0.00  0.00    -0.190 NA
ATOM      3  C   LIG    1        5.791   2.570  -0.044  0.00  0.00    +0.248 A 
ATOM      4  O   LIG    1        5.165   3.754  -0.026  0.00  0.00    -0.336 OA
ATOM      5  N   LIG    1        3.774   3.472  -0.017  0.00  0.00    -0.056 NA
ENDROOT
BRANCH   1   8
ATOM      6  C   LIG    1       -0.017   1.379   0.010  0.00  0.00    +0.002 A 
ATOM      7  C   LIG    1        1.168   2.088   0.002  0.00  0.00    +0.012 A 
ATOM      8  C   LIG    1        2.384   1.409  -0.013  0.00  0.00    +0.024 A 
ATOM      9  C   LIG    1        2.398   0.015  -0.021  0.00  0.00    +0.031 A 
ATOM     10  C   LIG    1        1.208  -0.685  -0.013  0.00  0.00    +0.042 A 
ATOM     11 CL   LIG    1        1.223  -2.421  -0.023  0.00  0.00    -0.084 Cl
ATOM     12  C   LIG    1        0.002  -0.004   0.002  0.00  0.00    +0.020 A 
ENDBRANCH   1   8
BRANCH   3  13
ATOM     13  C   LIG    1        7.284   2.364  -0.064  0.00  0.00    +0.165 C 
ATOM     14  C   LIG    1        7.878   2.693   1.321  0.00  0.00    +0.034 C 
ATOM     15  C   LIG    1        9.215   3.397   0.968  0.00  0.00    +0.021 C 
ATOM     16  C   LIG    1        8.828   4.175  -0.315  0.00  0.00    +0.108 C 
ATOM     17  N   LIG    1        7.902   3.277  -1.036  0.00  0.00    -0.289 N 
ATOM     18  C   LIG    1        7.663   3.292  -2.363  0.00  0.00    +0.219 C 
ATOM     19  O   LIG    1        6.878   2.504  -2.846  0.00  0.00    -0.275 OA
BRANCH  18  20
ATOM     20  C   LIG    1        8.371   4.288  -3.245  0.00  0.00    +0.075 C 
ATOM     21  C   LIG    1        7.709   5.676  -3.261  0.00  0.00    +0.013 C 
ATOM     22  C   LIG    1        8.005   5.713  -4.770  0.00  0.00    +0.001 C 
ATOM     23  C   LIG    1        7.989   4.176  -4.730  0.00  0.00    +0.013 C 
ENDBRANCH  18  20
ENDBRANCH   3  13
TORSDOF 3
