REMARK  Name = ZINC27061988
REMARK                            x       y       z     vdW  Elec       q    Type
REMARK                         _______ _______ _______ _____ _____    ______ ____
ROOT
ATOM      1  C   LIG    1        1.247   1.699  -0.173  0.00  0.00    +0.239 C 
ATOM      2  N   LIG    1        0.086   1.019  -0.252  0.00  0.00    -0.236 N 
ATOM      3  H   LIG    1        0.093  -0.081  -0.269  0.00  0.00    +0.173 HD
ATOM      4  O   LIG    1        1.239   2.911  -0.149  0.00  0.00    -0.273 OA
ENDROOT
BRANCH   1  11
ATOM      5  C   LIG    1        4.753   0.288   2.550  0.00  0.00    +0.016 C 
ATOM      6  C   LIG    1        4.237  -0.211   1.199  0.00  0.00    -0.010 C 
ATOM      7  C   LIG    1        4.566  -1.694   1.020  0.00  0.00    +0.016 C 
ATOM      8  C   LIG    1        4.855   0.628   0.039  0.00  0.00    +0.000 C 
ATOM      9  C   LIG    1        4.438  -0.137  -1.255  0.00  0.00    +0.006 C 
ATOM     10  C   LIG    1        2.890   0.068  -1.354  0.00  0.00    +0.021 C 
ATOM     11  C   LIG    1        2.555   0.952  -0.114  0.00  0.00    +0.070 C 
ATOM     12  C   LIG    1        3.849   1.833  -0.001  0.00  0.00    +0.025 C 
ATOM     13  C   LIG    1        2.736   0.015   1.089  0.00  0.00    -0.056 C 
ATOM     14  C   LIG    1        1.799  -0.483   1.856  0.00  0.00    +0.009 C 
ENDBRANCH   1  11
BRANCH   2  15
ATOM     15  N   LIG    1       -1.130   1.713  -0.313  0.00  0.00    -0.264 N 
ATOM     16  H   LIG    1       -1.137   2.812  -0.292  0.00  0.00    +0.170 HD
BRANCH  15  17
ATOM     17  C   LIG    1       -2.333   1.008  -0.401  0.00  0.00    +0.044 A 
ATOM     18  C   LIG    1       -2.325  -0.381  -0.434  0.00  0.00    +0.024 A 
ATOM     19  C   LIG    1       -3.517  -1.074  -0.515  0.00  0.00    +0.002 A 
ATOM     20  C   LIG    1       -4.715  -0.388  -0.575  0.00  0.00    +0.000 A 
ATOM     21  C   LIG    1       -4.726   0.995  -0.549  0.00  0.00    +0.002 A 
ATOM     22  C   LIG    1       -3.539   1.695  -0.462  0.00  0.00    +0.024 A 
ENDBRANCH  15  17
ENDBRANCH   2  15
TORSDOF 3
