REMARK  Name = ZINC16990709
REMARK                            x       y       z     vdW  Elec       q    Type
REMARK                         _______ _______ _______ _____ _____    ______ ____
ROOT
ATOM      1  C   LIG    1        1.024  -0.351   0.898  0.00  0.00    +0.014 A 
ATOM      2  C   LIG    1        2.214   0.351   0.881  0.00  0.00    +0.024 A 
ATOM      3  C   LIG    1        2.381   1.410  -0.002  0.00  0.00    +0.033 A 
ATOM      4  C   LIG    1        1.350   1.759  -0.865  0.00  0.00    +0.024 A 
ATOM      5  C   LIG    1        0.164   1.053  -0.843  0.00  0.00    +0.014 A 
ATOM      6  C   LIG    1        0.001  -0.001   0.037  0.00  0.00    +0.055 A 
ENDROOT
BRANCH   6   7
ATOM      7  C   LIG    1       -1.295  -0.770   0.058  0.00  0.00    +0.417 C 
ATOM      8  F   LIG    1       -1.047  -2.092   0.441  0.00  0.00    -0.166 F 
ATOM      9  F   LIG    1       -1.868  -0.754  -1.218  0.00  0.00    -0.166 F 
ATOM     10  F   LIG    1       -2.175  -0.177   0.971  0.00  0.00    -0.166 F 
ENDBRANCH   6   7
BRANCH   3  11
ATOM     11  N   LIG    1        3.584   2.123  -0.021  0.00  0.00    -0.297 N 
ATOM     12  H   LIG    1        3.573   3.090  -0.097  0.00  0.00    +0.154 HD
BRANCH  11  13
ATOM     13  C   LIG    1        4.758   1.467   0.066  0.00  0.00    +0.135 C 
ATOM     14  S   LIG    1        4.785  -0.245   0.057  0.00  0.00    -0.019 S 
BRANCH  13  15
ATOM     15  N   LIG    1        5.911   2.159   0.160  0.00  0.00    -0.324 N 
ATOM     16  H   LIG    1        5.896   3.128   0.164  0.00  0.00    +0.148 HD
BRANCH  15  17
ATOM     17  C   LIG    1        7.187   1.446   0.254  0.00  0.00    +0.131 C 
BRANCH  17  18
ATOM     18  C   LIG    1        8.331   2.457   0.349  0.00  0.00    +0.174 C 
BRANCH  18  19
ATOM     19  O   LIG    1        8.217   3.192   1.570  0.00  0.00    -0.393 OA
ATOM     20  H   LIG    1        8.911   3.853   1.697  0.00  0.00    +0.209 HD
ENDBRANCH  18  19
ENDBRANCH  17  18
ENDBRANCH  15  17
ENDBRANCH  13  15
ENDBRANCH  11  13
ENDBRANCH   3  11
TORSDOF 7
