REMARK  Name = ZINC13779357
REMARK                            x       y       z     vdW  Elec       q    Type
REMARK                         _______ _______ _______ _____ _____    ______ ____
ROOT
ATOM      1  C   LIG    1        0.125   0.169   1.026  0.00  0.00    +0.162 C 
ATOM      2  C   LIG    1       -0.487   0.976  -0.096  0.00  0.00    +0.234 C 
ATOM      3  N   LIG    1       -0.287   0.833  -1.403  0.00  0.00    -0.308 N 
ATOM      4  H   LIG    1       -0.694   1.449  -2.032  0.00  0.00    +0.149 HD
ATOM      5  CA  LIG    1        0.548  -0.259  -1.881  0.00  0.00    +0.103 C 
ATOM      6  C   LIG    1       -0.318  -1.470  -2.240  0.00  0.00    +0.061 C 
ATOM      7  C   LIG    1        0.438  -2.672  -1.749  0.00  0.00    -0.019 A 
ATOM      8  C   LIG    1        0.847  -3.750  -2.418  0.00  0.00    +0.087 A 
ATOM      9  N   LIG    1        1.580  -4.557  -1.583  0.00  0.00    -0.360 N 
ATOM     10  C   LIG    1        1.667  -3.982  -0.335  0.00  0.00    +0.053 A 
ATOM     11  C   LIG    1        2.383  -4.308   0.821  0.00  0.00    -0.010 A 
ATOM     12  C   LIG    1        3.246  -5.542   0.783  0.00  0.00    +0.013 C 
ATOM     13  C   LIG    1        2.364  -6.779   0.967  0.00  0.00    +0.020 C 
ATOM     14  C   LIG    1        4.295  -5.503   1.891  0.00  0.00    +0.016 C 
ATOM     15  C   LIG    1        3.589  -5.208   3.219  0.00  0.00    +0.013 C 
ATOM     16  C   LIG    1        3.083  -3.767   3.186  0.00  0.00    -0.004 C 
ATOM     17  C   LIG    1        4.278  -2.812   3.214  0.00  0.00    +0.016 C 
ATOM     18  C   LIG    1        2.276  -3.516   1.939  0.00  0.00    -0.033 A 
ATOM     19  C   LIG    1        1.398  -2.430   1.950  0.00  0.00    +0.028 A 
ATOM     20  C   LIG    1        0.646  -2.129   0.836  0.00  0.00    +0.040 A 
ATOM     21  H   LIG    1        1.978  -5.405  -1.835  0.00  0.00    +0.165 HD
ATOM     22  C   LIG    1        0.880  -2.818  -0.360  0.00  0.00    +0.024 A 
ATOM     23  O   LIG    1       -1.250   1.859   0.235  0.00  0.00    -0.274 OA
ATOM     24  N   LIG    1       -0.445  -1.218   0.977  0.00  0.00    -0.321 N 
ATOM     25  C   LIG    1       -1.222  -1.511   2.189  0.00  0.00    +0.130 C 
ENDROOT
BRANCH   1  27
ATOM     26  C   LIG    1        1.999  -1.018  -0.123  0.00  0.00    +0.009 C 
ATOM     27  C   LIG    1        1.643   0.109   0.849  0.00  0.00    +0.012 C 
ATOM     28  C   LIG    1        2.145   1.442   0.289  0.00  0.00    +0.009 C 
ENDBRANCH   1  27
BRANCH  16  29
ATOM     29  C   LIG    1        2.207  -3.513   4.414  0.00  0.00    -0.007 C 
ATOM     30  C   LIG    1        2.904  -4.060   5.661  0.00  0.00    +0.008 C 
ATOM     31  C   LIG    1        0.860  -4.215   4.234  0.00  0.00    +0.008 C 
ENDBRANCH  16  29
BRANCH  12  32
ATOM     32  C   LIG    1        3.939  -5.621  -0.553  0.00  0.00    -0.023 C 
ATOM     33  C   LIG    1        4.354  -6.778  -1.008  0.00  0.00    +0.005 C 
ENDBRANCH  12  32
BRANCH   5  34
ATOM     34  C   LIG    1        1.317   0.196  -3.122  0.00  0.00    +0.178 C 
BRANCH  34  35
ATOM     35  O   LIG    1        2.225   1.240  -2.763  0.00  0.00    -0.393 OA
ATOM     36  H   LIG    1        2.748   1.578  -3.503  0.00  0.00    +0.209 HD
ENDBRANCH  34  35
ENDBRANCH   5  34
TORSDOF 5
