REMARK  Name = ZINC45373881
REMARK                            x       y       z     vdW  Elec       q    Type
REMARK                         _______ _______ _______ _____ _____    ______ ____
ROOT
ATOM      1  C   LIG    1        0.100   1.257   0.092  0.00  0.00    +0.001 A 
ATOM      2  C   LIG    1        1.293   1.957   0.065  0.00  0.00    +0.005 A 
ATOM      3  C   LIG    1        2.497   1.291   0.211  0.00  0.00    -0.030 A 
ATOM      4  C   LIG    1        2.515  -0.077   0.387  0.00  0.00    +0.018 A 
ATOM      5  C   LIG    1        1.315  -0.790   0.416  0.00  0.00    +0.037 A 
ATOM      6  C   LIG    1        0.104  -0.112   0.267  0.00  0.00    +0.013 A 
ENDROOT
BRANCH   5   7
ATOM      7  C   LIG    1        1.327  -2.256   0.603  0.00  0.00    +0.248 C 
ATOM      8  N   LIG    1        0.167  -2.941   0.631  0.00  0.00    -0.281 N 
ATOM      9  H   LIG    1       -0.678  -2.466   0.597  0.00  0.00    +0.155 HD
ATOM     10  O   LIG    1        2.383  -2.844   0.731  0.00  0.00    -0.270 OA
BRANCH   8  11
ATOM     11  C   LIG    1        0.180  -4.337   0.709  0.00  0.00    +0.034 A 
ATOM     12  C   LIG    1        1.158  -4.984   1.454  0.00  0.00    +0.023 A 
ATOM     13  C   LIG    1        1.166  -6.361   1.524  0.00  0.00    +0.006 A 
ATOM     14  C   LIG    1        0.202  -7.105   0.857  0.00  0.00    -0.042 A 
ATOM     15  C   LIG    1       -0.772  -6.466   0.120  0.00  0.00    -0.029 A 
ATOM     16  C   LIG    1       -1.845  -7.230  -0.611  0.00  0.00    +0.116 C 
ATOM     17  N   LIG    1       -1.457  -8.635  -0.768  0.00  0.00    -0.312 NA
ATOM     18  H   LIG    1       -2.198  -9.169  -1.198  0.00  0.00    +0.122 HD
ATOM     19  C   LIG    1       -1.082  -9.209   0.534  0.00  0.00    +0.086 C 
ATOM     20  C   LIG    1        0.257  -8.607   0.961  0.00  0.00    +0.050 C 
ATOM     21  C   LIG    1       -0.785  -5.081   0.048  0.00  0.00    +0.028 A 
ENDBRANCH   8  11
ENDBRANCH   5   7
BRANCH   3  22
ATOM     22  C   LIG    1        3.792   2.062   0.179  0.00  0.00    +0.141 C 
BRANCH  22  23
ATOM     23  N   LIG    1        4.141   2.487   1.537  0.00  0.00    -0.295 N 
ATOM     24  H   LIG    1        3.562   2.257   2.281  0.00  0.00    +0.151 HD
ATOM     25  C   LIG    1        5.266   3.196   1.753  0.00  0.00    +0.304 C 
ATOM     26  N   LIG    1        5.588   3.586   3.002  0.00  0.00    -0.269 N 
ATOM     27  H   LIG    1        5.050   3.295   3.755  0.00  0.00    +0.156 HD
ATOM     28  O   LIG    1        5.992   3.483   0.821  0.00  0.00    -0.252 OA
BRANCH  26  29
ATOM     29  C   LIG    1        6.693   4.410   3.213  0.00  0.00    +0.035 A 
ATOM     30  C   LIG    1        7.037   5.366   2.262  0.00  0.00    +0.024 A 
ATOM     31  C   LIG    1        8.128   6.180   2.467  0.00  0.00    +0.015 A 
ATOM     32  C   LIG    1        8.890   6.046   3.631  0.00  0.00    +0.037 A 
ATOM     33  C   LIG    1        8.541   5.085   4.584  0.00  0.00    +0.015 A 
ATOM     34  C   LIG    1        7.446   4.277   4.375  0.00  0.00    +0.024 A 
BRANCH  32  35
ATOM     35  C   LIG    1       10.060   6.918   3.853  0.00  0.00    +0.242 C 
ATOM     36  N   LIG    1       10.793   6.787   4.977  0.00  0.00    -0.325 N 
ATOM     37  H   LIG    1       11.563   7.360   5.123  0.00  0.00    +0.145 HD
ATOM     38  H   LIG    1       10.552   6.121   5.639  0.00  0.00    +0.145 HD
ATOM     39  O   LIG    1       10.363   7.753   3.023  0.00  0.00    -0.270 OA
ENDBRANCH  32  35
ENDBRANCH  26  29
ENDBRANCH  22  23
ENDBRANCH   3  22
TORSDOF 6
