REMARK  Name = ZINC19364230
REMARK                            x       y       z     vdW  Elec       q    Type
REMARK                         _______ _______ _______ _____ _____    ______ ____
ROOT
ATOM      1  N   LIG    1        3.583  -1.515   1.205  0.00  0.00    +0.389 N 
ATOM      2  H   LIG    1        2.756  -2.020   0.924  0.00  0.00    -0.080 HD
ATOM      3  C   LIG    1        4.768  -2.351   0.973  0.00  0.00    -0.062 C 
ATOM      4  C   LIG    1        4.644  -3.646   1.779  0.00  0.00    +0.066 C 
ATOM      5  N   LIG    1        4.524  -3.322   3.207  0.00  0.00    -0.304 NA
ATOM      6  C   LIG    1        3.355  -2.465   3.451  0.00  0.00    +0.066 C 
ATOM      7  C   LIG    1        3.490  -1.179   2.632  0.00  0.00    -0.062 C 
ENDROOT
BRANCH   1   8
ATOM      8  C   LIG    1        3.694  -0.280   0.418  0.00  0.00    -0.007 C 
BRANCH   8   9
ATOM      9  C   LIG    1        3.789  -0.624  -1.046  0.00  0.00    -0.057 A 
ATOM     10  C   LIG    1        3.009  -1.638  -1.570  0.00  0.00    +0.004 A 
ATOM     11  C   LIG    1        3.097  -1.954  -2.913  0.00  0.00    +0.020 A 
ATOM     12  C   LIG    1        3.965  -1.255  -3.732  0.00  0.00    +0.041 A 
ATOM     13 CL   LIG    1        4.075  -1.652  -5.419  0.00  0.00    -0.084 Cl
ATOM     14  C   LIG    1        4.745  -0.240  -3.208  0.00  0.00    +0.020 A 
ATOM     15  C   LIG    1        4.653   0.079  -1.866  0.00  0.00    +0.004 A 
ENDBRANCH   8   9
BRANCH   8  19
ATOM     16  C   LIG    1        0.244   2.150   1.085  0.00  0.00    +0.000 A 
ATOM     17  C   LIG    1        1.494   2.734   0.995  0.00  0.00    +0.000 A 
ATOM     18  C   LIG    1        2.610   1.948   0.780  0.00  0.00    +0.002 A 
ATOM     19  C   LIG    1        2.477   0.578   0.654  0.00  0.00    -0.057 A 
ATOM     20  C   LIG    1        1.227  -0.006   0.745  0.00  0.00    +0.002 A 
ATOM     21  C   LIG    1        0.111   0.780   0.959  0.00  0.00    +0.000 A 
ENDBRANCH   8  19
ENDBRANCH   1   8
BRANCH   5  22
ATOM     22  C   LIG    1        4.460  -4.544   4.021  0.00  0.00    +0.112 C 
BRANCH  22  23
ATOM     23  C   LIG    1        5.856  -5.160   4.126  0.00  0.00    +0.176 C 
BRANCH  23  24
ATOM     24  O   LIG    1        6.717  -4.269   4.839  0.00  0.00    -0.367 OA
BRANCH  24  25
ATOM     25  C   LIG    1        8.053  -4.753   4.995  0.00  0.00    +0.280 C 
BRANCH  25  26
ATOM     26  C   LIG    1        8.868  -3.739   5.756  0.00  0.00    +0.331 C 
ATOM     27  O   LIG    1        8.352  -2.700   6.131  0.00  0.00    -0.248 OA
BRANCH  26  28
ATOM     28  O   LIG    1       10.043  -3.959   5.997  0.00  0.00    -0.479 OA
ATOM     29  H   LIG    1       10.438  -4.758   5.710  0.00  0.00    +0.295 HD
ENDBRANCH  26  28
ENDBRANCH  25  26
ENDBRANCH  24  25
ENDBRANCH  23  24
ENDBRANCH  22  23
ENDBRANCH   5  22
TORSDOF 9
