REMARK  Name = ZINC00001427
REMARK                            x       y       z     vdW  Elec       q    Type
REMARK                         _______ _______ _______ _____ _____    ______ ____
ROOT
ATOM      1  C   LIG    1        3.698  -0.688  -0.037  0.00  0.00    -0.018 A 
ATOM      2  C   LIG    1        4.895   0.030  -0.040  0.00  0.00    +0.009 A 
ATOM      3  C   LIG    1        6.094  -0.634  -0.054  0.00  0.00    +0.012 A 
ATOM      4  C   LIG    1        6.117  -2.034  -0.068  0.00  0.00    +0.017 A 
ATOM      5  C   LIG    1        4.915  -2.752  -0.065  0.00  0.00    +0.012 A 
ATOM      6  C   LIG    1        3.719  -2.083  -0.045  0.00  0.00    +0.009 A 
ENDROOT
BRANCH   1  10
ATOM      7  C   LIG    1       -0.017   1.379   0.010  0.00  0.00    +0.000 A 
ATOM      8  C   LIG    1        1.169   2.092   0.002  0.00  0.00    +0.001 A 
ATOM      9  C   LIG    1        2.377   1.427  -0.013  0.00  0.00    +0.008 A 
ATOM     10  C   LIG    1        2.403   0.033  -0.021  0.00  0.00    -0.018 A 
ATOM     11  C   LIG    1        1.205  -0.680  -0.013  0.00  0.00    +0.008 A 
ATOM     12  C   LIG    1        0.002  -0.004   0.002  0.00  0.00    +0.001 A 
ENDBRANCH   1  10
BRANCH   4  13
ATOM     13  C   LIG    1        7.402  -2.748  -0.084  0.00  0.00    +0.164 C 
ATOM     14  O   LIG    1        8.442  -2.125  -0.086  0.00  0.00    -0.292 OA
BRANCH  13  15
ATOM     15  C   LIG    1        7.426  -4.255  -0.098  0.00  0.00    +0.091 C 
BRANCH  15  16
ATOM     16  C   LIG    1        8.876  -4.742  -0.114  0.00  0.00    +0.128 C 
BRANCH  16  17
ATOM     17  C   LIG    1        8.900  -6.249  -0.128  0.00  0.00    +0.305 C 
ATOM     18  O   LIG    1        7.854  -6.875  -0.126  0.00  0.00    -0.251 OA
BRANCH  17  19
ATOM     19  O   LIG    1        9.965  -6.842  -0.142  0.00  0.00    -0.481 OA
ATOM     20  H   LIG    1       10.769  -6.360  -0.143  0.00  0.00    +0.295 HD
ENDBRANCH  17  19
ENDBRANCH  16  17
ENDBRANCH  15  16
ENDBRANCH  13  15
ENDBRANCH   4  13
TORSDOF 6
