REMARK  Name = ZINC72105910
REMARK                            x       y       z     vdW  Elec       q    Type
REMARK                         _______ _______ _______ _____ _____    ______ ____
ROOT
ATOM      1  C   LIG    1       -0.019   1.526   0.010  0.00  0.00    +0.098 C 
ATOM      2  C   LIG    1        0.002  -0.004   0.002  0.00  0.00    +0.229 C 
ATOM      3  C   LIG    1        0.705  -0.503  -1.262  0.00  0.00    +0.098 C 
ATOM      4  N   LIG    1       -1.372  -0.518   0.040  0.00  0.00    -0.240 N 
ATOM      5  H   LIG    1       -2.084  -0.025  -0.398  0.00  0.00    +0.262 HD
ATOM      6  C   LIG    1       -1.642  -1.635   0.661  0.00  0.00    +0.384 C 
ATOM      7  N   LIG    1       -0.699  -2.330   1.319  0.00  0.00    -0.008 NA
ATOM      8  C   LIG    1        0.479  -1.794   1.583  0.00  0.00    +0.415 C 
ATOM      9  N   LIG    1        0.713  -0.497   1.192  0.00  0.00    -0.087 N 
ENDROOT
BRANCH   6  10
ATOM     10  N   LIG    1       -2.936  -2.116   0.640  0.00  0.00    -0.249 N 
ATOM     11  H   LIG    1       -3.152  -2.945   1.097  0.00  0.00    +0.241 HD
ATOM     12  H   LIG    1       -3.628  -1.627   0.170  0.00  0.00    +0.241 HD
ENDBRANCH   6  10
BRANCH   8  13
ATOM     13  N   LIG    1        1.445  -2.513   2.229  0.00  0.00    -0.247 N 
ATOM     14  H   LIG    1        2.306  -2.108   2.417  0.00  0.00    +0.241 HD
ATOM     15  H   LIG    1        1.269  -3.427   2.500  0.00  0.00    +0.241 HD
ENDBRANCH   8  13
BRANCH   9  16
ATOM     16  O   LIG    1        1.606   0.335   1.909  0.00  0.00    -0.208 OA
BRANCH  16  17
ATOM     17  C   LIG    1        0.988   1.082   2.960  0.00  0.00    +0.245 C 
BRANCH  17  18
ATOM     18  C   LIG    1        2.026   1.928   3.652  0.00  0.00    -0.018 A 
ATOM     19  C   LIG    1        2.725   1.419   4.731  0.00  0.00    +0.006 A 
ATOM     20  C   LIG    1        3.676   2.195   5.366  0.00  0.00    +0.000 A 
ATOM     21  C   LIG    1        3.930   3.479   4.921  0.00  0.00    +0.000 A 
ATOM     22  C   LIG    1        3.232   3.988   3.842  0.00  0.00    +0.000 A 
ATOM     23  C   LIG    1        2.283   3.210   3.204  0.00  0.00    +0.006 A 
ENDBRANCH  17  18
ENDBRANCH  16  17
ENDBRANCH   9  16
TORSDOF 5
