REMARK  Name = ZINC36924410
REMARK                            x       y       z     vdW  Elec       q    Type
REMARK                         _______ _______ _______ _____ _____    ______ ____
ROOT
ATOM      1  C   LIG    1        0.626  -0.619   1.042  0.00  0.00    +0.162 A 
ATOM      2  C   LIG    1        1.202   0.133   2.050  0.00  0.00    +0.053 A 
ATOM      3  C   LIG    1        1.839  -0.485   3.119  0.00  0.00    -0.038 A 
ATOM      4  C   LIG    1        1.892  -1.860   3.177  0.00  0.00    -0.025 A 
ATOM      5  C   LIG    1        2.543  -2.595   4.323  0.00  0.00    +0.146 C 
ATOM      6  N   LIG    1        3.308  -1.650   5.143  0.00  0.00    -0.162 NA
ATOM      7  C   LIG    1        2.667  -0.367   5.473  0.00  0.00    +0.115 C 
ATOM      8  C   LIG    1        1.322  -2.620   2.164  0.00  0.00    +0.054 A 
ATOM      9  C   LIG    1        2.455   0.401   4.169  0.00  0.00    +0.052 C 
ATOM     10  C   LIG    1        0.684  -2.008   1.101  0.00  0.00    +0.162 A 
ENDROOT
BRANCH   6  11
ATOM     11  S   LIG    1        4.833  -2.014   5.678  0.00  0.00    +0.095 S 
ATOM     12  O   LIG    1        4.931  -3.431   5.694  0.00  0.00    -0.141 OA
ATOM     13  O   LIG    1        5.057  -1.221   6.836  0.00  0.00    -0.141 OA
BRANCH  11  14
ATOM     14  N   LIG    1        5.896  -1.480   4.526  0.00  0.00    -0.193 NA
ATOM     15  H   LIG    1        5.737  -0.477   4.421  0.00  0.00    +0.145 HD
ATOM     16  H   LIG    1        6.850  -1.600   4.654  0.00  0.00    +0.145 HD
ENDBRANCH  11  14
ENDBRANCH   6  11
BRANCH   1  18
ATOM     17  C   LIG    1       -0.017   1.425   0.010  0.00  0.00    +0.277 C 
ATOM     18  O   LIG    1        0.002  -0.004   0.002  0.00  0.00    -0.491 OA
ENDBRANCH   1  18
BRANCH  10  19
ATOM     19  O   LIG    1        0.121  -2.759   0.116  0.00  0.00    -0.491 OA
ATOM     20  C   LIG    1        0.221  -4.178   0.245  0.00  0.00    +0.277 C 
ENDBRANCH  10  19
TORSDOF 4
