REMARK  Name = ZINC26479662
REMARK                            x       y       z     vdW  Elec       q    Type
REMARK                         _______ _______ _______ _____ _____    ______ ____
ROOT
ATOM      1  C   LIG    1       -1.242   3.131   0.030  0.00  0.00    +0.023 A 
ATOM      2  C   LIG    1       -0.057   3.838   0.020  0.00  0.00    +0.047 A 
ATOM      3  C   LIG    1        1.160   3.165   0.003  0.00  0.00    +0.125 A 
ATOM      4  C   LIG    1        1.179   1.781   0.000  0.00  0.00    +0.009 A 
ATOM      5  C   LIG    1        2.476   1.013  -0.005  0.00  0.00    +0.134 C 
ATOM      6  C   LIG    1        3.617   1.931  -0.452  0.00  0.00    +0.060 C 
ATOM      7  C   LIG    1        3.522   3.240   0.343  0.00  0.00    +0.230 C 
ATOM      8  C   LIG    1       -0.013   1.076   0.008  0.00  0.00    +0.028 A 
ATOM      9  O   LIG    1        2.305   3.897  -0.015  0.00  0.00    -0.492 OA
ATOM     10  C   LIG    1       -1.221   1.748   0.017  0.00  0.00    +0.041 A 
ATOM     11 CL   LIG    1       -2.710   0.856   0.020  0.00  0.00    -0.084 Cl
ENDROOT
BRANCH   5  12
ATOM     12  C   LIG    1        2.367  -0.150  -0.957  0.00  0.00    +0.312 C 
ATOM     13  O   LIG    1        3.120  -0.233  -1.898  0.00  0.00    -0.250 OA
BRANCH  12  14
ATOM     14  O   LIG    1        1.432  -1.093  -0.760  0.00  0.00    -0.480 OA
ATOM     15  H   LIG    1        0.848  -1.028  -0.030  0.00  0.00    +0.295 HD
ENDBRANCH  12  14
ENDBRANCH   5  12
TORSDOF 2
