REMARK  Name = ZINC40934902
REMARK                            x       y       z     vdW  Elec       q    Type
REMARK                         _______ _______ _______ _____ _____    ______ ____
ROOT
ATOM      1  N   LIG    1       -5.568  -0.891   0.072  0.00  0.00    -0.324 N 
ATOM      2  C   LIG    1       -5.814  -2.248   0.127  0.00  0.00    +0.069 A 
ATOM      3  C   LIG    1       -5.007  -3.377   0.166  0.00  0.00    +0.028 A 
ATOM      4  C   LIG    1       -5.584  -4.628   0.218  0.00  0.00    +0.002 A 
ATOM      5  C   LIG    1       -6.965  -4.766   0.231  0.00  0.00    +0.002 A 
ATOM      6  C   LIG    1       -7.775  -3.666   0.193  0.00  0.00    +0.030 A 
ATOM      7  C   LIG    1       -7.212  -2.388   0.140  0.00  0.00    +0.089 A 
ATOM      8  N   LIG    1       -7.736  -1.136   0.094  0.00  0.00    -0.232 NA
ATOM      9  C   LIG    1       -6.774  -0.261   0.060  0.00  0.00    +0.112 A 
ENDROOT
BRANCH   9  10
ATOM     10  C   LIG    1       -6.967   1.233   0.012  0.00  0.00    +0.038 C 
ATOM     11  C   LIG    1       -7.740   1.689   1.252  0.00  0.00    +0.007 C 
ATOM     12  C   LIG    1       -7.999   3.196   1.155  0.00  0.00    -0.018 C 
ATOM     13  C   LIG    1       -8.754   3.495  -0.142  0.00  0.00    -0.083 C 
ATOM     14  N   LIG    1       -7.952   3.059  -1.291  0.00  0.00    +0.380 N 
ATOM     15  H   LIG    1       -7.053   3.517  -1.266  0.00  0.00    -0.086 HD
ATOM     16  H   LIG    1       -8.428   3.306  -2.146  0.00  0.00    -0.086 HD
ATOM     17  C   LIG    1       -7.759   1.605  -1.243  0.00  0.00    -0.071 C 
ENDBRANCH   9  10
BRANCH   1  22
ATOM     18  N   LIG    1       -1.369  -0.531   0.031  0.00  0.00    +0.383 N 
ATOM     19  H   LIG    1       -1.340  -1.539   0.069  0.00  0.00    -0.081 HD
ATOM     20  C   LIG    1       -2.063  -0.019   1.218  0.00  0.00    -0.076 C 
ATOM     21  C   LIG    1       -3.465  -0.629   1.297  0.00  0.00    +0.006 C 
ATOM     22  C   LIG    1       -4.252  -0.248   0.040  0.00  0.00    +0.086 C 
ATOM     23  C   LIG    1       -3.481  -0.722  -1.196  0.00  0.00    +0.006 C 
ATOM     24  C   LIG    1       -2.079  -0.109  -1.182  0.00  0.00    -0.076 C 
BRANCH  18  26
ATOM     25  C   LIG    1        0.670  -0.493   1.280  0.00  0.00    -0.010 C 
ATOM     26  C   LIG    1        0.002  -0.004   0.002  0.00  0.00    -0.068 C 
ATOM     27  C   LIG    1       -0.129   1.515  -0.024  0.00  0.00    -0.012 C 
ATOM     28  C   LIG    1        1.218   2.249  -0.095  0.00  0.00    -0.001 C 
ATOM     29  C   LIG    1        1.726   2.144  -1.548  0.00  0.00    -0.000 C 
ATOM     30  C   LIG    1        3.074   1.385  -1.556  0.00  0.00    -0.000 C 
ATOM     31  C   LIG    1        2.992   0.193  -0.587  0.00  0.00    -0.000 C 
ATOM     32  C   LIG    1        2.108  -0.910  -1.163  0.00  0.00    -0.001 C 
ATOM     33  C   LIG    1        0.644  -0.544  -1.260  0.00  0.00    -0.012 C 
ENDBRANCH  18  26
ENDBRANCH   1  22
TORSDOF 3
