REMARK  Name = ZINC40864350
REMARK                            x       y       z     vdW  Elec       q    Type
REMARK                         _______ _______ _______ _____ _____    ______ ____
ROOT
ATOM      1  N   LIG    1        3.585   2.124  -0.021  0.00  0.00    -0.214 N 
ATOM      2  C   LIG    1        4.744   1.748   0.596  0.00  0.00    +0.168 A 
ATOM      3  C   LIG    1        5.688   2.758   0.325  0.00  0.00    +0.078 A 
ATOM      4  C   LIG    1        6.986   2.616   0.852  0.00  0.00    +0.130 A 
ATOM      5  N   LIG    1        7.258   1.537   1.579  0.00  0.00    -0.220 NA
ATOM      6  C   LIG    1        6.339   0.616   1.806  0.00  0.00    +0.225 A 
ATOM      7  C   LIG    1        5.039   3.729  -0.468  0.00  0.00    +0.148 A 
ATOM      8  N   LIG    1        5.114   0.704   1.335  0.00  0.00    -0.216 NA
ATOM      9  N   LIG    1        3.810   3.346  -0.668  0.00  0.00    -0.172 NA
ENDROOT
BRANCH   1  12
ATOM     10  C   LIG    1       -0.017   1.379   0.010  0.00  0.00    +0.014 A 
ATOM     11  C   LIG    1        1.169   2.087   0.002  0.00  0.00    +0.028 A 
ATOM     12  C   LIG    1        2.381   1.409  -0.013  0.00  0.00    +0.068 A 
ATOM     13  C   LIG    1        2.396   0.020  -0.021  0.00  0.00    +0.028 A 
ATOM     14  C   LIG    1        1.207  -0.682  -0.013  0.00  0.00    +0.014 A 
ATOM     15  C   LIG    1        0.002  -0.004   0.002  0.00  0.00    +0.055 A 
BRANCH  15  16
ATOM     16  C   LIG    1       -1.294  -0.774   0.010  0.00  0.00    +0.417 C 
ATOM     17  F   LIG    1       -2.272  -0.033   0.683  0.00  0.00    -0.166 F 
ATOM     18  F   LIG    1       -1.105  -1.997   0.661  0.00  0.00    -0.166 F 
ATOM     19  F   LIG    1       -1.707  -1.005  -1.306  0.00  0.00    -0.166 F 
ENDBRANCH  15  16
ENDBRANCH   1  12
BRANCH   4  20
ATOM     20  N   LIG    1        7.953   3.574   0.619  0.00  0.00    -0.342 N 
ATOM     21  H   LIG    1        8.844   3.464   0.987  0.00  0.00    +0.144 HD
ATOM     22  H   LIG    1        7.742   4.357   0.086  0.00  0.00    +0.144 HD
ENDBRANCH   4  20
TORSDOF 3
