REMARK  Name = ZINC22662132
REMARK                            x       y       z     vdW  Elec       q    Type
REMARK                         _______ _______ _______ _____ _____    ______ ____
ROOT
ATOM      1  N   LIG    1        1.146   3.437   0.009  0.00  0.00    -0.280 N 
ATOM      2  H   LIG    1        2.087   4.002   0.081  0.00  0.00    +0.155 HD
ATOM      3  C   LIG    1       -0.028   4.092  -0.078  0.00  0.00    +0.248 C 
ATOM      4  O   LIG    1       -1.073   3.470  -0.072  0.00  0.00    -0.270 OA
ENDROOT
BRANCH   3   5
ATOM      5  C   LIG    1       -0.046   5.565  -0.182  0.00  0.00    +0.040 A 
ATOM      6  C   LIG    1        1.152   6.282  -0.184  0.00  0.00    +0.016 A 
ATOM      7  C   LIG    1        1.131   7.657  -0.287  0.00  0.00    +0.042 A 
ATOM      8  C   LIG    1       -0.077   8.329  -0.377  0.00  0.00    +0.158 A 
ATOM      9  F   LIG    1       -0.092   9.677  -0.473  0.00  0.00    -0.202 F 
ATOM     10  C   LIG    1       -1.273   7.623  -0.370  0.00  0.00    +0.159 A 
ATOM     11  F   LIG    1       -2.448   8.284  -0.458  0.00  0.00    -0.202 F 
ATOM     12  C   LIG    1       -1.262   6.246  -0.273  0.00  0.00    +0.054 A 
ENDBRANCH   3   5
BRANCH   1  15
ATOM     13  C   LIG    1        0.215  -0.069   0.594  0.00  0.00    +0.021 A 
ATOM     14  C   LIG    1        0.148   1.315   0.620  0.00  0.00    +0.026 A 
ATOM     15  C   LIG    1        1.169   2.038   0.008  0.00  0.00    +0.052 A 
ATOM     16  C   LIG    1        2.210   1.350  -0.602  0.00  0.00    +0.134 A 
ATOM     17  N   LIG    1        2.235   0.033  -0.605  0.00  0.00    -0.261 NA
ATOM     18  C   LIG    1        1.284  -0.681  -0.034  0.00  0.00    +0.111 A 
ENDBRANCH   1  15
TORSDOF 2
