REMARK  Name = ZINC36177047
REMARK                            x       y       z     vdW  Elec       q    Type
REMARK                         _______ _______ _______ _____ _____    ______ ____
ROOT
ATOM      1  C   LIG    1       -8.040  -8.431   1.179  0.00  0.00    -0.000 C 
ENDROOT
BRANCH   1   2
ATOM      2  C   LIG    1       -6.782  -7.690   1.637  0.00  0.00    -0.000 C 
BRANCH   2   3
ATOM      3  C   LIG    1       -7.097  -6.202   1.801  0.00  0.00    -0.000 C 
BRANCH   3   4
ATOM      4  C   LIG    1       -5.839  -5.462   2.259  0.00  0.00    -0.000 C 
BRANCH   4   5
ATOM      5  C   LIG    1       -6.154  -3.973   2.422  0.00  0.00    -0.000 C 
BRANCH   5   6
ATOM      6  C   LIG    1       -4.896  -3.233   2.881  0.00  0.00    -0.000 C 
BRANCH   6   7
ATOM      7  C   LIG    1       -5.212  -1.744   3.044  0.00  0.00    -0.000 C 
BRANCH   7   8
ATOM      8  C   LIG    1       -3.954  -1.004   3.502  0.00  0.00    -0.000 C 
BRANCH   8   9
ATOM      9  C   LIG    1       -4.269   0.484   3.666  0.00  0.00    -0.000 C 
BRANCH   9  11
ATOM     10  C   LIG    1       -3.326   2.713   4.287  0.00  0.00    +0.004 C 
ATOM     11  C   LIG    1       -3.011   1.225   4.124  0.00  0.00    -0.003 C 
ENDBRANCH   9  11
ENDBRANCH   8   9
ENDBRANCH   7   8
ENDBRANCH   6   7
ENDBRANCH   5   6
ENDBRANCH   4   5
ENDBRANCH   3   4
ENDBRANCH   2   3
ENDBRANCH   1   2
BRANCH   1  12
ATOM     12  C   LIG    1       -7.725  -9.919   1.016  0.00  0.00    -0.002 C 
BRANCH  12  13
ATOM     13  C   LIG    1       -8.983 -10.659   0.557  0.00  0.00    -0.018 C 
BRANCH  13  14
ATOM     14  C   LIG    1       -8.667 -12.148   0.394  0.00  0.00    -0.076 C 
BRANCH  14  15
ATOM     15  N   LIG    1       -9.875 -12.859  -0.046  0.00  0.00    +0.378 N 
ATOM     16  C   LIG    1      -10.325 -12.309  -1.332  0.00  0.00    -0.092 C 
ATOM     17  C   LIG    1      -10.935 -12.690   0.957  0.00  0.00    -0.092 C 
BRANCH  15  18
ATOM     18  C   LIG    1       -9.572 -14.288  -0.203  0.00  0.00    -0.048 C 
BRANCH  18  19
ATOM     19  C   LIG    1      -10.857 -15.047  -0.539  0.00  0.00    +0.138 C 
BRANCH  19  20
ATOM     20  O   LIG    1      -11.312 -14.662  -1.838  0.00  0.00    -0.397 OA
ATOM     21  H   LIG    1      -12.125 -15.105  -2.117  0.00  0.00    +0.209 HD
ENDBRANCH  19  20
ENDBRANCH  18  19
ENDBRANCH  15  18
ENDBRANCH  14  15
ENDBRANCH  13  14
ENDBRANCH  12  13
ENDBRANCH   1  12
TORSDOF 16
