REMARK  Name = ZINC35324130
REMARK                            x       y       z     vdW  Elec       q    Type
REMARK                         _______ _______ _______ _____ _____    ______ ____
ROOT
ATOM      1  C   LIG    1       -0.016   1.352   0.009  0.00  0.00    +0.003 A 
ATOM      2  C   LIG    1        1.146   2.118   0.003  0.00  0.00    +0.009 A 
ATOM      3  C   LIG    1        2.396   1.527  -0.013  0.00  0.00    -0.005 A 
ATOM      4  C   LIG    1        2.479   0.068  -0.022  0.00  0.00    +0.046 A 
ATOM      5  C   LIG    1        3.513  -0.857  -0.037  0.00  0.00    +0.118 A 
ATOM      6  N   LIG    1        2.963  -2.084  -0.039  0.00  0.00    -0.286 N 
ATOM      7  H   LIG    1        3.460  -2.917  -0.049  0.00  0.00    +0.188 HD
ATOM      8  N   LIG    1        1.568  -1.980  -0.024  0.00  0.00    -0.298 N 
ATOM      9  H   LIG    1        0.949  -2.727  -0.021  0.00  0.00    +0.187 HD
ATOM     10  C   LIG    1        1.228  -0.704  -0.013  0.00  0.00    +0.066 A 
ATOM     11  C   LIG    1        0.002  -0.004   0.002  0.00  0.00    +0.028 A 
ENDROOT
BRANCH   3  12
ATOM     12  C   LIG    1        3.623   2.354  -0.021  0.00  0.00    -0.017 A 
ATOM     13  C   LIG    1        4.649   2.093   0.889  0.00  0.00    +0.010 A 
ATOM     14  C   LIG    1        5.790   2.865   0.878  0.00  0.00    +0.023 A 
ATOM     15  C   LIG    1        5.921   3.903  -0.037  0.00  0.00    +0.025 A 
ATOM     16  C   LIG    1        4.901   4.166  -0.945  0.00  0.00    +0.023 A 
ATOM     17  C   LIG    1        3.759   3.394  -0.943  0.00  0.00    +0.010 A 
BRANCH  15  18
ATOM     18  N   LIG    1        7.078   4.683  -0.045  0.00  0.00    -0.358 N 
ATOM     19  H   LIG    1        7.170   5.408  -0.683  0.00  0.00    +0.142 HD
ATOM     20  H   LIG    1        7.790   4.501   0.589  0.00  0.00    +0.142 HD
ENDBRANCH  15  18
ENDBRANCH   3  12
BRANCH   5  21
ATOM     21  N   LIG    1        4.870  -0.568  -0.050  0.00  0.00    -0.343 N 
ATOM     22  H   LIG    1        5.519  -1.289  -0.061  0.00  0.00    +0.144 HD
ATOM     23  H   LIG    1        5.169   0.354  -0.049  0.00  0.00    +0.144 HD
ENDBRANCH   5  21
TORSDOF 3
