REMARK  Name = ZINC19334219
REMARK                            x       y       z     vdW  Elec       q    Type
REMARK                         _______ _______ _______ _____ _____    ______ ____
ROOT
ATOM      1  N   LIG    1        8.107  -2.696   0.102  0.00  0.00    -0.296 NA
ATOM      2  C   LIG    1        8.396  -1.330   0.559  0.00  0.00    +0.100 C 
ATOM      3  C   LIG    1        7.441  -0.962   1.696  0.00  0.00    +0.100 C 
ATOM      4  N   LIG    1        6.054  -1.074   1.223  0.00  0.00    -0.296 NA
ATOM      5  C   LIG    1        5.765  -2.440   0.767  0.00  0.00    +0.100 C 
ATOM      6  C   LIG    1        6.720  -2.808  -0.371  0.00  0.00    +0.100 C 
ENDROOT
BRANCH   1   7
ATOM      7  C   LIG    1        9.054  -3.114  -0.940  0.00  0.00    +0.119 C 
BRANCH   7  13
ATOM      8  C   LIG    1        9.002  -5.615  -1.024  0.00  0.00    +0.007 A 
ATOM      9  C   LIG    1        8.569  -6.803  -1.585  0.00  0.00    +0.033 A 
ATOM     10  C   LIG    1        7.728  -6.782  -2.682  0.00  0.00    +0.122 A 
ATOM     11  C   LIG    1        7.315  -5.575  -3.215  0.00  0.00    +0.033 A 
ATOM     12  C   LIG    1        7.745  -4.388  -2.651  0.00  0.00    +0.007 A 
ATOM     13  C   LIG    1        8.586  -4.408  -1.554  0.00  0.00    -0.033 A 
BRANCH  10  14
ATOM     14  N   LIG    1        7.268  -8.053  -3.285  0.00  0.00    +0.006 N 
ATOM     15  O   LIG    1        6.526  -8.036  -4.251  0.00  0.00    -0.130 OA
BRANCH  14  16
ATOM     16  O   LIG    1        7.631  -9.117  -2.815  0.00  0.00    -0.396 OA
ATOM     17  H   LIG    1        8.201  -9.131  -2.072  0.00  0.00    +0.329 HD
ENDBRANCH  14  16
ENDBRANCH  10  14
ENDBRANCH   7  13
ENDBRANCH   1   7
BRANCH   4  18
ATOM     18  C   LIG    1        5.107  -0.655   2.265  0.00  0.00    +0.119 C 
BRANCH  18  19
ATOM     19  C   LIG    1        3.725  -0.548   1.674  0.00  0.00    -0.030 A 
ATOM     20  C   LIG    1        2.885  -1.646   1.677  0.00  0.00    +0.009 A 
ATOM     21  C   LIG    1        1.617  -1.553   1.135  0.00  0.00    +0.050 A 
ATOM     22  C   LIG    1        1.183  -0.356   0.589  0.00  0.00    +0.166 A 
ATOM     23  C   LIG    1        2.028   0.751   0.586  0.00  0.00    +0.167 A 
ATOM     24  O   LIG    1        1.376   1.797  -0.001  0.00  0.00    -0.453 OA
ATOM     25  C   LIG    1       -0.018   1.436   0.010  0.00  0.00    +0.466 C 
ATOM     26  O   LIG    1        0.002  -0.004   0.002  0.00  0.00    -0.453 OA
ATOM     27  C   LIG    1        3.298   0.650   1.131  0.00  0.00    +0.054 A 
ENDBRANCH  18  19
ENDBRANCH   4  18
TORSDOF 6
