REMARK  Name = ZINC00050683
REMARK                            x       y       z     vdW  Elec       q    Type
REMARK                         _______ _______ _______ _____ _____    ______ ____
ROOT
ATOM      1  N   LIG    1       -4.282   1.878  -1.983  0.00  0.00    -0.251 N 
ATOM      2  H   LIG    1       -4.549   1.063  -1.530  0.00  0.00    +0.158 HD
ATOM      3  C   LIG    1       -2.978   2.205  -2.069  0.00  0.00    +0.405 C 
ATOM      4  O   LIG    1       -2.635   3.173  -2.718  0.00  0.00    -0.226 OA
ENDROOT
BRANCH   1   8
ATOM      5  C   LIG    1       -7.169   4.369  -3.663  0.00  0.00    +0.000 A 
ATOM      6  C   LIG    1       -7.366   3.000  -3.643  0.00  0.00    +0.002 A 
ATOM      7  C   LIG    1       -6.411   2.172  -3.086  0.00  0.00    +0.023 A 
ATOM      8  C   LIG    1       -5.252   2.715  -2.547  0.00  0.00    +0.036 A 
ATOM      9  C   LIG    1       -5.060   4.090  -2.564  0.00  0.00    +0.023 A 
ATOM     10  C   LIG    1       -6.016   4.912  -3.128  0.00  0.00    +0.002 A 
ENDBRANCH   1   8
BRANCH   3  11
ATOM     11  O   LIG    1       -2.053   1.458  -1.436  0.00  0.00    -0.448 OA
BRANCH  11  12
ATOM     12  C   LIG    1       -0.667   1.869  -1.572  0.00  0.00    +0.165 C 
ATOM     13  C   LIG    1       -0.042   1.170  -2.783  0.00  0.00    -0.033 C 
ATOM     14  N   LIG    1        1.106   0.339  -2.362  0.00  0.00    +0.382 N 
ATOM     15  H   LIG    1        1.507  -0.118  -3.190  0.00  0.00    -0.082 HD
ATOM     16  C   LIG    1        2.141   1.188  -1.734  0.00  0.00    -0.078 C 
ATOM     17  C   LIG    1        1.578   1.887  -0.494  0.00  0.00    -0.012 C 
ATOM     18  C   LIG    1        0.657  -0.699  -1.410  0.00  0.00    -0.078 C 
ATOM     19  C   LIG    1        0.052  -0.053  -0.160  0.00  0.00    -0.012 C 
ATOM     20  C   LIG    1        0.113   1.472  -0.313  0.00  0.00    +0.025 C 
ENDBRANCH  11  12
ENDBRANCH   3  11
TORSDOF 3
