REMARK  Name = ZINC19702119
REMARK                            x       y       z     vdW  Elec       q    Type
REMARK                         _______ _______ _______ _____ _____    ______ ____
ROOT
ATOM      1  C   LIG    1       -0.018   1.465   0.010  0.00  0.00    +0.105 C 
ATOM      2  N   LIG    1        0.002  -0.004   0.002  0.00  0.00    -0.302 NA
ATOM      3  C   LIG    1       -1.370  -0.552  -0.013  0.00  0.00    +0.103 C 
ATOM      4  C   LIG    1       -1.259  -2.014  -0.441  0.00  0.00    +0.122 C 
ATOM      5  N   LIG    1       -0.210  -2.698   0.328  0.00  0.00    -0.305 N 
ATOM      6  C   LIG    1       -0.094  -4.071   0.106  0.00  0.00    +0.125 A 
ATOM      7  C   LIG    1       -0.327  -4.974   1.123  0.00  0.00    -0.003 A 
ATOM      8  C   LIG    1       -0.901  -4.489   2.416  0.00  0.00    +0.074 C 
ATOM      9  C   LIG    1       -0.006  -3.556   3.170  0.00  0.00    -0.038 A 
ATOM     10  C   LIG    1        0.134  -3.859   4.529  0.00  0.00    +0.004 A 
ATOM     11  C   LIG    1        0.895  -3.078   5.365  0.00  0.00    +0.000 A 
ATOM     12  C   LIG    1        1.536  -1.963   4.854  0.00  0.00    +0.000 A 
ATOM     13  C   LIG    1        1.411  -1.670   3.518  0.00  0.00    +0.006 A 
ATOM     14  C   LIG    1        0.652  -2.475   2.659  0.00  0.00    -0.022 A 
ATOM     15  C   LIG    1       -0.106  -6.322   0.910  0.00  0.00    +0.009 A 
ATOM     16  C   LIG    1        0.293  -6.728  -0.358  0.00  0.00    +0.020 A 
ATOM     17  C   LIG    1        0.453  -5.779  -1.348  0.00  0.00    +0.113 A 
ATOM     18  N   LIG    1        0.261  -4.498  -1.101  0.00  0.00    -0.240 NA
ATOM     19  C   LIG    1        0.702  -2.046   1.218  0.00  0.00    +0.119 C 
ATOM     20  C   LIG    1        0.703  -0.525   1.176  0.00  0.00    +0.111 C 
ENDROOT
TORSDOF 0
