REMARK  Name = ZINC13815545
REMARK                            x       y       z     vdW  Elec       q    Type
REMARK                         _______ _______ _______ _____ _____    ______ ____
ROOT
ATOM      1  S   LIG    1        0.058  -1.507   3.638  0.00  0.00    +0.076 S 
ATOM      2  O   LIG    1        1.312  -2.170   3.554  0.00  0.00    -0.150 OA
ATOM      3  O   LIG    1       -1.178  -2.205   3.578  0.00  0.00    -0.150 OA
ENDROOT
BRANCH   1   4
ATOM      4  C   LIG    1        0.060  -0.616   5.158  0.00  0.00    +0.130 A 
ATOM      5  C   LIG    1       -0.981  -0.689   6.048  0.00  0.00    +0.037 A 
ATOM      6  C   LIG    1       -0.915   0.024   7.202  0.00  0.00    +0.048 A 
ATOM      7  S   LIG    1        0.563   0.817   7.112  0.00  0.00    -0.088 S 
ATOM      8  C   LIG    1        1.118   0.202   5.534  0.00  0.00    +0.123 A 
BRANCH   8   9
ATOM      9  C   LIG    1        2.325   0.478   4.841  0.00  0.00    +0.345 C 
ATOM     10  O   LIG    1        2.538  -0.040   3.752  0.00  0.00    -0.244 OA
BRANCH   9  11
ATOM     11  O   LIG    1        3.154   1.234   5.333  0.00  0.00    -0.477 OA
ATOM     12  H   LIG    1        2.991   1.630   6.166  0.00  0.00    +0.295 HD
ENDBRANCH   9  11
ENDBRANCH   8   9
ENDBRANCH   1   4
BRANCH   1  13
ATOM     13  N   LIG    1        0.030  -0.391   2.415  0.00  0.00    -0.183 N 
ATOM     14  H   LIG    1        0.019   0.571   2.627  0.00  0.00    +0.177 HD
BRANCH  13  21
ATOM     15  C   LIG    1       -0.018   1.503   0.010  0.00  0.00    +0.051 C 
ATOM     16  C   LIG    1        0.002  -0.004   0.002  0.00  0.00    +0.035 A 
ATOM     17  C   LIG    1        0.008  -0.821  -1.136  0.00  0.00    +0.085 A 
ATOM     18  C   LIG    1       -0.006  -0.344  -2.566  0.00  0.00    +0.069 C 
ATOM     19  N   LIG    1        0.028  -2.066  -0.745  0.00  0.00    -0.081 NA
ATOM     20  O   LIG    1        0.035  -2.083   0.671  0.00  0.00    -0.338 OA
ATOM     21  C   LIG    1        0.024  -0.808   1.097  0.00  0.00    +0.240 A 
ENDBRANCH  13  21
ENDBRANCH   1  13
TORSDOF 5
