REMARK  Name = ZINC49745945
REMARK                            x       y       z     vdW  Elec       q    Type
REMARK                         _______ _______ _______ _____ _____    ______ ____
ROOT
ATOM      1  C   LIG    1       -2.746  -1.215  -4.784  0.00  0.00    +0.019 A 
ATOM      2  C   LIG    1       -3.137  -1.668  -6.044  0.00  0.00    +0.013 A 
ATOM      3  C   LIG    1       -4.438  -1.496  -6.463  0.00  0.00    +0.024 A 
ATOM      4  C   LIG    1       -5.361  -0.871  -5.632  0.00  0.00    +0.035 A 
ATOM      5  C   LIG    1       -4.973  -0.418  -4.376  0.00  0.00    +0.024 A 
ATOM      6  C   LIG    1       -3.675  -0.593  -3.950  0.00  0.00    +0.013 A 
ENDROOT
BRANCH   1  13
ATOM      7  N   LIG    1        0.899  -0.784  -1.533  0.00  0.00    -0.227 N 
ATOM      8  C   LIG    1        0.242  -1.112  -2.687  0.00  0.00    +0.184 A 
ATOM      9  C   LIG    1        1.195  -1.736  -3.512  0.00  0.00    +0.171 A 
ATOM     10  N   LIG    1        2.362  -1.763  -2.846  0.00  0.00    -0.124 NA
ATOM     11  C   LIG    1        0.781  -2.183  -4.785  0.00  0.00    +0.155 A 
ATOM     12  N   LIG    1       -0.481  -1.995  -5.144  0.00  0.00    -0.210 NA
ATOM     13  C   LIG    1       -1.347  -1.399  -4.330  0.00  0.00    +0.164 A 
ATOM     14  N   LIG    1       -1.002  -0.964  -3.128  0.00  0.00    -0.206 NA
ATOM     15  N   LIG    1        2.226  -1.211  -1.691  0.00  0.00    -0.063 NA
BRANCH  11  16
ATOM     16  N   LIG    1        1.673  -2.803  -5.639  0.00  0.00    -0.309 N 
ATOM     17  C   LIG    1        3.099  -2.917  -5.293  0.00  0.00    +0.134 C 
ATOM     18  C   LIG    1        3.524  -4.379  -5.473  0.00  0.00    +0.178 C 
ATOM     19  O   LIG    1        3.151  -4.821  -6.780  0.00  0.00    -0.377 OA
ATOM     20  C   LIG    1        1.742  -4.809  -7.021  0.00  0.00    +0.178 C 
ATOM     21  C   LIG    1        1.224  -3.374  -6.919  0.00  0.00    +0.134 C 
ENDBRANCH  11  16
BRANCH   7  23
ATOM     22  C   LIG    1        0.476   1.403  -0.521  0.00  0.00    +0.029 C 
ATOM     23  C   LIG    1        0.329  -0.112  -0.362  0.00  0.00    +0.144 C 
ENDBRANCH   7  23
ENDBRANCH   1  13
BRANCH   4  24
ATOM     24  N   LIG    1       -6.679  -0.698  -6.059  0.00  0.00    -0.269 N 
ATOM     25  H   LIG    1       -6.866  -0.508  -6.992  0.00  0.00    +0.156 HD
ATOM     26  C   LIG    1       -7.692  -0.795  -5.176  0.00  0.00    +0.308 C 
ATOM     27  N   LIG    1       -8.969  -0.722  -5.603  0.00  0.00    -0.269 N 
ATOM     28  H   LIG    1       -9.158  -0.530  -6.535  0.00  0.00    +0.156 HD
ATOM     29  O   LIG    1       -7.455  -0.948  -3.993  0.00  0.00    -0.252 OA
BRANCH  27  30
ATOM     30  C   LIG    1      -10.017  -0.920  -4.705  0.00  0.00    +0.035 A 
ATOM     31  C   LIG    1       -9.904  -0.467  -3.394  0.00  0.00    +0.024 A 
ATOM     32  C   LIG    1      -10.937  -0.662  -2.506  0.00  0.00    +0.015 A 
ATOM     33  C   LIG    1      -12.100  -1.315  -2.921  0.00  0.00    +0.037 A 
ATOM     34  C   LIG    1      -12.210  -1.769  -4.238  0.00  0.00    +0.015 A 
ATOM     35  C   LIG    1      -11.176  -1.566  -5.124  0.00  0.00    +0.024 A 
BRANCH  33  36
ATOM     36  C   LIG    1      -13.209  -1.526  -1.971  0.00  0.00    +0.246 C 
ATOM     37  N   LIG    1      -13.905  -2.680  -1.993  0.00  0.00    -0.301 N 
ATOM     38  C   LIG    1      -13.497  -3.793  -2.864  0.00  0.00    +0.089 C 
ATOM     39  C   LIG    1      -13.427  -5.070  -2.020  0.00  0.00    -0.060 C 
ATOM     40  N   LIG    1      -14.710  -5.275  -1.336  0.00  0.00    +0.380 N 
ATOM     41  H   LIG    1      -15.454  -5.293  -2.018  0.00  0.00    -0.082 HD
ATOM     42  C   LIG    1      -14.681  -6.555  -0.615  0.00  0.00    -0.096 C 
ATOM     43  C   LIG    1      -14.949  -4.184  -0.383  0.00  0.00    -0.060 C 
ATOM     44  C   LIG    1      -15.091  -2.865  -1.141  0.00  0.00    +0.089 C 
ATOM     45  O   LIG    1      -13.495  -0.659  -1.168  0.00  0.00    -0.270 OA
ENDBRANCH  33  36
ENDBRANCH  27  30
ENDBRANCH   4  24
TORSDOF 6
