REMARK  Name = ZINC64491763
REMARK                            x       y       z     vdW  Elec       q    Type
REMARK                         _______ _______ _______ _____ _____    ______ ____
ROOT
ATOM      1  C   LIG    1        0.018   0.076   2.465  0.00  0.00    -0.018 A 
ATOM      2  C   LIG    1        1.029   0.993   2.754  0.00  0.00    +0.009 A 
ATOM      3  C   LIG    1        1.034   1.654   3.962  0.00  0.00    +0.013 A 
ATOM      4  C   LIG    1        0.027   1.406   4.898  0.00  0.00    +0.037 A 
ATOM      5  C   LIG    1       -0.984   0.487   4.607  0.00  0.00    +0.013 A 
ATOM      6  C   LIG    1       -0.991  -0.168   3.396  0.00  0.00    +0.009 A 
ENDROOT
BRANCH   4   7
ATOM      7  C   LIG    1        0.033   2.114   6.194  0.00  0.00    +0.247 C 
ATOM      8  N   LIG    1        1.194   2.554   6.717  0.00  0.00    -0.286 N 
ATOM      9  C   LIG    1        2.509   2.479   6.067  0.00  0.00    +0.162 C 
ATOM     10  C   LIG    1        3.547   2.648   7.160  0.00  0.00    +0.077 C 
ATOM     11  C   LIG    1        2.851   3.506   8.203  0.00  0.00    +0.080 C 
ATOM     12  N   LIG    1        4.736   2.178   7.194  0.00  0.00    -0.093 NA
ATOM     13  C   LIG    1        1.354   3.195   8.028  0.00  0.00    +0.108 C 
ATOM     14  O   LIG    1       -1.011   2.299   6.790  0.00  0.00    -0.270 OA
BRANCH  12  15
ATOM     15  O   LIG    1        5.218   1.391   6.120  0.00  0.00    -0.397 OA
ATOM     16  C   LIG    1        6.561   0.932   6.292  0.00  0.00    +0.313 C 
ENDBRANCH  12  15
BRANCH  13  17
ATOM     17  C   LIG    1        0.542   4.491   8.077  0.00  0.00    +0.178 C 
BRANCH  17  18
ATOM     18  O   LIG    1        1.078   5.425   7.137  0.00  0.00    -0.393 OA
ATOM     19  H   LIG    1        0.611   6.271   7.114  0.00  0.00    +0.209 HD
ENDBRANCH  17  18
ENDBRANCH  13  17
ENDBRANCH   4   7
BRANCH   1  26
ATOM     20  C   LIG    1        0.313   1.578   0.009  0.00  0.00    +0.044 C 
ATOM     21  C   LIG    1        0.154   0.080  -0.025  0.00  0.00    -0.043 A 
ATOM     22  C   LIG    1        0.155  -0.588  -1.233  0.00  0.00    +0.004 A 
ATOM     23  C   LIG    1        0.009  -1.963  -1.266  0.00  0.00    +0.000 A 
ATOM     24  C   LIG    1       -0.137  -2.677  -0.090  0.00  0.00    +0.001 A 
ATOM     25  C   LIG    1       -0.139  -2.020   1.123  0.00  0.00    +0.009 A 
ATOM     26  C   LIG    1        0.013  -0.635   1.163  0.00  0.00    -0.015 A 
ENDBRANCH   1  26
TORSDOF 5
