REMARK  Name = ZINC26673721
REMARK                            x       y       z     vdW  Elec       q    Type
REMARK                         _______ _______ _______ _____ _____    ______ ____
ROOT
ATOM      1  C   LIG    1       -0.329   1.215   0.786  0.00  0.00    +0.001 A 
ATOM      2  C   LIG    1        0.805   1.988   0.975  0.00  0.00    +0.001 A 
ATOM      3  C   LIG    1        2.060   1.416   0.901  0.00  0.00    +0.015 A 
ATOM      4  C   LIG    1        2.192   0.059   0.641  0.00  0.00    +0.017 A 
ATOM      5  C   LIG    1        1.044  -0.727   0.461  0.00  0.00    +0.014 A 
ATOM      6  C   LIG    1        1.178  -2.176   0.219  0.00  0.00    +0.080 A 
ATOM      7  C   LIG    1        2.291  -2.921   0.512  0.00  0.00    +0.020 A 
ATOM      8  C   LIG    1        3.552  -2.366   1.125  0.00  0.00    +0.113 C 
ATOM      9  C   LIG    1        2.035  -4.237   0.142  0.00  0.00    +0.170 A 
ATOM     10  N   LIG    1        0.824  -4.302  -0.355  0.00  0.00    -0.161 NA
ATOM     11  N   LIG    1        0.257  -3.020  -0.322  0.00  0.00    -0.231 N 
ATOM     12  S   LIG    1        3.793  -0.667   0.531  0.00  0.00    -0.120 S 
ATOM     13  C   LIG    1       -0.216  -0.136   0.529  0.00  0.00    +0.011 A 
ENDROOT
BRANCH  11  14
ATOM     14  C   LIG    1       -1.025  -2.670  -0.765  0.00  0.00    +0.066 A 
ATOM     15  C   LIG    1       -1.202  -1.553  -1.570  0.00  0.00    +0.030 A 
ATOM     16  C   LIG    1       -2.468  -1.211  -2.006  0.00  0.00    +0.030 A 
ATOM     17  C   LIG    1       -3.558  -1.980  -1.641  0.00  0.00    +0.105 A 
ATOM     18  C   LIG    1       -3.384  -3.093  -0.839  0.00  0.00    +0.030 A 
ATOM     19  C   LIG    1       -2.121  -3.444  -0.406  0.00  0.00    +0.030 A 
BRANCH  17  20
ATOM     20  S   LIG    1       -5.170  -1.539  -2.197  0.00  0.00    +0.056 S 
ATOM     21  O   LIG    1       -5.136  -0.148  -2.483  0.00  0.00    -0.153 OA
ATOM     22  O   LIG    1       -6.088  -2.104  -1.271  0.00  0.00    -0.153 OA
BRANCH  20  23
ATOM     23  N   LIG    1       -5.418  -2.312  -3.640  0.00  0.00    -0.204 NA
ATOM     24  H   LIG    1       -4.667  -2.504  -4.223  0.00  0.00    +0.144 HD
ATOM     25  H   LIG    1       -6.315  -2.573  -3.903  0.00  0.00    +0.144 HD
ENDBRANCH  20  23
ENDBRANCH  17  20
ENDBRANCH  11  14
BRANCH   9  26
ATOM     26  C   LIG    1        2.990  -5.393   0.290  0.00  0.00    +0.436 C 
ATOM     27  F   LIG    1        4.305  -4.928   0.187  0.00  0.00    -0.164 F 
ATOM     28  F   LIG    1        2.746  -6.330  -0.721  0.00  0.00    -0.164 F 
ATOM     29  F   LIG    1        2.804  -5.995   1.539  0.00  0.00    -0.164 F 
ENDBRANCH   9  26
TORSDOF 4
