REMARK  Name = ZINC19720693
REMARK                            x       y       z     vdW  Elec       q    Type
REMARK                         _______ _______ _______ _____ _____    ______ ____
ROOT
ATOM      1  C   LIG    1        3.425  -1.703  -0.337  0.00  0.00    +0.001 A 
ATOM      2  C   LIG    1        2.950  -3.004  -0.295  0.00  0.00    +0.002 A 
ATOM      3  C   LIG    1        1.599  -3.257  -0.165  0.00  0.00    +0.024 A 
ATOM      4  C   LIG    1        0.698  -2.203  -0.074  0.00  0.00    +0.045 A 
ATOM      5  C   LIG    1        1.181  -0.887  -0.116  0.00  0.00    +0.010 A 
ATOM      6  C   LIG    1        0.002  -0.004   0.002  0.00  0.00    +0.065 C 
ATOM      7  C   LIG    1       -1.151  -0.919   0.117  0.00  0.00    +0.253 C 
ATOM      8  O   LIG    1       -2.317  -0.591   0.238  0.00  0.00    -0.270 OA
ATOM      9  C   LIG    1       -0.017   1.377   0.010  0.00  0.00    +0.086 C 
ATOM     10  C   LIG    1        1.116   2.342   0.062  0.00  0.00    +0.218 C 
ATOM     11  N   LIG    1        0.793   3.624   0.056  0.00  0.00    -0.165 NA
ATOM     12  C   LIG    1       -0.491   4.030   0.006  0.00  0.00    +0.139 C 
ATOM     13  S   LIG    1       -1.098   5.631  -0.011  0.00  0.00    -0.026 S 
ATOM     14  S   LIG    1       -1.407   2.499  -0.049  0.00  0.00    -0.059 S 
ATOM     15  N   LIG    1       -0.686  -2.179   0.061  0.00  0.00    -0.256 N 
ATOM     16  C   LIG    1        2.546  -0.643  -0.248  0.00  0.00    +0.010 A 
ENDROOT
BRANCH  10  17
ATOM     17  O   LIG    1        2.272   1.971   0.108  0.00  0.00    -0.493 OA
ATOM     18  H   LIG    1        2.471   1.055   0.111  0.00  0.00    +0.294 HD
ENDBRANCH  10  17
BRANCH  15  19
ATOM     19  C   LIG    1       -1.529  -3.375   0.140  0.00  0.00    +0.234 C 
BRANCH  19  20
ATOM     20  C   LIG    1       -1.680  -3.789   1.581  0.00  0.00    +0.323 C 
ATOM     21  O   LIG    1       -1.139  -3.151   2.453  0.00  0.00    -0.249 OA
BRANCH  20  22
ATOM     22  O   LIG    1       -2.415  -4.867   1.895  0.00  0.00    -0.480 OA
ATOM     23  H   LIG    1       -2.834  -5.362   1.219  0.00  0.00    +0.295 HD
ENDBRANCH  20  22
ENDBRANCH  19  20
ENDBRANCH  15  19
TORSDOF 4
