REMARK  Name = ZINC14960644
REMARK                            x       y       z     vdW  Elec       q    Type
REMARK                         _______ _______ _______ _____ _____    ______ ____
ROOT
ATOM      1  C   LIG    1       -7.119   4.282  -3.855  0.00  0.00    -0.015 A 
ATOM      2  C   LIG    1       -5.861   3.894  -4.315  0.00  0.00    +0.010 A 
ATOM      3  C   LIG    1       -4.900   3.473  -3.420  0.00  0.00    +0.027 A 
ATOM      4  C   LIG    1       -5.188   3.423  -2.061  0.00  0.00    +0.069 A 
ATOM      5  C   LIG    1       -6.444   3.809  -1.599  0.00  0.00    +0.145 A 
ATOM      6  F   LIG    1       -6.720   3.765  -0.278  0.00  0.00    -0.204 F 
ATOM      7  C   LIG    1       -7.406   4.237  -2.492  0.00  0.00    +0.048 A 
ENDROOT
BRANCH   1  12
ATOM      8  C   LIG    1       -8.834   5.216  -7.072  0.00  0.00    +0.121 A 
ATOM      9  C   LIG    1      -10.085   5.600  -6.608  0.00  0.00    +0.045 A 
ATOM     10  C   LIG    1      -10.368   5.555  -5.256  0.00  0.00    +0.004 A 
ATOM     11  C   LIG    1       -9.411   5.123  -4.360  0.00  0.00    +0.009 A 
ATOM     12  C   LIG    1       -8.151   4.741  -4.817  0.00  0.00    -0.014 A 
ATOM     13  C   LIG    1       -7.866   4.786  -6.179  0.00  0.00    +0.054 A 
BRANCH   8  15
ATOM     14  C   LIG    1       -9.605   5.714  -9.265  0.00  0.00    +0.277 C 
ATOM     15  O   LIG    1       -8.560   5.261  -8.402  0.00  0.00    -0.495 OA
ENDBRANCH   8  15
ENDBRANCH   1  12
BRANCH   4  16
ATOM     16  N   LIG    1       -4.215   2.990  -1.157  0.00  0.00    -0.279 N 
ATOM     17  H   LIG    1       -4.479   2.612  -0.304  0.00  0.00    +0.155 HD
ATOM     18  C   LIG    1       -2.908   3.099  -1.470  0.00  0.00    +0.245 C 
ATOM     19  O   LIG    1       -2.573   3.663  -2.494  0.00  0.00    -0.270 OA
BRANCH  18  20
ATOM     20  C   LIG    1       -1.884   2.532  -0.571  0.00  0.00    +0.025 C 
ATOM     21  C   LIG    1       -0.562   2.667  -0.738  0.00  0.00    +0.044 C 
ATOM     22  C   LIG    1        0.188   1.961   0.368  0.00  0.00    +0.043 C 
ATOM     23  C   LIG    1       -0.862   1.730   1.478  0.00  0.00    +0.010 C 
ATOM     24  C   LIG    1       -2.181   1.718   0.667  0.00  0.00    +0.041 C 
BRANCH  21  25
ATOM     25  C   LIG    1        0.074   3.403  -1.847  0.00  0.00    +0.333 C 
ATOM     26  O   LIG    1        0.598   2.794  -2.758  0.00  0.00    -0.245 OA
BRANCH  25  27
ATOM     27  O   LIG    1        0.073   4.751  -1.850  0.00  0.00    -0.477 OA
ATOM     28  H   LIG    1       -0.331   5.220  -1.147  0.00  0.00    +0.295 HD
ENDBRANCH  25  27
ENDBRANCH  21  25
ENDBRANCH  18  20
ENDBRANCH   4  16
TORSDOF 6
