REMARK  Name = ZINC00001931
REMARK                            x       y       z     vdW  Elec       q    Type
REMARK                         _______ _______ _______ _____ _____    ______ ____
ROOT
ATOM      1  C   LIG    1       -2.152  -0.548   3.508  0.00  0.00    +0.124 A 
ATOM      2  C   LIG    1       -1.761   0.324   4.514  0.00  0.00    +0.046 A 
ATOM      3  C   LIG    1       -2.601   0.562   5.585  0.00  0.00    +0.004 A 
ATOM      4  C   LIG    1       -3.829  -0.069   5.655  0.00  0.00    +0.001 A 
ATOM      5  C   LIG    1       -4.221  -0.938   4.654  0.00  0.00    +0.007 A 
ATOM      6  C   LIG    1       -3.387  -1.175   3.578  0.00  0.00    -0.001 A 
ENDROOT
BRANCH   1   7
ATOM      7  O   LIG    1       -1.328  -0.783   2.454  0.00  0.00    -0.494 OA
BRANCH   7   8
ATOM      8  C   LIG    1       -0.071  -0.103   2.448  0.00  0.00    +0.210 C 
BRANCH   8   9
ATOM      9  C   LIG    1        0.713  -0.491   1.192  0.00  0.00    -0.038 C 
BRANCH   9  11
ATOM     10  C   LIG    1       -0.018   1.465   0.010  0.00  0.00    -0.096 C 
ATOM     11  N   LIG    1        0.002  -0.004   0.002  0.00  0.00    +0.378 N 
ATOM     12  H   LIG    1       -0.945  -0.353   0.009  0.00  0.00    -0.082 HD
ATOM     13  C   LIG    1        0.690  -0.478  -1.207  0.00  0.00    -0.096 C 
ENDBRANCH   9  11
ENDBRANCH   8   9
ENDBRANCH   7   8
ENDBRANCH   1   7
BRANCH   6  14
ATOM     14  C   LIG    1       -3.817  -2.118   2.484  0.00  0.00    +0.074 C 
BRANCH  14  15
ATOM     15  C   LIG    1       -3.266  -3.493   2.761  0.00  0.00    -0.043 A 
ATOM     16  C   LIG    1       -2.024  -3.851   2.272  0.00  0.00    +0.004 A 
ATOM     17  C   LIG    1       -1.518  -5.112   2.525  0.00  0.00    +0.000 A 
ATOM     18  C   LIG    1       -2.254  -6.015   3.269  0.00  0.00    +0.000 A 
ATOM     19  C   LIG    1       -3.496  -5.657   3.760  0.00  0.00    +0.000 A 
ATOM     20  C   LIG    1       -4.000  -4.394   3.509  0.00  0.00    +0.004 A 
ENDBRANCH  14  15
ENDBRANCH   6  14
TORSDOF 6
