REMARK  Name = ZINC26575647
REMARK                            x       y       z     vdW  Elec       q    Type
REMARK                         _______ _______ _______ _____ _____    ______ ____
ROOT
ATOM      1  C   LIG    1        2.067   1.167   3.766  0.00  0.00    -0.011 C 
ATOM      2  C   LIG    1        1.366   1.645   2.493  0.00  0.00    -0.043 C 
ATOM      3  C   LIG    1        2.140   1.153   1.268  0.00  0.00    +0.131 C 
ATOM      4  C   LIG    1        1.423   1.617  -0.003  0.00  0.00    +0.168 C 
ATOM      5  C   LIG    1       -0.013   1.086   0.008  0.00  0.00    +0.128 C 
ATOM      6  C   LIG    1       -0.725   1.580   1.269  0.00  0.00    -0.048 C 
ATOM      7  N   LIG    1       -0.001   1.110   2.458  0.00  0.00    +0.384 N 
ATOM      8  H   LIG    1       -0.547   1.439   3.354  0.00  0.00    -0.085 HD
ATOM      9  H   LIG    1        0.036   0.011   2.433  0.00  0.00    -0.085 HD
ENDROOT
BRANCH   3  10
ATOM     10  O   LIG    1        3.464   1.691   1.293  0.00  0.00    -0.391 OA
ATOM     11  H   LIG    1        4.172   1.446   0.488  0.00  0.00    +0.210 HD
ENDBRANCH   3  10
BRANCH   4  12
ATOM     12  O   LIG    1        2.111   1.112  -1.150  0.00  0.00    -0.387 OA
ATOM     13  H   LIG    1        1.740   1.343  -2.159  0.00  0.00    +0.210 HD
ENDBRANCH   4  12
BRANCH   5  14
ATOM     14  O   LIG    1       -0.705   1.560  -1.149  0.00  0.00    -0.391 OA
ATOM     15  H   LIG    1       -1.756   1.280  -1.313  0.00  0.00    +0.210 HD
ENDBRANCH   5  14
TORSDOF 3
