REMARK  Name = ZINC17782150
REMARK                            x       y       z     vdW  Elec       q    Type
REMARK                         _______ _______ _______ _____ _____    ______ ____
ROOT
ATOM      1  C   LIG    1       -2.327  -2.680  -0.192  0.00  0.00    +0.126 A 
ATOM      2  C   LIG    1       -3.602  -2.188   0.093  0.00  0.00    +0.135 A 
ATOM      3  N   LIG    1       -4.472  -3.170  -0.124  0.00  0.00    -0.284 N 
ATOM      4  N   LIG    1       -3.770  -4.303  -0.550  0.00  0.00    -0.284 N 
ATOM      5  H   LIG    1       -4.163  -5.161  -0.776  0.00  0.00    +0.188 HD
ATOM      6  H   LIG    1       -5.433  -3.110  -0.007  0.00  0.00    +0.188 HD
ATOM      7  C   LIG    1       -2.474  -4.007  -0.597  0.00  0.00    +0.135 A 
ENDROOT
BRANCH   2   8
ATOM      8  N   LIG    1       -3.907  -0.902   0.526  0.00  0.00    -0.342 N 
ATOM      9  H   LIG    1       -4.829  -0.655   0.698  0.00  0.00    +0.144 HD
ATOM     10  H   LIG    1       -3.198  -0.253   0.656  0.00  0.00    +0.144 HD
ENDBRANCH   2   8
BRANCH   7  11
ATOM     11  N   LIG    1       -1.450  -4.867  -0.979  0.00  0.00    -0.342 N 
ATOM     12  H   LIG    1       -1.654  -5.777  -1.246  0.00  0.00    +0.144 HD
ATOM     13  H   LIG    1       -0.531  -4.556  -0.978  0.00  0.00    +0.144 HD
ENDBRANCH   7  11
BRANCH   1  14
ATOM     14  N   LIG    1       -1.128  -1.974  -0.095  0.00  0.00    -0.231 N 
ATOM     15  H   LIG    1       -0.283  -2.449  -0.106  0.00  0.00    +0.175 HD
BRANCH  14  23
ATOM     16  C   LIG    1       -0.018   1.409  -0.004  0.00  0.00    +0.033 C 
ATOM     17  C   LIG    1        1.149   2.102  -0.013  0.00  0.00    +0.053 C 
ATOM     18  C   LIG    1        2.378   1.415  -0.019  0.00  0.00    +0.179 C 
ATOM     19  C   LIG    1        2.400   0.007  -0.015  0.00  0.00    +0.053 C 
ATOM     20  C   LIG    1        1.236  -0.691  -0.006  0.00  0.00    +0.033 C 
ATOM     21  O   LIG    1        3.429   2.042  -0.027  0.00  0.00    -0.288 OA
ATOM     22  C   LIG    1        0.002  -0.004   0.000  0.00  0.00    +0.082 C 
ATOM     23  N   LIG    1       -1.144  -0.688   0.010  0.00  0.00    -0.182 NA
ENDBRANCH  14  23
ENDBRANCH   1  14
TORSDOF 4
