REMARK  Name = ZINC14959030
REMARK                            x       y       z     vdW  Elec       q    Type
REMARK                         _______ _______ _______ _____ _____    ______ ____
ROOT
ATOM      1  N   LIG    1        0.063  -2.547   2.812  0.00  0.00    -0.310 N 
ATOM      2  H   LIG    1        0.062  -1.921   3.552  0.00  0.00    +0.149 HD
ATOM      3  C   LIG    1        0.084  -3.873   3.051  0.00  0.00    +0.260 C 
ATOM      4  O   LIG    1        0.086  -4.659   2.121  0.00  0.00    -0.269 OA
ENDROOT
BRANCH   3   5
ATOM      5  C   LIG    1        0.103  -4.370   4.431  0.00  0.00    +0.102 A 
ATOM      6  C   LIG    1        0.119  -5.692   4.821  0.00  0.00    +0.032 A 
ATOM      7  C   LIG    1        0.139  -5.707   6.219  0.00  0.00    +0.020 A 
ATOM      8  C   LIG    1        0.125  -4.423   6.649  0.00  0.00    +0.083 A 
ATOM      9  N   LIG    1        0.104  -3.600   5.572  0.00  0.00    -0.357 N 
ATOM     10  H   LIG    1        0.091  -2.631   5.601  0.00  0.00    +0.165 HD
ENDBRANCH   3   5
BRANCH   1  11
ATOM     11  C   LIG    1        0.043  -2.052   1.433  0.00  0.00    +0.105 C 
BRANCH  11  12
ATOM     12  C   LIG    1        0.023  -0.522   1.442  0.00  0.00    +0.023 C 
BRANCH  12  13
ATOM     13  C   LIG    1        0.002  -0.004   0.002  0.00  0.00    +0.036 C 
BRANCH  13  17
ATOM     14  C   LIG    1       -0.056   4.267   0.025  0.00  0.00    +0.000 A 
ATOM     15  C   LIG    1        1.151   3.592   0.010  0.00  0.00    +0.000 A 
ATOM     16  C   LIG    1        1.169   2.210   0.003  0.00  0.00    +0.003 A 
ATOM     17  C   LIG    1       -0.018   1.503   0.010  0.00  0.00    -0.047 A 
ATOM     18  C   LIG    1       -1.225   2.178   0.020  0.00  0.00    +0.003 A 
ATOM     19  C   LIG    1       -1.244   3.560   0.032  0.00  0.00    +0.000 A 
ENDBRANCH  13  17
ENDBRANCH  12  13
ENDBRANCH  11  12
ENDBRANCH   1  11
TORSDOF 5
