REMARK  Name = ZINC19939212
REMARK                            x       y       z     vdW  Elec       q    Type
REMARK                         _______ _______ _______ _____ _____    ______ ____
ROOT
ATOM      1  C   LIG    1       -2.587   9.103  -2.497  0.00  0.00    +0.041 C 
ATOM      2  C   LIG    1       -2.568   7.585  -2.309  0.00  0.00    +0.068 C 
ATOM      3  C   LIG    1       -3.762   7.156  -1.454  0.00  0.00    +0.041 C 
ATOM      4  C   LIG    1       -2.639   6.896  -3.674  0.00  0.00    +0.070 C 
ATOM      5  C   LIG    1       -2.334   5.430  -3.520  0.00  0.00    -0.024 A 
ATOM      6  C   LIG    1       -1.736   4.933  -2.405  0.00  0.00    +0.022 A 
ATOM      7  C   LIG    1       -1.345   5.827  -1.255  0.00  0.00    +0.199 C 
ATOM      8  C   LIG    1       -1.460   3.564  -2.313  0.00  0.00    +0.128 A 
ATOM      9  N   LIG    1       -1.791   2.746  -3.300  0.00  0.00    -0.224 NA
ATOM     10  C   LIG    1       -2.379   3.194  -4.389  0.00  0.00    +0.113 A 
ATOM     11  S   LIG    1       -2.954   2.406  -5.873  0.00  0.00    -0.064 S 
ATOM     12  C   LIG    1       -3.586   3.828  -6.721  0.00  0.00    +0.080 A 
ATOM     13  C   LIG    1       -4.199   4.033  -7.948  0.00  0.00    +0.136 A 
ATOM     14  N   LIG    1       -4.556   5.275  -8.276  0.00  0.00    -0.220 NA
ATOM     15  C   LIG    1       -4.324   6.271  -7.442  0.00  0.00    +0.224 A 
ATOM     16  N   LIG    1       -3.747   6.114  -6.277  0.00  0.00    -0.234 NA
ATOM     17  C   LIG    1       -3.346   4.896  -5.848  0.00  0.00    +0.093 A 
ATOM     18  C   LIG    1       -2.688   4.553  -4.574  0.00  0.00    +0.037 A 
ATOM     19  O   LIG    1       -1.349   7.193  -1.668  0.00  0.00    -0.369 OA
ENDROOT
BRANCH   8  20
ATOM     20  N   LIG    1       -0.839   3.061  -1.178  0.00  0.00    -0.310 N 
ATOM     21  C   LIG    1        0.094   1.979  -1.524  0.00  0.00    +0.134 C 
ATOM     22  C   LIG    1        0.799   1.494  -0.255  0.00  0.00    +0.178 C 
ATOM     23  O   LIG    1       -0.181   1.079   0.700  0.00  0.00    -0.377 OA
ATOM     24  C   LIG    1       -1.107   2.108   1.060  0.00  0.00    +0.178 C 
ATOM     25  C   LIG    1       -1.831   2.599  -0.197  0.00  0.00    +0.134 C 
ENDBRANCH   8  20
BRANCH  13  26
ATOM     26  N   LIG    1       -4.435   2.974  -8.811  0.00  0.00    -0.330 N 
ATOM     27  H   LIG    1       -4.135   1.955  -8.526  0.00  0.00    +0.147 HD
BRANCH  26  28
ATOM     28  C   LIG    1       -5.084   3.212 -10.103  0.00  0.00    +0.084 C 
BRANCH  28  29
ATOM     29  C   LIG    1       -5.225   1.887 -10.855  0.00  0.00    -0.060 C 
BRANCH  29  30
ATOM     30  N   LIG    1       -5.876   2.126 -12.150  0.00  0.00    +0.384 N 
ATOM     31  H   LIG    1       -5.327   2.932 -12.658  0.00  0.00    -0.082 HD
ATOM     32  C   LIG    1       -7.267   2.566 -11.967  0.00  0.00    -0.050 C 
ATOM     33  C   LIG    1       -7.887   2.860 -13.336  0.00  0.00    +0.141 C 
ATOM     34  O   LIG    1       -7.792   1.693 -14.157  0.00  0.00    -0.383 OA
ATOM     35  C   LIG    1       -6.451   1.237 -14.356  0.00  0.00    +0.141 C 
ATOM     36  C   LIG    1       -5.816   0.926 -12.998  0.00  0.00    -0.050 C 
ENDBRANCH  29  30
ENDBRANCH  28  29
ENDBRANCH  26  28
ENDBRANCH  13  26
TORSDOF 5
