REMARK  Name = ZINC28218857
REMARK                            x       y       z     vdW  Elec       q    Type
REMARK                         _______ _______ _______ _____ _____    ______ ____
ROOT
ATOM      1  C   LIG    1        0.002  -0.004   0.002  0.00  0.00    -0.034 A 
ATOM      2  C   LIG    1       -0.017   1.378   0.010  0.00  0.00    +0.005 A 
ATOM      3  C   LIG    1        1.171   2.086   0.002  0.00  0.00    +0.004 A 
ATOM      4  C   LIG    1        2.377   1.411  -0.015  0.00  0.00    -0.047 A 
ATOM      5  C   LIG    1        2.396   0.029  -0.021  0.00  0.00    +0.004 A 
ATOM      6  C   LIG    1        1.208  -0.679  -0.013  0.00  0.00    +0.005 A 
ENDROOT
BRANCH   1   8
ATOM      7  C   LIG    1       -1.349  -1.663   1.256  0.00  0.00    +0.024 C 
ATOM      8  C   LIG    1       -1.293  -0.775   0.011  0.00  0.00    +0.124 C 
BRANCH   8   9
ATOM      9  C   LIG    1       -1.373  -1.636  -1.224  0.00  0.00    +0.312 C 
ATOM     10  O   LIG    1       -0.471  -1.625  -2.028  0.00  0.00    -0.250 OA
BRANCH   9  11
ATOM     11  O   LIG    1       -2.446  -2.416  -1.429  0.00  0.00    -0.480 OA
ATOM     12  H   LIG    1       -3.145  -2.425  -0.806  0.00  0.00    +0.295 HD
ENDBRANCH   9  11
ENDBRANCH   8   9
ENDBRANCH   1   8
BRANCH   4  13
ATOM     13  C   LIG    1        3.672   2.182  -0.024  0.00  0.00    +0.041 C 
BRANCH  13  14
ATOM     14  C   LIG    1        4.097   2.449  -1.469  0.00  0.00    +0.022 C 
ATOM     15  C   LIG    1        3.149   3.481  -2.131  0.00  0.00    +0.006 C 
ATOM     16  C   LIG    1        4.023   4.068  -3.267  0.00  0.00    +0.003 C 
ATOM     17  C   LIG    1        5.434   4.157  -2.651  0.00  0.00    +0.031 C 
ATOM     18  C   LIG    1        5.481   3.128  -1.508  0.00  0.00    +0.118 C 
BRANCH  18  19
ATOM     19  O   LIG    1        6.496   2.155  -1.767  0.00  0.00    -0.392 OA
ATOM     20  H   LIG    1        7.550   2.463  -1.829  0.00  0.00    +0.210 HD
ENDBRANCH  18  19
ENDBRANCH  13  14
ENDBRANCH   4  13
TORSDOF 6
