REMARK  Name = ZINC29053046
REMARK                            x       y       z     vdW  Elec       q    Type
REMARK                         _______ _______ _______ _____ _____    ______ ____
ROOT
ATOM      1  C   LIG    1       -0.653  -3.527   1.547  0.00  0.00    +0.061 A 
ATOM      2  C   LIG    1       -0.515  -3.438   2.935  0.00  0.00    +0.128 A 
ATOM      3  N   LIG    1        0.189  -4.358   3.571  0.00  0.00    -0.222 NA
ATOM      4  C   LIG    1        0.762  -5.358   2.914  0.00  0.00    +0.216 A 
ATOM      5  N   LIG    1        0.660  -5.486   1.601  0.00  0.00    -0.214 NA
ATOM      6  C   LIG    1       -0.035  -4.607   0.884  0.00  0.00    +0.088 A 
ENDROOT
BRANCH   6   7
ATOM      7  C   LIG    1       -0.152  -4.757  -0.585  0.00  0.00    +0.020 A 
ATOM      8  C   LIG    1        0.738  -4.094  -1.429  0.00  0.00    +0.013 A 
ATOM      9  C   LIG    1        0.624  -4.237  -2.796  0.00  0.00    +0.021 A 
ATOM     10  C   LIG    1       -0.371  -5.038  -3.332  0.00  0.00    +0.042 A 
ATOM     11 CL   LIG    1       -0.508  -5.213  -5.053  0.00  0.00    -0.083 Cl
ATOM     12  C   LIG    1       -1.258  -5.698  -2.499  0.00  0.00    +0.040 A 
ATOM     13  C   LIG    1       -1.151  -5.567  -1.129  0.00  0.00    +0.052 A 
ATOM     14 CL   LIG    1       -2.258  -6.402  -0.085  0.00  0.00    -0.083 Cl
ENDBRANCH   6   7
BRANCH   1  19
ATOM     15  C   LIG    1       -3.357   0.569   0.370  0.00  0.00    +0.065 C 
ATOM     16  C   LIG    1       -2.610  -0.737   0.285  0.00  0.00    +0.033 A 
ATOM     17  C   LIG    1       -2.438  -1.491  -0.819  0.00  0.00    +0.134 A 
ATOM     18  N   LIG    1       -1.720  -2.571  -0.487  0.00  0.00    -0.236 NA
ATOM     19  C   LIG    1       -1.431  -2.521   0.796  0.00  0.00    +0.142 A 
ATOM     20  N   LIG    1       -1.971  -1.379   1.313  0.00  0.00    -0.342 N 
ATOM     21  H   LIG    1       -1.914  -1.080   2.234  0.00  0.00    +0.167 HD
ENDBRANCH   1  19
BRANCH   4  22
ATOM     22  N   LIG    1        1.488  -6.296   3.625  0.00  0.00    -0.312 N 
ATOM     23  H   LIG    1        1.913  -7.034   3.160  0.00  0.00    +0.149 HD
BRANCH  22  24
ATOM     24  C   LIG    1        1.616  -6.176   5.079  0.00  0.00    +0.123 C 
BRANCH  24  25
ATOM     25  C   LIG    1        2.463  -7.333   5.614  0.00  0.00    +0.121 C 
BRANCH  25  26
ATOM     26  N   LIG    1        2.591  -7.213   7.069  0.00  0.00    -0.328 N 
ATOM     27  H   LIG    1        2.165  -6.475   7.533  0.00  0.00    +0.148 HD
BRANCH  26  28
ATOM     28  C   LIG    1        3.319  -8.153   7.780  0.00  0.00    +0.119 A 
ATOM     29  C   LIG    1        3.930  -9.206   7.102  0.00  0.00    +0.045 A 
ATOM     30  C   LIG    1        4.649 -10.133   7.808  0.00  0.00    +0.024 A 
ATOM     31  C   LIG    1        4.743  -9.987   9.200  0.00  0.00    +0.070 A 
ATOM     32  C   LIG    1        4.105  -8.908   9.814  0.00  0.00    +0.131 A 
ATOM     33  N   LIG    1        3.428  -8.035   9.096  0.00  0.00    -0.239 NA
BRANCH  31  34
ATOM     34  C   LIG    1        5.484 -10.932   9.981  0.00  0.00    +0.101 C 
ATOM     35  N   LIG    1        6.071 -11.682  10.600  0.00  0.00    -0.191 NA
ENDBRANCH  31  34
ENDBRANCH  26  28
ENDBRANCH  25  26
ENDBRANCH  24  25
ENDBRANCH  22  24
ENDBRANCH   4  22
TORSDOF 8
