REMARK  Name = ZINC14247102
REMARK                            x       y       z     vdW  Elec       q    Type
REMARK                         _______ _______ _______ _____ _____    ______ ____
ROOT
ATOM      1  C   LIG    1       -1.966  -4.290  -0.530  0.00  0.00    +0.037 A 
ATOM      2  C   LIG    1       -1.230  -4.874   0.502  0.00  0.00    +0.013 A 
ATOM      3  C   LIG    1       -1.138  -6.248   0.588  0.00  0.00    +0.006 A 
ATOM      4  C   LIG    1       -1.774  -7.046  -0.347  0.00  0.00    -0.032 A 
ATOM      5  C   LIG    1       -2.505  -6.473  -1.372  0.00  0.00    +0.006 A 
ATOM      6  C   LIG    1       -2.609  -5.101  -1.466  0.00  0.00    +0.013 A 
ENDROOT
BRANCH   1  11
ATOM      7  C   LIG    1        0.122   1.338  -1.813  0.00  0.00    +0.039 C 
ATOM      8  C   LIG    1        0.035  -0.189  -1.751  0.00  0.00    +0.133 C 
ATOM      9  C   LIG    1       -1.025  -0.599  -0.722  0.00  0.00    +0.139 C 
ATOM     10  N   LIG    1       -0.959  -2.058  -0.545  0.00  0.00    -0.293 N 
ATOM     11  C   LIG    1       -2.068  -2.818  -0.627  0.00  0.00    +0.247 C 
ATOM     12  O   LIG    1       -3.154  -2.294  -0.782  0.00  0.00    -0.270 OA
ATOM     13  C   LIG    1        0.355  -2.664  -0.275  0.00  0.00    +0.139 C 
ATOM     14  C   LIG    1        1.348  -2.152  -1.326  0.00  0.00    +0.133 C 
ATOM     15  C   LIG    1        2.761  -2.611  -0.960  0.00  0.00    +0.039 C 
ATOM     16  O   LIG    1        1.302  -0.724  -1.362  0.00  0.00    -0.371 OA
ENDBRANCH   1  11
BRANCH   4  17
ATOM     17  C   LIG    1       -1.669  -8.546  -0.247  0.00  0.00    +0.141 C 
BRANCH  17  18
ATOM     18  N   LIG    1       -2.767  -9.059   0.577  0.00  0.00    -0.186 NA
ATOM     19  H   LIG    1       -3.281  -8.452   1.132  0.00  0.00    +0.148 HD
BRANCH  18  20
ATOM     20  S   LIG    1       -3.129 -10.675   0.561  0.00  0.00    +0.059 S 
ATOM     21  O   LIG    1       -3.211 -11.059  -0.804  0.00  0.00    -0.153 OA
ATOM     22  O   LIG    1       -4.206 -10.858   1.470  0.00  0.00    -0.153 OA
BRANCH  20  23
ATOM     23  C   LIG    1       -1.745 -11.526   1.243  0.00  0.00    +0.107 A 
ATOM     24  C   LIG    1       -0.721 -11.952   0.417  0.00  0.00    +0.031 A 
ATOM     25  C   LIG    1        0.365 -12.619   0.949  0.00  0.00    +0.042 A 
ATOM     26  C   LIG    1        0.429 -12.862   2.311  0.00  0.00    +0.142 A 
ATOM     27  F   LIG    1        1.490 -13.515   2.832  0.00  0.00    -0.204 F 
ATOM     28  C   LIG    1       -0.598 -12.435   3.138  0.00  0.00    +0.078 A 
ATOM     29 CL   LIG    1       -0.520 -12.739   4.845  0.00  0.00    -0.081 Cl
ATOM     30  C   LIG    1       -1.681 -11.763   2.603  0.00  0.00    +0.051 A 
ENDBRANCH  20  23
ENDBRANCH  18  20
ENDBRANCH  17  18
ENDBRANCH   4  17
TORSDOF 5
