REMARK  Name = ZINC13980772
REMARK                            x       y       z     vdW  Elec       q    Type
REMARK                         _______ _______ _______ _____ _____    ______ ____
ROOT
ATOM      1  C   LIG    1        0.050  -2.682   2.491  0.00  0.00    +0.115 A 
ATOM      2  C   LIG    1        0.515  -2.166   3.688  0.00  0.00    +0.076 A 
ATOM      3  N   LIG    1        0.335  -3.153   4.628  0.00  0.00    -0.341 N 
ATOM      4  C   LIG    1       -0.220  -4.216   3.995  0.00  0.00    +0.114 A 
ATOM      5  H   LIG    1        0.563  -3.099   5.569  0.00  0.00    +0.167 HD
ATOM      6  N   LIG    1       -0.392  -3.931   2.735  0.00  0.00    -0.230 NA
ENDROOT
BRANCH   2   7
ATOM      7  C   LIG    1        1.089  -0.825   3.911  0.00  0.00    +0.003 A 
ATOM      8  C   LIG    1        2.034  -0.310   3.004  0.00  0.00    +0.012 A 
ATOM      9  C   LIG    1        2.576   0.920   3.188  0.00  0.00    +0.030 A 
ATOM     10  C   LIG    1        2.195   1.700   4.296  0.00  0.00    +0.089 A 
ATOM     11  C   LIG    1        1.243   1.193   5.217  0.00  0.00    +0.090 A 
ATOM     12  N   LIG    1        0.881   1.936   6.270  0.00  0.00    -0.252 NA
ATOM     13  C   LIG    1        1.411   3.127   6.440  0.00  0.00    +0.131 A 
ATOM     14  C   LIG    1        2.347   3.625   5.533  0.00  0.00    +0.131 A 
ATOM     15  N   LIG    1        2.719   2.915   4.492  0.00  0.00    -0.252 NA
ATOM     16  C   LIG    1        0.690  -0.079   5.008  0.00  0.00    +0.040 A 
ENDBRANCH   2   7
BRANCH   1  22
ATOM     17  C   LIG    1       -0.018   1.503   0.010  0.00  0.00    +0.065 C 
ATOM     18  C   LIG    1        0.002  -0.004   0.002  0.00  0.00    +0.039 A 
ATOM     19  C   LIG    1        0.005  -0.679  -1.204  0.00  0.00    +0.023 A 
ATOM     20  C   LIG    1        0.024  -2.067  -1.209  0.00  0.00    +0.004 A 
ATOM     21  C   LIG    1        0.039  -2.732   0.005  0.00  0.00    +0.030 A 
ATOM     22  C   LIG    1        0.035  -1.987   1.185  0.00  0.00    +0.092 A 
ATOM     23  N   LIG    1        0.022  -0.660   1.145  0.00  0.00    -0.250 NA
ENDBRANCH   1  22
BRANCH   4  24
ATOM     24  C   LIG    1       -0.587  -5.524   4.649  0.00  0.00    +0.020 C 
ATOM     25  C   LIG    1        0.555  -5.976   5.561  0.00  0.00    +0.018 C 
ATOM     26  C   LIG    1       -0.830  -6.582   3.571  0.00  0.00    +0.018 C 
ATOM     27  C   LIG    1       -1.860  -5.340   5.478  0.00  0.00    +0.018 C 
ENDBRANCH   4  24
TORSDOF 3
