REMARK  Name = ZINC34640412
REMARK                            x       y       z     vdW  Elec       q    Type
REMARK                         _______ _______ _______ _____ _____    ______ ____
ROOT
ATOM      1  C   LIG    1       -1.271  -0.764   0.010  0.00  0.00    +0.027 A 
ATOM      2  C   LIG    1       -1.607  -1.783  -0.831  0.00  0.00    +0.117 A 
ATOM      3  N   LIG    1       -2.843  -2.205  -0.495  0.00  0.00    -0.268 N 
ATOM      4  N   LIG    1       -3.297  -1.433   0.581  0.00  0.00    -0.171 NA
ATOM      5  C   LIG    1       -2.360  -0.568   0.898  0.00  0.00    +0.100 A 
ENDROOT
BRANCH   1  15
ATOM      6  C   LIG    1       -0.017   1.391   0.010  0.00  0.00    +0.009 A 
ATOM      7  C   LIG    1        1.164   2.095   0.002  0.00  0.00    +0.010 A 
ATOM      8  C   LIG    1        2.392   1.415  -0.013  0.00  0.00    +0.003 A 
ATOM      9  C   LIG    1        2.407   0.021  -0.021  0.00  0.00    -0.037 A 
ATOM     10  C   LIG    1        3.834  -0.470  -0.037  0.00  0.00    +0.042 C 
ATOM     11  C   LIG    1        4.723   0.781  -0.039  0.00  0.00    +0.064 C 
ATOM     12  C   LIG    1        1.220  -0.682  -0.013  0.00  0.00    +0.013 A 
ATOM     13  C   LIG    1        3.768   1.949  -0.023  0.00  0.00    +0.088 C 
ATOM     14  N   LIG    1        4.098   3.201  -0.020  0.00  0.00    -0.092 NA
ATOM     15  C   LIG    1        0.002  -0.004   0.002  0.00  0.00    -0.014 A 
BRANCH  14  16
ATOM     16  O   LIG    1        5.464   3.573  -0.031  0.00  0.00    -0.409 OA
ATOM     17  H   LIG    1        5.611   4.529  -0.027  0.00  0.00    +0.328 HD
ENDBRANCH  14  16
ENDBRANCH   1  15
BRANCH   5  18
ATOM     18  C   LIG    1       -2.429   0.437   1.986  0.00  0.00    +0.006 A 
ATOM     19  C   LIG    1       -1.288   0.791   2.711  0.00  0.00    +0.030 A 
ATOM     20  C   LIG    1       -1.397   1.730   3.716  0.00  0.00    +0.111 A 
ATOM     21  N   LIG    1       -2.558   2.291   3.994  0.00  0.00    -0.263 NA
ATOM     22  C   LIG    1       -3.659   1.986   3.334  0.00  0.00    +0.111 A 
ATOM     23  C   LIG    1       -3.638   1.061   2.310  0.00  0.00    +0.030 A 
ENDBRANCH   5  18
BRANCH   3  24
ATOM     24  C   LIG    1       -3.586  -3.286  -1.148  0.00  0.00    +0.171 C 
BRANCH  24  25
ATOM     25  C   LIG    1       -4.007  -4.319  -0.101  0.00  0.00    +0.179 C 
BRANCH  25  26
ATOM     26  O   LIG    1       -4.731  -5.374  -0.737  0.00  0.00    -0.393 OA
ATOM     27  H   LIG    1       -5.031  -6.066  -0.132  0.00  0.00    +0.209 HD
ENDBRANCH  25  26
ENDBRANCH  24  25
ENDBRANCH   3  24
TORSDOF 6
