REMARK  Name = ZINC28363953
REMARK                            x       y       z     vdW  Elec       q    Type
REMARK                         _______ _______ _______ _____ _____    ______ ____
ROOT
ATOM      1  C   LIG    1        2.926   0.752  -1.409  0.00  0.00    -0.004 C 
ATOM      2  C   LIG    1        1.927  -0.184  -2.094  0.00  0.00    +0.023 C 
ATOM      3  C   LIG    1        2.331  -0.371  -3.560  0.00  0.00    +0.108 C 
ATOM      4  N   LIG    1        3.725  -0.834  -3.610  0.00  0.00    -0.294 N 
ATOM      5  C   LIG    1        4.053  -1.952  -4.289  0.00  0.00    +0.302 C 
ATOM      6  O   LIG    1        5.217  -2.276  -4.397  0.00  0.00    -0.265 OA
ATOM      7  C   LIG    1        4.754  -0.057  -2.907  0.00  0.00    +0.108 C 
ATOM      8  C   LIG    1        4.322   0.128  -1.449  0.00  0.00    +0.023 C 
ENDROOT
BRANCH   5   9
ATOM      9  C   LIG    1        2.983  -2.790  -4.908  0.00  0.00    +0.303 C 
ATOM     10  N   LIG    1        3.297  -3.970  -5.478  0.00  0.00    -0.278 N 
ATOM     11  H   LIG    1        4.327  -4.352  -5.420  0.00  0.00    +0.155 HD
ATOM     12  O   LIG    1        1.831  -2.409  -4.898  0.00  0.00    -0.265 OA
BRANCH  10  13
ATOM     13  C   LIG    1        2.314  -4.709  -6.143  0.00  0.00    +0.037 A 
ATOM     14  C   LIG    1        2.649  -5.446  -7.276  0.00  0.00    +0.025 A 
ATOM     15  C   LIG    1        1.698  -6.173  -7.936  0.00  0.00    +0.033 A 
ATOM     16  C   LIG    1        0.381  -6.179  -7.473  0.00  0.00    +0.113 A 
ATOM     17  C   LIG    1        0.039  -5.439  -6.332  0.00  0.00    +0.161 A 
ATOM     18  O   LIG    1       -1.284  -5.636  -6.131  0.00  0.00    -0.409 OA
ATOM     19  C   LIG    1       -1.737  -6.455  -7.096  0.00  0.00    +0.394 A 
ATOM     20  N   LIG    1       -0.762  -6.786  -7.899  0.00  0.00    -0.175 NA
ATOM     21  C   LIG    1        1.011  -4.710  -5.667  0.00  0.00    +0.072 A 
BRANCH  19  22
ATOM     22  O   LIG    1       -3.017  -6.875  -7.218  0.00  0.00    -0.465 OA
ATOM     23  H   LIG    1       -3.662  -6.593  -6.600  0.00  0.00    +0.297 HD
ENDBRANCH  19  22
ENDBRANCH  10  13
ENDBRANCH   5   9
BRANCH   1  24
ATOM     24  C   LIG    1        2.506   0.969   0.046  0.00  0.00    +0.038 C 
BRANCH  24  31
ATOM     25  C   LIG    1        0.004   0.980   0.092  0.00  0.00    +0.006 A 
ATOM     26  C   LIG    1       -1.207   1.646   0.122  0.00  0.00    +0.038 A 
ATOM     27  C   LIG    1       -1.236   3.030   0.155  0.00  0.00    +0.123 A 
ATOM     28  F   LIG    1       -2.418   3.681   0.190  0.00  0.00    -0.205 F 
ATOM     29  C   LIG    1       -0.050   3.745   0.148  0.00  0.00    +0.038 A 
ATOM     30  C   LIG    1        1.159   3.078   0.113  0.00  0.00    +0.006 A 
ATOM     31  C   LIG    1        1.186   1.696   0.085  0.00  0.00    -0.047 A 
ENDBRANCH  24  31
ENDBRANCH   1  24
TORSDOF 5
