REMARK  Name = ZINC13835285
REMARK                            x       y       z     vdW  Elec       q    Type
REMARK                         _______ _______ _______ _____ _____    ______ ____
ROOT
ATOM      1  C   LIG    1       -0.018   1.461   0.010  0.00  0.00    +0.175 C 
ATOM      2  N   LIG    1        0.002  -0.004   0.002  0.00  0.00    -0.241 N 
ATOM      3  C   LIG    1       -1.168  -0.729   0.004  0.00  0.00    +0.213 A 
ATOM      4  S   LIG    1       -0.532  -2.399  -0.008  0.00  0.00    -0.007 S 
ATOM      5  C   LIG    1        1.207  -1.996  -0.015  0.00  0.00    +0.254 A 
ATOM      6  N   LIG    1       -2.410  -0.310   0.012  0.00  0.00    -0.098 NA
ATOM      7  N   LIG    1        1.191  -0.697  -0.014  0.00  0.00    -0.141 NA
ENDROOT
BRANCH   5   8
ATOM      8  S   LIG    1        2.593  -3.084  -0.027  0.00  0.00    +0.081 S 
ATOM      9  O   LIG    1        3.751  -2.265  -0.120  0.00  0.00    -0.151 OA
ATOM     10  O   LIG    1        2.302  -4.102  -0.974  0.00  0.00    -0.151 OA
BRANCH   8  11
ATOM     11  N   LIG    1        2.651  -3.819   1.456  0.00  0.00    -0.202 NA
ATOM     12  H   LIG    1        1.763  -4.305   1.578  0.00  0.00    +0.144 HD
ATOM     13  H   LIG    1        3.351  -4.462   1.651  0.00  0.00    +0.144 HD
ENDBRANCH   8  11
ENDBRANCH   5   8
BRANCH   6  14
ATOM     14  S   LIG    1       -3.654  -1.403   0.013  0.00  0.00    +0.170 S 
ATOM     15  O   LIG    1       -3.522  -2.102   1.243  0.00  0.00    -0.143 OA
ATOM     16  O   LIG    1       -3.534  -2.089  -1.226  0.00  0.00    -0.143 OA
BRANCH  14  17
ATOM     17  C   LIG    1       -5.162  -0.395   0.025  0.00  0.00    +0.542 C 
ATOM     18  F   LIG    1       -5.177   0.407   1.172  0.00  0.00    -0.149 F 
ATOM     19  F   LIG    1       -6.282  -1.232   0.027  0.00  0.00    -0.149 F 
ATOM     20  F   LIG    1       -5.188   0.419  -1.113  0.00  0.00    -0.149 F 
ENDBRANCH  14  17
ENDBRANCH   6  14
TORSDOF 4
