REMARK  Name = ZINC26735782
REMARK                            x       y       z     vdW  Elec       q    Type
REMARK                         _______ _______ _______ _____ _____    ______ ____
ROOT
ATOM      1  C   LIG    1        4.161   2.280   1.417  0.00  0.00    +0.221 C 
ENDROOT
BRANCH   1   2
ATOM      2  P   LIG    1        3.013   3.426   2.249  0.00  0.00    +0.343 P 
ATOM      3  O   LIG    1        1.593   2.817   2.257  0.00  0.00    -0.258 OA
BRANCH   2   4
ATOM      4  O   LIG    1        2.990   4.830   1.460  0.00  0.00    -0.323 OA
ATOM      5  H   LIG    1        2.399   5.489   1.848  0.00  0.00    +0.220 HD
ENDBRANCH   2   4
BRANCH   2   6
ATOM      6  O   LIG    1        3.482   3.660   3.702  0.00  0.00    -0.323 OA
ATOM      7  H   LIG    1        3.496   2.815   4.177  0.00  0.00    +0.220 HD
ENDBRANCH   2   6
ENDBRANCH   1   2
BRANCH   1   8
ATOM      8  P   LIG    1        5.836   3.000   1.406  0.00  0.00    +0.343 P 
ATOM      9  O   LIG    1        5.814   4.346   0.649  0.00  0.00    -0.258 OA
BRANCH   8  10
ATOM     10  O   LIG    1        6.809   2.028   0.701  0.00  0.00    -0.323 OA
ATOM     11  H   LIG    1        6.514   1.882  -0.212  0.00  0.00    +0.220 HD
ENDBRANCH   8  10
BRANCH   8  12
ATOM     12  O   LIG    1        6.325   3.243   2.921  0.00  0.00    -0.323 OA
ATOM     13  H   LIG    1        7.211   3.625   2.991  0.00  0.00    +0.220 HD
ENDBRANCH   8  12
ENDBRANCH   1   8
BRANCH   1  14
ATOM     14  C   LIG    1        3.696   2.049  -0.023  0.00  0.00    +0.064 C 
BRANCH  14  17
ATOM     15  C   LIG    1       -0.017   1.378   0.010  0.00  0.00    +0.020 A 
ATOM     16  C   LIG    1        1.185   2.070   0.002  0.00  0.00    +0.006 A 
ATOM     17  C   LIG    1        2.365   1.343  -0.013  0.00  0.00    -0.028 A 
ATOM     18  C   LIG    1        2.305  -0.038  -0.020  0.00  0.00    +0.114 A 
ATOM     19  N   LIG    1        1.144  -0.663  -0.013  0.00  0.00    -0.263 NA
ATOM     20  C   LIG    1        0.002  -0.004   0.002  0.00  0.00    +0.111 A 
ENDBRANCH  14  17
ENDBRANCH   1  14
TORSDOF 8
