REMARK  Name = ZINC36310635
REMARK                            x       y       z     vdW  Elec       q    Type
REMARK                         _______ _______ _______ _____ _____    ______ ____
ROOT
ATOM      1  C   LIG    1        4.740 -15.957  -8.079  0.00  0.00    +0.190 C 
ATOM      2  O   LIG    1        4.231 -16.573  -7.174  0.00  0.00    -0.292 OA
ENDROOT
BRANCH   1   3
ATOM      3  C   LIG    1        4.720 -14.451  -8.071  0.00  0.00    +0.305 C 
BRANCH   3   4
ATOM      4  O   LIG    1        4.046 -13.990  -6.898  0.00  0.00    -0.484 OA
BRANCH   4   8
ATOM      5  C   LIG    1        3.724  -9.904  -6.405  0.00  0.00    +0.121 A 
ATOM      6  C   LIG    1        3.190 -10.761  -5.455  0.00  0.00    +0.049 A 
ATOM      7  C   LIG    1        3.298 -12.129  -5.620  0.00  0.00    +0.049 A 
ATOM      8  C   LIG    1        3.939 -12.644  -6.736  0.00  0.00    +0.121 A 
ATOM      9  C   LIG    1        4.473 -11.786  -7.687  0.00  0.00    +0.049 A 
ATOM     10  C   LIG    1        4.362 -10.419  -7.524  0.00  0.00    +0.049 A 
BRANCH   5  11
ATOM     11  O   LIG    1        3.619  -8.558  -6.243  0.00  0.00    -0.492 OA
BRANCH  11  12
ATOM     12  C   LIG    1        2.950  -8.097  -5.067  0.00  0.00    +0.229 C 
BRANCH  12  13
ATOM     13  C   LIG    1        2.929  -6.567  -5.058  0.00  0.00    +0.041 C 
BRANCH  13  14
ATOM     14  C   LIG    1        2.213  -6.074  -3.800  0.00  0.00    +0.003 C 
BRANCH  14  15
ATOM     15  C   LIG    1        2.192  -4.544  -3.791  0.00  0.00    +0.000 C 
BRANCH  15  16
ATOM     16  C   LIG    1        1.476  -4.051  -2.532  0.00  0.00    +0.000 C 
BRANCH  16  17
ATOM     17  C   LIG    1        1.455  -2.521  -2.524  0.00  0.00    -0.000 C 
BRANCH  17  18
ATOM     18  C   LIG    1        0.739  -2.027  -1.265  0.00  0.00    -0.000 C 
BRANCH  18  19
ATOM     19  C   LIG    1        0.718  -0.497  -1.257  0.00  0.00    -0.000 C 
BRANCH  19  21
ATOM     20  C   LIG    1       -0.019   1.526   0.010  0.00  0.00    +0.004 C 
ATOM     21  C   LIG    1        0.002  -0.004   0.002  0.00  0.00    -0.003 C 
ENDBRANCH  19  21
ENDBRANCH  18  19
ENDBRANCH  17  18
ENDBRANCH  16  17
ENDBRANCH  15  16
ENDBRANCH  14  15
ENDBRANCH  13  14
ENDBRANCH  12  13
ENDBRANCH  11  12
ENDBRANCH   5  11
ENDBRANCH   4   8
ENDBRANCH   3   4
ENDBRANCH   1   3
BRANCH   1  22
ATOM     22  C   LIG    1        5.397 -16.696  -9.217  0.00  0.00    +0.199 C 
BRANCH  22  23
ATOM     23  N   LIG    1        5.284 -18.139  -8.993  0.00  0.00    -0.339 N 
ATOM     24  C   LIG    1        6.233 -18.905  -8.402  0.00  0.00    +0.102 A 
ATOM     25  C   LIG    1        5.813 -20.201  -8.348  0.00  0.00    +0.084 A 
ATOM     26  C   LIG    1        4.474 -20.231  -8.967  0.00  0.00    +0.015 A 
ATOM     27  C   LIG    1        3.545 -21.234  -9.207  0.00  0.00    +0.025 A 
ATOM     28  C   LIG    1        2.333 -20.913  -9.817  0.00  0.00    +0.060 A 
ATOM     29  C   LIG    1        2.068 -19.588 -10.194  0.00  0.00    +0.017 A 
ATOM     30  C   LIG    1        2.983 -18.605  -9.963  0.00  0.00    +0.027 A 
ATOM     31  C   LIG    1        4.197 -18.905  -9.346  0.00  0.00    +0.050 A 
BRANCH  28  32
ATOM     32  C   LIG    1        1.335 -21.966 -10.073  0.00  0.00    +0.337 C 
ATOM     33  O   LIG    1        0.275 -21.685 -10.615  0.00  0.00    -0.245 OA
BRANCH  32  34
ATOM     34  O   LIG    1        1.566 -23.121  -9.744  0.00  0.00    -0.477 OA
ATOM     35  H   LIG    1        2.378 -23.336  -9.329  0.00  0.00    +0.295 HD
ENDBRANCH  32  34
ENDBRANCH  28  32
BRANCH  25  36
ATOM     36  C   LIG    1        6.548 -21.341  -7.786  0.00  0.00    +0.341 C 
ATOM     37  O   LIG    1        6.053 -22.451  -7.804  0.00  0.00    -0.245 OA
BRANCH  36  38
ATOM     38  O   LIG    1        7.771 -21.157  -7.251  0.00  0.00    -0.464 OA
ATOM     39  C   LIG    1        8.429 -22.310  -6.722  0.00  0.00    +0.280 C 
ENDBRANCH  36  38
ENDBRANCH  25  36
ENDBRANCH  22  23
ENDBRANCH   1  22
TORSDOF 19
