REMARK  Name = ZINC18230030
REMARK                            x       y       z     vdW  Elec       q    Type
REMARK                         _______ _______ _______ _____ _____    ______ ____
ROOT
ATOM      1  C   LIG    1       -0.017   1.375   0.010  0.00  0.00    +0.001 A 
ATOM      2  C   LIG    1        1.172   2.089   0.002  0.00  0.00    +0.002 A 
ATOM      3  C   LIG    1        2.385   1.433  -0.013  0.00  0.00    +0.026 A 
ATOM      4  C   LIG    1        2.424   0.044  -0.021  0.00  0.00    +0.050 A 
ATOM      5  C   LIG    1        1.220  -0.677  -0.013  0.00  0.00    +0.013 A 
ATOM      6  C   LIG    1        1.597  -2.105  -0.025  0.00  0.00    +0.069 A 
ATOM      7  C   LIG    1        2.994  -2.136  -0.038  0.00  0.00    +0.201 A 
ATOM      8  N   LIG    1        3.467  -0.867  -0.036  0.00  0.00    -0.325 N 
ATOM      9  H   LIG    1        4.408  -0.629  -0.044  0.00  0.00    +0.169 HD
ATOM     10  C   LIG    1        0.002  -0.004   0.002  0.00  0.00    +0.011 A 
ENDROOT
BRANCH   6  11
ATOM     11  C   LIG    1        0.726  -3.210  -0.022  0.00  0.00    +0.082 A 
ATOM     12  C   LIG    1        0.197  -3.893   1.166  0.00  0.00    +0.140 A 
ATOM     13  C   LIG    1       -0.662  -4.978   0.638  0.00  0.00    +0.029 A 
ATOM     14  C   LIG    1       -1.433  -5.961   1.249  0.00  0.00    +0.012 A 
ATOM     15  C   LIG    1       -2.144  -6.855   0.474  0.00  0.00    +0.001 A 
ATOM     16  C   LIG    1       -2.090  -6.773  -0.907  0.00  0.00    +0.002 A 
ATOM     17  C   LIG    1       -1.328  -5.803  -1.524  0.00  0.00    +0.026 A 
ATOM     18  C   LIG    1       -0.605  -4.891  -0.759  0.00  0.00    +0.049 A 
ATOM     19  N   LIG    1        0.218  -3.835  -1.121  0.00  0.00    -0.352 N 
ATOM     20  H   LIG    1        0.409  -3.576  -2.036  0.00  0.00    +0.166 HD
BRANCH  12  21
ATOM     21  N   LIG    1        0.435  -3.604   2.426  0.00  0.00    -0.028 NA
ATOM     22  O   LIG    1       -0.080  -4.265   3.310  0.00  0.00    -0.143 OA
ENDBRANCH  12  21
ENDBRANCH   6  11
BRANCH   7  23
ATOM     23  O   LIG    1        3.751  -3.254  -0.051  0.00  0.00    -0.493 OA
ATOM     24  H   LIG    1        3.963  -3.575  -0.938  0.00  0.00    +0.294 HD
ENDBRANCH   7  23
TORSDOF 3
