REMARK  Name = ZINC13755434
REMARK                            x       y       z     vdW  Elec       q    Type
REMARK                         _______ _______ _______ _____ _____    ______ ____
ROOT
ATOM      1  C   LIG    1        3.711   2.660   2.325  0.00  0.00    +0.063 A 
ATOM      2  C   LIG    1        4.950   3.233   2.248  0.00  0.00    +0.142 A 
ATOM      3  C   LIG    1        5.512   3.505   1.004  0.00  0.00    +0.145 A 
ATOM      4  N   LIG    1        4.882   3.225  -0.112  0.00  0.00    -0.232 NA
ATOM      5  C   LIG    1        3.670   2.664  -0.106  0.00  0.00    +0.180 A 
ATOM      6  N   LIG    1        3.040   2.384  -1.256  0.00  0.00    -0.187 NA
ATOM      7  C   LIG    1        1.846   1.832  -1.231  0.00  0.00    +0.281 A 
ATOM      8  C   LIG    1        1.220   1.531  -0.001  0.00  0.00    +0.311 A 
ATOM      9  O   LIG    1       -0.011   0.963   0.007  0.00  0.00    -0.262 OA
ATOM     10  N   LIG    1        1.823   1.804   1.136  0.00  0.00    -0.315 N 
ATOM     11  H   LIG    1        1.330   1.577   2.093  0.00  0.00    +0.169 HD
ATOM     12  C   LIG    1        3.040   2.361   1.125  0.00  0.00    +0.089 A 
ENDROOT
BRANCH   2  13
ATOM     13  N   LIG    1        5.691   3.565   3.485  0.00  0.00    +0.008 N 
ATOM     14  O   LIG    1        5.198   3.326   4.573  0.00  0.00    -0.130 OA
BRANCH  13  15
ATOM     15  O   LIG    1        6.795   4.076   3.416  0.00  0.00    -0.396 OA
ATOM     16  H   LIG    1        7.174   4.259   2.579  0.00  0.00    +0.329 HD
ENDBRANCH  13  15
ENDBRANCH   2  13
BRANCH   7  17
ATOM     17  O   LIG    1        1.212   1.550  -2.395  0.00  0.00    -0.489 OA
ATOM     18  H   LIG    1        0.361   1.157  -2.382  0.00  0.00    +0.294 HD
ENDBRANCH   7  17
TORSDOF 3
