REMARK  Name = ZINC17145551
REMARK                            x       y       z     vdW  Elec       q    Type
REMARK                         _______ _______ _______ _____ _____    ______ ____
ROOT
ATOM      1  C   LIG    1       -0.851   3.408  -0.088  0.00  0.00    +0.161 C 
ATOM      2  C   LIG    1       -1.217   2.101  -0.448  0.00  0.00    +0.230 C 
ATOM      3  O   LIG    1       -2.344   1.720  -0.704  0.00  0.00    -0.286 OA
ATOM      4  C   LIG    1        0.012   1.262  -0.457  0.00  0.00    +0.284 C 
ATOM      5  O   LIG    1        0.044   0.078  -0.725  0.00  0.00    -0.267 OA
ATOM      6  N   LIG    1        1.082   2.007  -0.133  0.00  0.00    -0.283 N 
ATOM      7  C   LIG    1        0.646   3.383   0.121  0.00  0.00    +0.125 C 
ENDROOT
BRANCH   7   8
ATOM      8  C   LIG    1        1.319   4.324  -0.845  0.00  0.00    -0.026 A 
ATOM      9  C   LIG    1        1.491   3.953  -2.165  0.00  0.00    +0.006 A 
ATOM     10  C   LIG    1        2.104   4.818  -3.052  0.00  0.00    +0.004 A 
ATOM     11  C   LIG    1        2.553   6.050  -2.616  0.00  0.00    -0.045 A 
ATOM     12  C   LIG    1        2.386   6.420  -1.295  0.00  0.00    +0.004 A 
ATOM     13  C   LIG    1        1.769   5.556  -0.409  0.00  0.00    +0.006 A 
BRANCH  11  14
ATOM     14  C   LIG    1        3.225   6.992  -3.582  0.00  0.00    +0.013 C 
ATOM     15  C   LIG    1        2.259   7.331  -4.720  0.00  0.00    +0.012 C 
ATOM     16  C   LIG    1        4.476   6.325  -4.158  0.00  0.00    +0.012 C 
ENDBRANCH  11  14
ENDBRANCH   7   8
BRANCH   1  17
ATOM     17  C   LIG    1       -1.688   4.497   0.042  0.00  0.00    +0.176 C 
ATOM     18  O   LIG    1       -1.169   5.725   0.260  0.00  0.00    -0.291 OA
BRANCH  17  23
ATOM     19  C   LIG    1       -7.384   3.808  -0.341  0.00  0.00    +0.044 C 
ATOM     20  C   LIG    1       -5.891   3.989  -0.241  0.00  0.00    -0.050 A 
ATOM     21  C   LIG    1       -5.155   3.180   0.609  0.00  0.00    +0.004 A 
ATOM     22  C   LIG    1       -3.789   3.340   0.706  0.00  0.00    +0.011 A 
ATOM     23  C   LIG    1       -3.147   4.321  -0.056  0.00  0.00    +0.018 A 
ATOM     24  C   LIG    1       -3.898   5.137  -0.907  0.00  0.00    +0.011 A 
ATOM     25  C   LIG    1       -5.263   4.962  -0.998  0.00  0.00    +0.004 A 
ENDBRANCH  17  23
ENDBRANCH   1  17
BRANCH   6  26
ATOM     26  C   LIG    1        2.462   1.522  -0.046  0.00  0.00    +0.135 C 
BRANCH  26  27
ATOM     27  C   LIG    1        3.131   1.671  -1.388  0.00  0.00    -0.016 C 
ATOM     28  C   LIG    1        4.255   2.338  -1.489  0.00  0.00    +0.005 C 
ENDBRANCH  26  27
ENDBRANCH   6  26
TORSDOF 6
