REMARK  Name = ZINC13766076
REMARK                            x       y       z     vdW  Elec       q    Type
REMARK                         _______ _______ _______ _____ _____    ______ ____
ROOT
ATOM      1  C   LIG    1       -3.581  -2.103  -2.574  0.00  0.00    +0.053 C 
ENDROOT
BRANCH   1   2
ATOM      2  C   LIG    1       -3.902  -0.657  -2.295  0.00  0.00    -0.027 C 
ATOM      3  C   LIG    1       -3.601  -0.132  -1.133  0.00  0.00    -0.031 C 
BRANCH   3   4
ATOM      4  C   LIG    1       -2.788  -0.919  -0.138  0.00  0.00    +0.027 C 
BRANCH   4   5
ATOM      5  C   LIG    1       -1.593  -0.082   0.321  0.00  0.00    +0.016 C 
BRANCH   5   6
ATOM      6  C   LIG    1       -0.768  -0.881   1.331  0.00  0.00    +0.072 C 
ATOM      7  C   LIG    1       -1.600  -1.123   2.592  0.00  0.00    +0.017 C 
BRANCH   6   8
ATOM      8  C   LIG    1        0.475  -0.107   1.690  0.00  0.00    +0.216 C 
ATOM      9  N   LIG    1        1.357  -0.620   2.570  0.00  0.00    -0.313 N 
ATOM     10  H   LIG    1        1.193  -1.487   2.972  0.00  0.00    +0.149 HD
ATOM     11  O   LIG    1        0.680   0.977   1.187  0.00  0.00    -0.276 OA
BRANCH   9  12
ATOM     12  C   LIG    1        2.565   0.133   2.919  0.00  0.00    +0.137 C 
BRANCH  12  13
ATOM     13  C   LIG    1        3.390  -0.667   3.929  0.00  0.00    +0.232 C 
ATOM     14  F   LIG    1        4.543   0.052   4.262  0.00  0.00    -0.247 F 
ENDBRANCH  12  13
ENDBRANCH   9  12
ENDBRANCH   6   8
ENDBRANCH   5   6
ENDBRANCH   4   5
ENDBRANCH   3   4
ENDBRANCH   1   2
BRANCH   1  16
ATOM     15  C   LIG    1       -4.813  -3.505  -4.148  0.00  0.00    -0.027 C 
ATOM     16  C   LIG    1       -4.827  -2.815  -3.035  0.00  0.00    -0.027 C 
BRANCH  15  17
ATOM     17  C   LIG    1       -3.515  -3.725  -4.882  0.00  0.00    +0.053 C 
BRANCH  17  19
ATOM     18  C   LIG    1       -3.078  -5.643  -6.329  0.00  0.00    -0.027 C 
ATOM     19  C   LIG    1       -3.316  -5.200  -5.119  0.00  0.00    -0.027 C 
BRANCH  18  20
ATOM     20  C   LIG    1       -2.828  -4.669  -7.452  0.00  0.00    +0.053 C 
BRANCH  20  22
ATOM     21  C   LIG    1       -1.508  -5.199  -9.436  0.00  0.00    -0.031 C 
ATOM     22  C   LIG    1       -1.533  -5.017  -8.139  0.00  0.00    -0.027 C 
BRANCH  21  23
ATOM     23  C   LIG    1       -2.733  -4.902 -10.262  0.00  0.00    +0.027 C 
BRANCH  23  24
ATOM     24  C   LIG    1       -2.356  -3.968 -11.414  0.00  0.00    +0.004 C 
BRANCH  24  25
ATOM     25  C   LIG    1       -3.600  -3.665 -12.253  0.00  0.00    +0.000 C 
BRANCH  25  27
ATOM     26  C   LIG    1       -4.467  -2.429 -14.243  0.00  0.00    +0.004 C 
ATOM     27  C   LIG    1       -3.223  -2.731 -13.405  0.00  0.00    -0.003 C 
ENDBRANCH  25  27
ENDBRANCH  24  25
ENDBRANCH  23  24
ENDBRANCH  21  23
ENDBRANCH  20  22
ENDBRANCH  18  20
ENDBRANCH  17  19
ENDBRANCH  15  17
ENDBRANCH   1  16
TORSDOF 16
