REMARK  Name = ZINC53164616
REMARK                            x       y       z     vdW  Elec       q    Type
REMARK                         _______ _______ _______ _____ _____    ______ ____
ROOT
ATOM      1  C   ALA A  1        6.152  -6.985  -3.328  0.00  0.00    +0.233 C 
ATOM      2  N   UNK A  2        5.728  -7.134  -2.058  0.00  0.00    -0.282 N 
ATOM      3  C   UNK A  2        6.565  -6.734  -0.922  0.00  0.00    +0.144 C 
ATOM      4  C   UNK A  2        5.730  -5.986   0.087  0.00  0.00    -0.023 A 
ATOM      5  C   UNK A  2        6.395  -5.320   1.109  0.00  0.00    +0.054 A 
ATOM      6  C   UNK A  2        5.686  -4.625   2.071  0.00  0.00    +0.162 A 
ATOM      7  C   UNK A  2        4.296  -4.594   2.013  0.00  0.00    +0.162 A 
ATOM      8  C   UNK A  2        3.640  -5.255   0.992  0.00  0.00    +0.053 A 
ATOM      9  C   UNK A  2        4.355  -5.948   0.022  0.00  0.00    -0.037 A 
ATOM     10  C   UNK A  2        3.571  -6.620  -1.074  0.00  0.00    +0.069 C 
ATOM     11  C   UNK A  2        4.402  -7.699  -1.754  0.00  0.00    +0.189 C 
ATOM     12  O   ALA A  1        5.402  -7.224  -4.250  0.00  0.00    -0.274 OA
ENDROOT
BRANCH   1  13
ATOM     13  CA  ALA A  1        7.560  -6.522  -3.603  0.00  0.00    +0.138 C 
ATOM     14  CB  ALA A  1        7.538  -5.054  -4.034  0.00  0.00    +0.034 C 
BRANCH  13  15
ATOM     15  N   ALA A  1        8.143  -7.338  -4.675  0.00  0.00    -0.294 NA
ATOM     16  H   ALA A  1        7.841  -7.015  -5.582  0.00  0.00    +0.123 HD
BRANCH  15  17
ATOM     17  C   UNK A  0        9.610  -7.356  -4.585  0.00  0.00    +0.164 C 
BRANCH  17  18
ATOM     18  C   UNK A  0       10.171  -6.147  -5.288  0.00  0.00    +0.324 C 
ATOM     19  O   UNK A  0        9.426  -5.353  -5.811  0.00  0.00    -0.249 OA
BRANCH  18  20
ATOM     20  O   UNK A  0       11.498  -5.953  -5.333  0.00  0.00    -0.464 OA
BRANCH  20  22
ATOM     21  C   UNK A  0       13.489  -4.736  -5.964  0.00  0.00    +0.048 C 
ATOM     22  C   UNK A  0       11.960  -4.787  -6.017  0.00  0.00    +0.229 C 
ENDBRANCH  20  22
ENDBRANCH  18  20
ENDBRANCH  17  18
BRANCH  17  23
ATOM     23  C   UNK A  0       10.146  -8.627  -5.247  0.00  0.00    +0.035 C 
BRANCH  23  24
ATOM     24  C   UNK A  0        9.677  -9.850  -4.458  0.00  0.00    +0.037 C 
BRANCH  24  25
ATOM     25  C   UNK A  0       10.206 -11.102  -5.110  0.00  0.00    -0.047 A 
ATOM     26  C   UNK A  0        9.467 -11.734  -6.093  0.00  0.00    +0.003 A 
ATOM     27  C   UNK A  0        9.952 -12.882  -6.691  0.00  0.00    +0.000 A 
ATOM     28  C   UNK A  0       11.176 -13.397  -6.307  0.00  0.00    +0.000 A 
ATOM     29  C   UNK A  0       11.915 -12.765  -5.325  0.00  0.00    +0.000 A 
ATOM     30  C   UNK A  0       11.432 -11.614  -4.730  0.00  0.00    +0.003 A 
ENDBRANCH  24  25
ENDBRANCH  23  24
ENDBRANCH  17  23
ENDBRANCH  15  17
ENDBRANCH  13  15
ENDBRANCH   1  13
BRANCH   6  31
ATOM     31  O   UNK A  2        6.344  -3.975   3.069  0.00  0.00    -0.491 OA
ATOM     32  C   UNK A  2        7.771  -4.051   3.063  0.00  0.00    +0.277 C 
ENDBRANCH   6  31
BRANCH   7  33
ATOM     33  O   UNK A  2        3.587  -3.919   2.956  0.00  0.00    -0.491 OA
ATOM     34  C   UNK A  2        2.163  -3.932   2.831  0.00  0.00    +0.277 C 
ENDBRANCH   7  33
BRANCH  11  35
ATOM     35  C   UNK A  2        3.727  -8.129  -3.031  0.00  0.00    +0.326 C 
ATOM     36  O   UNK A  2        4.172  -9.067  -3.670  0.00  0.00    -0.249 OA
BRANCH  35  37
ATOM     37  O   UNK A  2        2.736  -7.538  -3.425  0.00  0.00    -0.479 OA
ATOM     38  H   UNK A  2        2.394  -6.817  -2.935  0.00  0.00    +0.295 HD
ENDBRANCH  35  37
ENDBRANCH  11  35
TORSDOF 13
