REMARK  Name = ZINC25337747
REMARK                            x       y       z     vdW  Elec       q    Type
REMARK                         _______ _______ _______ _____ _____    ______ ____
ROOT
ATOM      1  C   LIG    1        1.028  -4.342  -1.733  0.00  0.00    -0.010 A 
ATOM      2  C   LIG    1        1.146  -2.985  -1.968  0.00  0.00    +0.029 A 
ATOM      3  C   LIG    1        0.605  -2.131  -1.026  0.00  0.00    +0.074 A 
ATOM      4  S   LIG    1       -0.056  -3.265   0.181  0.00  0.00    -0.091 S 
ATOM      5  C   LIG    1        0.384  -4.756  -0.585  0.00  0.00    +0.054 A 
ENDROOT
BRANCH   1   9
ATOM      6  C   LIG    1        2.612  -7.176  -4.483  0.00  0.00    +0.120 A 
ATOM      7  C   LIG    1        1.967  -7.612  -3.333  0.00  0.00    +0.046 A 
ATOM      8  C   LIG    1        1.453  -6.695  -2.440  0.00  0.00    +0.012 A 
ATOM      9  C   LIG    1        1.581  -5.331  -2.692  0.00  0.00    -0.017 A 
ATOM     10  C   LIG    1        2.223  -4.897  -3.849  0.00  0.00    +0.012 A 
ATOM     11  C   LIG    1        2.740  -5.817  -4.737  0.00  0.00    +0.046 A 
BRANCH   6  13
ATOM     12  C   LIG    1        3.768  -7.564  -6.524  0.00  0.00    +0.277 C 
ATOM     13  O   LIG    1        3.118  -8.081  -5.362  0.00  0.00    -0.495 OA
ENDBRANCH   6  13
ENDBRANCH   1   9
BRANCH   3  14
ATOM     14  C   LIG    1        0.585  -0.664  -1.018  0.00  0.00    +0.251 C 
ATOM     15  N   LIG    1        0.002  -0.004   0.002  0.00  0.00    -0.310 N 
ATOM     16  H   LIG    1       -0.459  -0.565   0.828  0.00  0.00    +0.149 HD
ATOM     17  O   LIG    1        1.095  -0.044  -1.932  0.00  0.00    -0.270 OA
BRANCH  15  18
ATOM     18  C   LIG    1       -0.018   1.461   0.010  0.00  0.00    +0.120 C 
BRANCH  18  19
ATOM     19  C   LIG    1       -0.734   1.954   1.269  0.00  0.00    +0.103 C 
BRANCH  19  20
ATOM     20  N   LIG    1       -0.754   3.423   1.277  0.00  0.00    -0.297 NA
ATOM     21  C   LIG    1        0.604   3.968   1.419  0.00  0.00    +0.112 C 
ATOM     22  C   LIG    1        0.544   5.496   1.363  0.00  0.00    +0.175 C 
ATOM     23  O   LIG    1       -0.339   5.971   2.382  0.00  0.00    -0.377 OA
ATOM     24  C   LIG    1       -1.671   5.461   2.274  0.00  0.00    +0.175 C 
ATOM     25  C   LIG    1       -1.633   3.932   2.340  0.00  0.00    +0.112 C 
ENDBRANCH  19  20
ENDBRANCH  18  19
ENDBRANCH  15  18
ENDBRANCH   3  14
TORSDOF 6
