REMARK  Name = ZINC24800189
REMARK                            x       y       z     vdW  Elec       q    Type
REMARK                         _______ _______ _______ _____ _____    ______ ____
ROOT
ATOM      1  N   LIG    1        7.603   1.508  -0.179  0.00  0.00    -0.199 N 
ATOM      2  H   LIG    1        8.401   2.057  -0.139  0.00  0.00    +0.175 HD
ENDROOT
BRANCH   1   5
ATOM      3  C   LIG    1        4.170   2.418  -0.713  0.00  0.00    +0.102 A 
ATOM      4  C   LIG    1        5.164   1.458  -0.434  0.00  0.00    +0.075 A 
ATOM      5  C   LIG    1        6.364   2.095  -0.419  0.00  0.00    +0.142 A 
ATOM      6  N   LIG    1        6.137   3.413  -0.679  0.00  0.00    -0.217 N 
ATOM      7  N   LIG    1        4.759   3.587  -0.864  0.00  0.00    -0.164 NA
BRANCH   6   8
ATOM      8  C   LIG    1        7.111   4.417  -0.754  0.00  0.00    +0.068 A 
ATOM      9  C   LIG    1        8.224   4.369   0.075  0.00  0.00    +0.030 A 
ATOM     10  C   LIG    1        9.183   5.359   0.000  0.00  0.00    +0.040 A 
ATOM     11  C   LIG    1        9.036   6.401  -0.901  0.00  0.00    +0.124 A 
ATOM     12  F   LIG    1        9.975   7.369  -0.972  0.00  0.00    -0.205 F 
ATOM     13  C   LIG    1        7.926   6.451  -1.728  0.00  0.00    +0.040 A 
ATOM     14  C   LIG    1        6.968   5.459  -1.660  0.00  0.00    +0.030 A 
ENDBRANCH   6   8
BRANCH   3  17
ATOM     15  C   LIG    1        0.411   2.555  -1.148  0.00  0.00    +0.008 A 
ATOM     16  C   LIG    1        1.703   3.034  -1.095  0.00  0.00    +0.018 A 
ATOM     17  C   LIG    1        2.719   2.157  -0.823  0.00  0.00    +0.039 A 
ATOM     18  S   LIG    1        1.835   0.617  -0.636  0.00  0.00    -0.095 S 
ATOM     19  C   LIG    1        0.186   1.235  -0.930  0.00  0.00    +0.046 A 
ENDBRANCH   3  17
ENDBRANCH   1   5
BRANCH   1  20
ATOM     20  S   LIG    1        7.714  -0.131   0.037  0.00  0.00    +0.074 S 
ATOM     21  O   LIG    1        6.732  -0.480   1.003  0.00  0.00    -0.150 OA
ATOM     22  O   LIG    1        9.093  -0.424   0.212  0.00  0.00    -0.150 OA
BRANCH  20  23
ATOM     23  C   LIG    1        7.226  -0.890  -1.476  0.00  0.00    +0.110 A 
ATOM     24  C   LIG    1        5.925  -1.328  -1.641  0.00  0.00    +0.041 A 
ATOM     25  C   LIG    1        5.542  -1.924  -2.829  0.00  0.00    +0.057 A 
ATOM     26  C   LIG    1        6.460  -2.081  -3.850  0.00  0.00    +0.024 A 
ATOM     27  C   LIG    1        7.760  -1.643  -3.685  0.00  0.00    +0.057 A 
ATOM     28  C   LIG    1        8.142  -1.043  -2.500  0.00  0.00    +0.041 A 
BRANCH  25  29
ATOM     29  C   LIG    1        4.124  -2.402  -3.008  0.00  0.00    +0.417 C 
ATOM     30  F   LIG    1        3.599  -2.781  -1.768  0.00  0.00    -0.166 F 
ATOM     31  F   LIG    1        4.109  -3.499  -3.876  0.00  0.00    -0.166 F 
ATOM     32  F   LIG    1        3.349  -1.370  -3.548  0.00  0.00    -0.166 F 
ENDBRANCH  25  29
BRANCH  27  33
ATOM     33  C   LIG    1        8.760  -1.815  -4.799  0.00  0.00    +0.417 C 
ATOM     34  F   LIG    1        9.825  -2.604  -4.352  0.00  0.00    -0.166 F 
ATOM     35  F   LIG    1        9.242  -0.561  -5.191  0.00  0.00    -0.166 F 
ATOM     36  F   LIG    1        8.143  -2.438  -5.888  0.00  0.00    -0.166 F 
ENDBRANCH  27  33
ENDBRANCH  20  23
ENDBRANCH   1  20
TORSDOF 7
