REMARK  Name = ZINC00001732
REMARK                            x       y       z     vdW  Elec       q    Type
REMARK                         _______ _______ _______ _____ _____    ______ ____
ROOT
ATOM      1  C   LIG    1       -0.176   1.664   0.331  0.00  0.00    +0.084 C 
ATOM      2  C   LIG    1       -0.092   0.166   0.195  0.00  0.00    +0.089 A 
ATOM      3  N   LIG    1       -0.146  -0.505  -0.925  0.00  0.00    -0.349 N 
ATOM      4  H   LIG    1       -0.263  -0.116  -1.806  0.00  0.00    +0.166 HD
ATOM      5  C   LIG    1       -0.016  -1.817  -0.666  0.00  0.00    +0.107 A 
ATOM      6  C   LIG    1        0.123  -1.964   0.661  0.00  0.00    +0.062 A 
ATOM      7  C   LIG    1        0.328  -3.246   1.425  0.00  0.00    +0.197 C 
ATOM      8  N   LIG    1        1.610  -3.134   2.143  0.00  0.00    -0.276 NA
ATOM      9  C   LIG    1        1.812  -2.222   3.030  0.00  0.00    +0.078 C 
ATOM     10  C   LIG    1        0.893  -1.166   3.465  0.00  0.00    +0.026 A 
ATOM     11  C   LIG    1        0.846  -0.857   4.833  0.00  0.00    +0.032 A 
ATOM     12  C   LIG    1        0.054   0.172   5.292  0.00  0.00    +0.042 A 
ATOM     13 CL   LIG    1        0.011   0.540   6.988  0.00  0.00    -0.084 Cl
ATOM     14  C   LIG    1       -0.707   0.915   4.404  0.00  0.00    +0.022 A 
ATOM     15  C   LIG    1       -0.685   0.614   3.058  0.00  0.00    +0.028 A 
ATOM     16  C   LIG    1        0.100  -0.431   2.582  0.00  0.00    +0.057 A 
ATOM     17  N   LIG    1        0.060  -0.717   1.214  0.00  0.00    -0.300 N 
ENDROOT
BRANCH   9  18
ATOM     18  C   LIG    1        3.136  -2.244   3.692  0.00  0.00    +0.036 A 
ATOM     19  C   LIG    1        3.496  -3.318   4.505  0.00  0.00    +0.013 A 
ATOM     20  C   LIG    1        4.731  -3.333   5.120  0.00  0.00    +0.001 A 
ATOM     21  C   LIG    1        5.614  -2.283   4.932  0.00  0.00    +0.003 A 
ATOM     22  C   LIG    1        5.266  -1.214   4.128  0.00  0.00    +0.039 A 
ATOM     23  C   LIG    1        4.034  -1.190   3.500  0.00  0.00    +0.133 A 
ATOM     24  F   LIG    1        3.696  -0.148   2.710  0.00  0.00    -0.205 F 
ENDBRANCH   9  18
TORSDOF 1
