REMARK  Name = ZINC14979644
REMARK                            x       y       z     vdW  Elec       q    Type
REMARK                         _______ _______ _______ _____ _____    ______ ____
ROOT
ATOM      1  N   LIG    1       -3.004  -1.778  -1.420  0.00  0.00    -0.368 N 
ATOM      2  H   LIG    1       -3.412  -2.030  -0.577  0.00  0.00    +0.161 HD
ATOM      3  C   LIG    1       -3.575  -2.106  -2.546  0.00  0.00    +0.125 C 
ENDROOT
BRANCH   3   4
ATOM      4  N   LIG    1       -2.996  -1.747  -3.741  0.00  0.00    -0.339 N 
ATOM      5  H   LIG    1       -3.421  -1.991  -4.578  0.00  0.00    +0.144 HD
ATOM      6  H   LIG    1       -2.163  -1.251  -3.747  0.00  0.00    +0.144 HD
ENDBRANCH   3   4
BRANCH   1   7
ATOM      7  C   LIG    1       -1.745  -1.028  -1.429  0.00  0.00    +0.119 C 
BRANCH   7   8
ATOM      8  C   LIG    1       -1.293  -0.775   0.011  0.00  0.00    +0.056 C 
BRANCH   8  15
ATOM      9  C   LIG    1       -0.017   1.378   0.010  0.00  0.00    +0.005 A 
ATOM     10  C   LIG    1        1.171   2.086   0.002  0.00  0.00    +0.014 A 
ATOM     11  C   LIG    1        2.378   1.411  -0.013  0.00  0.00    +0.013 A 
ATOM     12  I   LIG    1        4.178   2.482  -0.025  0.00  0.00    -0.044 I 
ATOM     13  C   LIG    1        2.396   0.028  -0.021  0.00  0.00    +0.014 A 
ATOM     14  C   LIG    1        1.208  -0.679  -0.013  0.00  0.00    +0.005 A 
ATOM     15  C   LIG    1        0.002  -0.004   0.002  0.00  0.00    -0.046 A 
ENDBRANCH   8  15
ENDBRANCH   7   8
ENDBRANCH   1   7
BRANCH   3  16
ATOM     16  S   LIG    1       -5.089  -3.007  -2.536  0.00  0.00    -0.093 S 
BRANCH  16  17
ATOM     17  C   LIG    1       -5.484  -3.222  -4.293  0.00  0.00    +0.077 C 
BRANCH  17  18
ATOM     18  C   LIG    1       -6.794  -4.000  -4.430  0.00  0.00    +0.017 C 
BRANCH  18  19
ATOM     19  C   LIG    1       -7.127  -4.182  -5.912  0.00  0.00    +0.058 C 
BRANCH  19  20
ATOM     20  C   LIG    1       -8.417  -4.949  -6.047  0.00  0.00    +0.059 A 
ATOM     21  C   LIG    1       -9.504  -4.553  -6.737  0.00  0.00    +0.107 A 
ATOM     22  N   LIG    1      -10.442  -5.541  -6.598  0.00  0.00    -0.351 N 
ATOM     23  H   LIG    1      -11.333  -5.546  -6.981  0.00  0.00    +0.166 HD
ATOM     24  C   LIG    1       -9.895  -6.506  -5.828  0.00  0.00    +0.196 A 
ATOM     25  N   LIG    1       -8.682  -6.147  -5.507  0.00  0.00    -0.241 NA
ENDBRANCH  19  20
ENDBRANCH  18  19
ENDBRANCH  17  18
ENDBRANCH  16  17
ENDBRANCH   3  16
TORSDOF 9
