REMARK  Name = ZINC13779561
REMARK                            x       y       z     vdW  Elec       q    Type
REMARK                         _______ _______ _______ _____ _____    ______ ____
ROOT
ATOM      1  C   LIG    1       -1.451   3.364   1.280  0.00  0.00    +0.016 C 
ATOM      2  C   LIG    1       -0.342   4.370   0.959  0.00  0.00    +0.069 C 
ATOM      3  S   LIG    1        0.874   4.347   2.311  0.00  0.00    -0.161 S 
ATOM      4  C   LIG    1        1.284   2.583   2.465  0.00  0.00    +0.069 C 
ATOM      5  C   LIG    1       -0.017   1.787   2.608  0.00  0.00    +0.016 C 
ATOM      6  C   LIG    1       -0.870   1.955   1.355  0.00  0.00    -0.033 C 
ENDROOT
BRANCH   6   7
ATOM      7  C   LIG    1       -2.014   0.940   1.385  0.00  0.00    -0.079 C 
BRANCH   7   8
ATOM      8  N   LIG    1       -2.806   1.078   0.150  0.00  0.00    +0.378 N 
ATOM      9  H   LIG    1       -3.064   2.064   0.022  0.00  0.00    -0.090 HD
ATOM     10  H   LIG    1       -3.655   0.518   0.214  0.00  0.00    -0.090 HD
ATOM     11  H   LIG    1       -2.258   0.771  -0.652  0.00  0.00    -0.090 HD
ENDBRANCH   7   8
ENDBRANCH   6   7
BRANCH   6  12
ATOM     12  C   LIG    1       -0.004   1.701   0.119  0.00  0.00    +0.125 C 
BRANCH  12  13
ATOM     13  C   LIG    1        0.519   0.289   0.154  0.00  0.00    +0.305 C 
ATOM     14  O   LIG    1        0.289  -0.417   1.107  0.00  0.00    -0.251 OA
BRANCH  13  15
ATOM     15  O   LIG    1        1.241  -0.185  -0.874  0.00  0.00    -0.481 OA
ATOM     16  H   LIG    1        1.419   0.363  -1.613  0.00  0.00    +0.295 HD
ENDBRANCH  13  15
ENDBRANCH  12  13
ENDBRANCH   6  12
TORSDOF 5
