REMARK  Name = ZINC27076225
REMARK                            x       y       z     vdW  Elec       q    Type
REMARK                         _______ _______ _______ _____ _____    ______ ____
ROOT
ATOM      1  C   LIG    1       -1.683   2.406   1.429  0.00  0.00    -0.028 A 
ATOM      2  C   LIG    1       -2.699   1.596   1.904  0.00  0.00    +0.006 A 
ATOM      3  C   LIG    1       -3.159   1.748   3.196  0.00  0.00    +0.009 A 
ATOM      4  C   LIG    1       -2.605   2.727   4.020  0.00  0.00    -0.017 A 
ATOM      5  C   LIG    1       -1.586   3.544   3.534  0.00  0.00    +0.009 A 
ATOM      6  C   LIG    1       -1.130   3.379   2.241  0.00  0.00    +0.006 A 
ENDROOT
BRANCH   4   7
ATOM      7  C   LIG    1       -3.099   2.899   5.407  0.00  0.00    -0.007 A 
ATOM      8  C   LIG    1       -2.201   2.945   6.469  0.00  0.00    +0.009 A 
ATOM      9  C   LIG    1       -2.665   3.111   7.759  0.00  0.00    +0.001 A 
ATOM     10  C   LIG    1       -4.023   3.221   8.005  0.00  0.00    +0.001 A 
ATOM     11  C   LIG    1       -4.927   3.172   6.964  0.00  0.00    +0.012 A 
ATOM     12  C   LIG    1       -4.476   3.010   5.657  0.00  0.00    +0.028 A 
BRANCH  12  13
ATOM     13  C   LIG    1       -5.444   2.956   4.535  0.00  0.00    +0.180 A 
ATOM     14  N   LIG    1       -6.757   3.047   4.622  0.00  0.00    -0.108 NA
ATOM     15  N   LIG    1       -7.238   2.956   3.430  0.00  0.00    -0.023 NA
ATOM     16  N   LIG    1       -6.273   2.810   2.591  0.00  0.00    -0.046 NA
ATOM     17  N   LIG    1       -5.155   2.811   3.233  0.00  0.00    -0.239 N 
ATOM     18  H   LIG    1       -4.256   2.721   2.842  0.00  0.00    +0.192 HD
ENDBRANCH  12  13
ENDBRANCH   4   7
BRANCH   1  19
ATOM     19  C   LIG    1       -1.182   2.232   0.018  0.00  0.00    +0.158 C 
BRANCH  19  25
ATOM     20  C   LIG    1        0.043   0.042   0.022  0.00  0.00    +0.088 A 
ATOM     21  N   LIG    1        1.288  -0.361   0.038  0.00  0.00    -0.346 N 
ATOM     22  H   LIG    1        1.518  -1.437   0.037  0.00  0.00    +0.167 HD
ATOM     23  C   LIG    1        2.102   0.694   0.053  0.00  0.00    +0.048 A 
ATOM     24  C   LIG    1        1.327   1.820   0.046  0.00  0.00    +0.148 A 
ATOM     25  N   LIG    1        0.014   1.386   0.027  0.00  0.00    -0.319 N 
BRANCH  23  26
ATOM     26  C   LIG    1        3.609   0.653   0.074  0.00  0.00    +0.052 C 
ATOM     27  C   LIG    1        4.098   0.633   1.524  0.00  0.00    +0.010 C 
ENDBRANCH  23  26
BRANCH  24  28
ATOM     28  C   LIG    1        1.794   3.209   0.058  0.00  0.00    +0.355 C 
ATOM     29  O   LIG    1        2.985   3.450   0.075  0.00  0.00    -0.243 OA
BRANCH  28  30
ATOM     30  O   LIG    1        0.901   4.221   0.049  0.00  0.00    -0.476 OA
ATOM     31  H   LIG    1       -0.017   4.035   0.035  0.00  0.00    +0.295 HD
ENDBRANCH  28  30
ENDBRANCH  24  28
BRANCH  20  32
ATOM     32  C   LIG    1       -1.166  -0.857   0.003  0.00  0.00    +0.072 C 
BRANCH  32  34
ATOM     33  C   LIG    1       -2.774  -2.073  -1.474  0.00  0.00    +0.004 C 
ATOM     34  C   LIG    1       -1.477  -1.262  -1.440  0.00  0.00    +0.004 C 
ENDBRANCH  32  34
ENDBRANCH  20  32
ENDBRANCH  19  25
ENDBRANCH   1  19
TORSDOF 9
