REMARK  Name = ZINC19371672
REMARK                            x       y       z     vdW  Elec       q    Type
REMARK                         _______ _______ _______ _____ _____    ______ ____
ROOT
ATOM      1  C   LIG    1        4.011  -1.331  -3.621  0.00  0.00    -0.006 C 
ENDROOT
BRANCH   1   2
ATOM      2  N   LIG    1        4.319  -2.720  -3.985  0.00  0.00    +0.390 N 
ATOM      3  H   LIG    1        4.945  -3.117  -3.300  0.00  0.00    -0.080 HD
ATOM      4  C   LIG    1        4.960  -2.749  -5.306  0.00  0.00    -0.058 C 
ATOM      5  C   LIG    1        5.299  -4.194  -5.678  0.00  0.00    +0.037 C 
ATOM      6  C   LIG    1        5.949  -4.226  -7.063  0.00  0.00    +0.022 C 
ATOM      7  N   LIG    1        4.067  -4.995  -5.695  0.00  0.00    -0.299 NA
ATOM      8  C   LIG    1        3.401  -4.955  -4.385  0.00  0.00    +0.069 C 
ATOM      9  C   LIG    1        3.077  -3.504  -4.024  0.00  0.00    -0.056 C 
ATOM     10  C   LIG    1        2.402  -3.458  -2.652  0.00  0.00    -0.012 C 
BRANCH   7  11
ATOM     11  C   LIG    1        4.343  -6.378  -6.104  0.00  0.00    +0.111 C 
BRANCH  11  12
ATOM     12  C   LIG    1        3.042  -7.099  -6.347  0.00  0.00    -0.019 C 
ATOM     13  C   LIG    1        2.824  -7.686  -7.498  0.00  0.00    +0.005 C 
ENDBRANCH  11  12
ENDBRANCH   7  11
ENDBRANCH   1   2
BRANCH   1  17
ATOM     14  C   LIG    1        2.748  -1.175   0.462  0.00  0.00    +0.037 A 
ATOM     15  C   LIG    1        2.021  -0.505  -0.523  0.00  0.00    +0.013 A 
ATOM     16  C   LIG    1        2.433  -0.560  -1.838  0.00  0.00    +0.003 A 
ATOM     17  C   LIG    1        3.566  -1.276  -2.182  0.00  0.00    -0.057 A 
ATOM     18  C   LIG    1        4.292  -1.943  -1.211  0.00  0.00    +0.003 A 
ATOM     19  C   LIG    1        3.893  -1.892   0.109  0.00  0.00    +0.013 A 
BRANCH  14  21
ATOM     20  N   LIG    1        1.013  -1.300   2.185  0.00  0.00    -0.298 N 
ATOM     21  C   LIG    1        2.312  -1.121   1.873  0.00  0.00    +0.247 C 
ATOM     22  O   LIG    1        3.125  -0.916   2.753  0.00  0.00    -0.270 OA
BRANCH  20  24
ATOM     23  C   LIG    1        0.548  -2.522   4.252  0.00  0.00    +0.024 C 
ATOM     24  C   LIG    1        0.565  -1.151   3.571  0.00  0.00    +0.104 C 
ENDBRANCH  20  24
BRANCH  20  25
ATOM     25  C   LIG    1        0.049  -1.643   1.136  0.00  0.00    +0.104 C 
ATOM     26  C   LIG    1       -0.773  -0.404   0.774  0.00  0.00    +0.024 C 
ENDBRANCH  20  25
ENDBRANCH  14  21
ENDBRANCH   1  17
BRANCH   1  27
ATOM     27  C   LIG    1        5.241  -0.480  -3.799  0.00  0.00    -0.053 A 
ATOM     28  C   LIG    1        6.481  -0.974  -3.438  0.00  0.00    +0.002 A 
ATOM     29  C   LIG    1        7.612  -0.195  -3.600  0.00  0.00    +0.004 A 
ATOM     30  C   LIG    1        7.506   1.079  -4.124  0.00  0.00    +0.045 A 
ATOM     31  C   LIG    1        6.263   1.577  -4.486  0.00  0.00    +0.120 A 
ATOM     32  C   LIG    1        5.130   0.791  -4.328  0.00  0.00    +0.048 A 
BRANCH  31  33
ATOM     33  O   LIG    1        6.155   2.830  -5.001  0.00  0.00    -0.495 OA
ATOM     34  C   LIG    1        7.364   3.580  -5.141  0.00  0.00    +0.277 C 
ENDBRANCH  31  33
ENDBRANCH   1  27
TORSDOF 9
