REMARK  Name = ZINC14949353
REMARK                            x       y       z     vdW  Elec       q    Type
REMARK                         _______ _______ _______ _____ _____    ______ ____
ROOT
ATOM      1  C   LIG    1        1.424   1.615  -0.004  0.00  0.00    +0.016 C 
ENDROOT
BRANCH   1   2
ATOM      2  C   LIG    1        2.114   1.219   1.276  0.00  0.00    +0.201 C 
ATOM      3  N   LIG    1        2.506   2.166   2.151  0.00  0.00    -0.303 N 
ATOM      4  C   LIG    1        2.177   3.579   1.923  0.00  0.00    +0.107 C 
ATOM      5  C   LIG    1        1.474   4.125   3.175  0.00  0.00    +0.019 C 
ATOM      6  C   LIG    1        2.358   3.877   4.399  0.00  0.00    +0.003 C 
ATOM      7  C   LIG    1        2.567   2.372   4.582  0.00  0.00    +0.019 C 
ATOM      8  C   LIG    1        3.277   1.805   3.349  0.00  0.00    +0.107 C 
ATOM      9  O   LIG    1        2.316   0.048   1.519  0.00  0.00    -0.277 OA
ENDBRANCH   1   2
BRANCH   1  13
ATOM     10  C   LIG    1       -2.784   2.611   0.162  0.00  0.00    +0.000 C 
ATOM     11  C   LIG    1       -2.301   1.704  -0.971  0.00  0.00    +0.000 C 
ATOM     12  C   LIG    1       -0.788   1.857  -1.139  0.00  0.00    +0.002 C 
ATOM     13  C   LIG    1       -0.089   1.462   0.164  0.00  0.00    -0.017 C 
ATOM     14  C   LIG    1       -0.571   2.370   1.297  0.00  0.00    +0.002 C 
ATOM     15  C   LIG    1       -2.084   2.217   1.464  0.00  0.00    +0.000 C 
ENDBRANCH   1  13
BRANCH   1  16
ATOM     16  N   LIG    1        1.886   0.750  -1.097  0.00  0.00    +0.386 N 
ATOM     17  H   LIG    1        1.648  -0.297  -0.861  0.00  0.00    -0.089 HD
ATOM     18  H   LIG    1        1.383   1.040  -2.031  0.00  0.00    -0.089 HD
ATOM     19  H   LIG    1        2.974   0.860  -1.218  0.00  0.00    -0.089 HD
ENDBRANCH   1  16
TORSDOF 3
