REMARK  Name = ZINC36126889
REMARK                            x       y       z     vdW  Elec       q    Type
REMARK                         _______ _______ _______ _____ _____    ______ ____
ROOT
ATOM      1  C   LIG    1       -0.019   1.531   0.011  0.00  0.00    +0.005 C 
ATOM      2  C   LIG    1        0.002  -0.004   0.002  0.00  0.00    -0.031 C 
ATOM      3  C   LIG    1        0.607  -0.467  -1.358  0.00  0.00    +0.002 C 
ATOM      4  C   LIG    1        0.552  -1.981  -1.336  0.00  0.00    +0.016 C 
ATOM      5  C   LIG    1        1.340  -2.564  -0.063  0.00  0.00    +0.040 C 
ATOM      6  N   LIG    1        0.909  -1.879   1.155  0.00  0.00    +0.399 N 
ATOM      7  H   LIG    1        1.485  -2.221   1.909  0.00  0.00    -0.082 HD
ATOM      8  H   LIG    1       -0.001  -2.310   1.354  0.00  0.00    -0.082 HD
ATOM      9  C   LIG    1        2.859  -2.544  -0.370  0.00  0.00    +0.006 C 
ATOM     10  C   LIG    1        3.624  -1.516   0.602  0.00  0.00    +0.009 C 
ATOM     11  C   LIG    1        3.376  -3.947  -0.135  0.00  0.00    +0.028 C 
ATOM     12  C   LIG    1        2.113  -4.601   0.606  0.00  0.00    +0.121 C 
ATOM     13  C   LIG    1        2.182  -6.088   0.089  0.00  0.00    +0.036 C 
ATOM     14  C   LIG    1        3.269  -6.137  -0.890  0.00  0.00    +0.001 C 
ATOM     15  C   LIG    1        3.171  -7.149  -2.058  0.00  0.00    +0.000 C 
ATOM     16  C   LIG    1        3.016  -8.524  -1.574  0.00  0.00    +0.031 C 
ATOM     17  C   LIG    1        3.031  -9.522  -2.756  0.00  0.00    -0.027 C 
ATOM     18  C   LIG    1        3.553  -9.127  -3.951  0.00  0.00    -0.065 C 
ATOM     19  C   LIG    1        4.243  -7.872  -4.255  0.00  0.00    -0.008 C 
ATOM     20  C   LIG    1        3.268  -7.081  -5.212  0.00  0.00    +0.016 C 
ATOM     21  C   LIG    1        5.589  -8.066  -4.883  0.00  0.00    +0.014 C 
ATOM     22  C   LIG    1        5.387  -8.968  -6.068  0.00  0.00    +0.032 C 
ATOM     23  C   LIG    1        4.916 -10.366  -5.662  0.00  0.00    +0.119 C 
ATOM     24  C   LIG    1        3.456 -10.233  -5.037  0.00  0.00    +0.062 C 
ATOM     25  C   LIG    1        4.394  -7.053  -2.931  0.00  0.00    +0.003 C 
ATOM     26  C   LIG    1        4.890  -5.629  -3.229  0.00  0.00    +0.005 C 
ATOM     27  C   LIG    1        4.945  -4.777  -1.963  0.00  0.00    +0.007 C 
ATOM     28  C   LIG    1        3.580  -4.757  -1.368  0.00  0.00    -0.023 C 
ATOM     29  C   LIG    1        2.557  -4.399  -2.498  0.00  0.00    +0.012 C 
ATOM     30  O   LIG    1        1.024  -3.969  -0.053  0.00  0.00    -0.388 OA
ATOM     31  C   LIG    1        0.721  -0.472   1.156  0.00  0.00    -0.075 C 
ENDROOT
BRANCH  23  32
ATOM     32  O   LIG    1        4.863 -11.291  -6.761  0.00  0.00    -0.391 OA
ATOM     33  H   LIG    1        4.566 -12.178  -6.515  0.00  0.00    +0.210 HD
ENDBRANCH  23  32
TORSDOF 1
