REMARK  Name = ZINC19735568
REMARK                            x       y       z     vdW  Elec       q    Type
REMARK                         _______ _______ _______ _____ _____    ______ ____
ROOT
ATOM      1  N   LIG    1        0.074   5.188   0.029  0.00  0.00    -0.318 N 
ATOM      2  C   LIG    1       -0.759   5.734   1.109  0.00  0.00    +0.087 C 
ATOM      3  C   LIG    1       -0.751   7.263   1.033  0.00  0.00    -0.063 C 
ATOM      4  N   LIG    1        0.632   7.748   1.142  0.00  0.00    +0.381 N 
ATOM      5  H   LIG    1        1.055   7.436   2.108  0.00  0.00    -0.086 HD
ATOM      6  H   LIG    1        0.641   8.846   1.075  0.00  0.00    -0.086 HD
ATOM      7  C   LIG    1        1.465   7.202   0.061  0.00  0.00    -0.063 C 
ATOM      8  C   LIG    1        1.457   5.674   0.137  0.00  0.00    +0.087 C 
ENDROOT
BRANCH   1  13
ATOM      9  C   LIG    1       -0.020   1.076   0.031  0.00  0.00    +0.021 A 
ATOM     10  C   LIG    1       -0.920   1.756  -0.780  0.00  0.00    +0.019 A 
ATOM     11  C   LIG    1       -0.894   3.139  -0.779  0.00  0.00    +0.053 A 
ATOM     12  I   LIG    1       -2.229   4.227  -1.973  0.00  0.00    -0.040 I 
ATOM     13  C   LIG    1        0.033   3.798   0.022  0.00  0.00    +0.134 A 
ATOM     14  N   LIG    1        0.878   3.113   0.778  0.00  0.00    -0.239 NA
ATOM     15  C   LIG    1        0.873   1.794   0.800  0.00  0.00    +0.113 A 
ENDBRANCH   1  13
TORSDOF 1
