REMARK  Name = ZINC29210986
REMARK                            x       y       z     vdW  Elec       q    Type
REMARK                         _______ _______ _______ _____ _____    ______ ____
ROOT
ATOM      1  C   LIG    1       -0.803   1.617   1.223  0.00  0.00    +0.003 C 
ATOM      2  C   LIG    1       -0.013   1.086   0.008  0.00  0.00    +0.011 C 
ATOM      3  C   LIG    1       -0.826   1.630  -1.186  0.00  0.00    +0.040 C 
ATOM      4  C   LIG    1       -1.515   2.872  -0.662  0.00  0.00    +0.001 A 
ATOM      5  C   LIG    1       -2.106   3.926  -1.343  0.00  0.00    +0.162 A 
ATOM      6  C   LIG    1       -2.687   4.974  -0.637  0.00  0.00    +0.159 A 
ATOM      7  C   LIG    1       -2.673   4.961   0.748  0.00  0.00    +0.049 A 
ATOM      8  C   LIG    1       -2.083   3.909   1.422  0.00  0.00    +0.008 A 
ATOM      9  C   LIG    1       -1.505   2.865   0.721  0.00  0.00    -0.039 A 
ENDROOT
BRANCH   5  10
ATOM     10  O   LIG    1       -2.117   3.936  -2.703  0.00  0.00    -0.503 OA
ATOM     11  H   LIG    1       -2.585   4.771  -3.244  0.00  0.00    +0.292 HD
ENDBRANCH   5  10
BRANCH   6  12
ATOM     12  O   LIG    1       -3.267   6.008  -1.304  0.00  0.00    -0.503 OA
ATOM     13  H   LIG    1       -3.277   6.016  -2.404  0.00  0.00    +0.292 HD
ENDBRANCH   6  12
BRANCH   1  14
ATOM     14  C   LIG    1        0.152   1.964   2.367  0.00  0.00    -0.071 C 
BRANCH  14  16
ATOM     15  C   LIG    1       -1.395   1.216   4.072  0.00  0.00    -0.097 C 
ATOM     16  N   LIG    1       -0.624   2.353   3.552  0.00  0.00    +0.376 N 
ATOM     17  H   LIG    1       -1.336   3.134   3.248  0.00  0.00    -0.083 HD
ATOM     18  C   LIG    1        0.248   2.917   4.590  0.00  0.00    -0.097 C 
ENDBRANCH  14  16
ENDBRANCH   1  14
TORSDOF 4
