REMARK  Name = ZINC28474936
REMARK                            x       y       z     vdW  Elec       q    Type
REMARK                         _______ _______ _______ _____ _____    ______ ____
ROOT
ATOM      1  C   LIG    1        4.244  -0.075  -0.193  0.00  0.00    +0.001 C 
ATOM      2  C   LIG    1        2.743  -0.353  -0.001  0.00  0.00    +0.008 C 
ATOM      3  C   LIG    1        2.560   1.166   0.097  0.00  0.00    -0.014 C 
ATOM      4  C   LIG    1        2.098   1.993   1.292  0.00  0.00    +0.024 C 
ATOM      5  C   LIG    1        1.272   1.977   0.002  0.00  0.00    +0.058 C 
ATOM      6  C   LIG    1        3.844   1.311  -0.727  0.00  0.00    +0.008 C 
ENDROOT
BRANCH   5   7
ATOM      7  C   LIG    1       -0.030   1.219   0.019  0.00  0.00    +0.310 C 
ATOM      8  O   LIG    1       -0.027   0.011  -0.001  0.00  0.00    -0.250 OA
BRANCH   7   9
ATOM      9  O   LIG    1       -1.194   1.887   0.052  0.00  0.00    -0.480 OA
ATOM     10  H   LIG    1       -1.197   2.823   0.067  0.00  0.00    +0.295 HD
ENDBRANCH   7   9
ENDBRANCH   5   7
BRANCH   5  11
ATOM     11  C   LIG    1        1.292   3.236  -0.867  0.00  0.00    -0.068 C 
BRANCH  11  12
ATOM     12  N   LIG    1        0.902   2.889  -2.240  0.00  0.00    +0.379 N 
ATOM     13  H   LIG    1        1.608   2.152  -2.647  0.00  0.00    -0.090 HD
ATOM     14  H   LIG    1       -0.112   2.463  -2.236  0.00  0.00    -0.090 HD
ATOM     15  H   LIG    1        0.916   3.795  -2.864  0.00  0.00    -0.090 HD
ENDBRANCH  11  12
ENDBRANCH   5  11
TORSDOF 4
