REMARK  Name = ZINC14959097
REMARK                            x       y       z     vdW  Elec       q    Type
REMARK                         _______ _______ _______ _____ _____    ______ ____
ROOT
ATOM      1  C   LIG    1       -1.810   4.326   0.847  0.00  0.00    +0.264 C 
ATOM      2  N   LIG    1       -3.107   4.109   0.553  0.00  0.00    -0.288 N 
ATOM      3  C   LIG    1       -3.629   2.741   0.506  0.00  0.00    +0.133 C 
ATOM      4  O   LIG    1       -1.399   5.463   0.986  0.00  0.00    -0.268 OA
ENDROOT
BRANCH   1  10
ATOM      5  C   LIG    1        1.220   4.499   1.468  0.00  0.00    +0.149 C 
ATOM      6  N   LIG    1        0.454   3.265   1.274  0.00  0.00    -0.346 N 
ATOM      7  C   LIG    1        0.954   2.007   1.332  0.00  0.00    +0.086 A 
ATOM      8  C   LIG    1       -0.050   1.126   1.107  0.00  0.00    +0.020 A 
ATOM      9  C   LIG    1       -1.223   1.857   0.894  0.00  0.00    +0.032 A 
ATOM     10  C   LIG    1       -0.892   3.192   0.998  0.00  0.00    +0.104 A 
ENDBRANCH   1  10
BRANCH   2  11
ATOM     11  C   LIG    1       -3.996   5.242   0.280  0.00  0.00    +0.196 C 
BRANCH  11  12
ATOM     12  C   LIG    1       -3.975   5.546  -1.160  0.00  0.00    -0.086 C 
ATOM     13  C   LIG    1       -3.959   5.788  -2.309  0.00  0.00    +0.005 C 
ENDBRANCH  11  12
ENDBRANCH   2  11
TORSDOF 3
