REMARK  Name = ZINC35305169
REMARK                            x       y       z     vdW  Elec       q    Type
REMARK                         _______ _______ _______ _____ _____    ______ ____
ROOT
ATOM      1  C   LIG    1       -1.238  -0.661   0.515  0.00  0.00    +0.164 A 
ATOM      2  C   LIG    1       -2.379   0.067   0.244  0.00  0.00    +0.057 A 
ATOM      3  C   LIG    1       -3.634  -0.550   0.323  0.00  0.00    -0.018 A 
ATOM      4  C   LIG    1       -3.724  -1.903   0.677  0.00  0.00    +0.044 A 
ATOM      5  C   LIG    1       -2.579  -2.620   0.945  0.00  0.00    +0.167 A 
ATOM      6  C   LIG    1       -1.335  -2.009   0.861  0.00  0.00    +0.189 A 
ENDROOT
BRANCH   3   7
ATOM      7  C   LIG    1       -4.851   0.218   0.038  0.00  0.00    +0.028 C 
ATOM      8  C   LIG    1       -6.050  -0.418  -0.057  0.00  0.00    +0.078 C 
ATOM      9  C   LIG    1       -7.415   0.144  -0.173  0.00  0.00    +0.275 C 
ATOM     10  N   LIG    1       -8.399  -0.725  -0.250  0.00  0.00    -0.168 NA
ATOM     11  C   LIG    1       -8.195  -2.032  -0.226  0.00  0.00    +0.102 C 
ATOM     12  O   LIG    1       -7.615   1.348  -0.197  0.00  0.00    -0.267 OA
ATOM     13  S   LIG    1       -6.420  -2.167  -0.085  0.00  0.00    -0.066 S 
BRANCH  11  14
ATOM     14  C   LIG    1       -9.194  -3.117  -0.302  0.00  0.00    +0.005 A 
ATOM     15  C   LIG    1       -8.784  -4.452  -0.255  0.00  0.00    +0.010 A 
ATOM     16  C   LIG    1       -9.723  -5.460  -0.327  0.00  0.00    +0.001 A 
ATOM     17  C   LIG    1      -11.066  -5.152  -0.446  0.00  0.00    +0.000 A 
ATOM     18  C   LIG    1      -11.479  -3.832  -0.494  0.00  0.00    +0.001 A 
ATOM     19  C   LIG    1      -10.552  -2.814  -0.417  0.00  0.00    +0.010 A 
ENDBRANCH  11  14
ENDBRANCH   3   7
BRANCH   1  21
ATOM     20  C   LIG    1        0.008   1.317   0.079  0.00  0.00    +0.277 C 
ATOM     21  O   LIG    1       -0.018  -0.065   0.439  0.00  0.00    -0.491 OA
ENDBRANCH   1  21
BRANCH   5  22
ATOM     22  N   LIG    1       -2.675  -4.050   1.318  0.00  0.00    +0.010 N 
ATOM     23  O   LIG    1       -3.757  -4.585   1.387  0.00  0.00    -0.130 OA
BRANCH  22  24
ATOM     24  O   LIG    1       -1.672  -4.681   1.554  0.00  0.00    -0.396 OA
ATOM     25  H   LIG    1       -0.833  -4.266   1.500  0.00  0.00    +0.329 HD
ENDBRANCH  22  24
ENDBRANCH   5  22
BRANCH   6  26
ATOM     26  O   LIG    1       -0.210  -2.724   1.121  0.00  0.00    -0.502 OA
ATOM     27  H   LIG    1        0.059  -2.708   2.050  0.00  0.00    +0.292 HD
ENDBRANCH   6  26
TORSDOF 6
