REMARK  Name = ZINC13862048
REMARK                            x       y       z     vdW  Elec       q    Type
REMARK                         _______ _______ _______ _____ _____    ______ ____
ROOT
ATOM      1  C   LIG    1        3.699  -0.689  -0.038  0.00  0.00    +0.170 A 
ATOM      2  N   LIG    1        3.744  -2.010  -0.051  0.00  0.00    -0.204 NA
ATOM      3  C   LIG    1        4.933  -2.582  -0.066  0.00  0.00    +0.185 A 
ATOM      4  S   LIG    1        5.977  -1.266  -0.063  0.00  0.00    +0.050 S 
ATOM      5  N   LIG    1        4.842  -0.033  -0.047  0.00  0.00    -0.187 NA
ENDROOT
BRANCH   1   9
ATOM      6  C   LIG    1       -0.017   1.379   0.010  0.00  0.00    +0.000 A 
ATOM      7  C   LIG    1        1.169   2.092   0.002  0.00  0.00    +0.001 A 
ATOM      8  C   LIG    1        2.377   1.426  -0.013  0.00  0.00    +0.011 A 
ATOM      9  C   LIG    1        2.402   0.033  -0.021  0.00  0.00    +0.020 A 
ATOM     10  C   LIG    1        1.205  -0.680  -0.013  0.00  0.00    +0.011 A 
ATOM     11  C   LIG    1        0.002  -0.004   0.002  0.00  0.00    +0.001 A 
ENDBRANCH   1   9
BRANCH   3  12
ATOM     12  N   LIG    1        5.244  -3.934  -0.081  0.00  0.00    -0.263 N 
ATOM     13  H   LIG    1        4.534  -4.595  -0.081  0.00  0.00    +0.157 HD
ATOM     14  C   LIG    1        6.532  -4.330  -0.096  0.00  0.00    +0.222 C 
ATOM     15  O   LIG    1        7.420  -3.504  -0.096  0.00  0.00    -0.275 OA
BRANCH  14  16
ATOM     16  C   LIG    1        6.870  -5.799  -0.112  0.00  0.00    +0.075 C 
ATOM     17  C   LIG    1        6.292  -6.468   1.137  0.00  0.00    +0.013 C 
ATOM     18  C   LIG    1        6.634  -7.959   1.120  0.00  0.00    +0.001 C 
ATOM     19  C   LIG    1        8.154  -8.133   1.106  0.00  0.00    +0.000 C 
ATOM     20  C   LIG    1        8.732  -7.464  -0.143  0.00  0.00    +0.001 C 
ATOM     21  C   LIG    1        8.390  -5.973  -0.126  0.00  0.00    +0.013 C 
ENDBRANCH  14  16
ENDBRANCH   3  12
TORSDOF 3
