REMARK  Name = ZINC23382757
REMARK                            x       y       z     vdW  Elec       q    Type
REMARK                         _______ _______ _______ _____ _____    ______ ____
ROOT
ATOM      1  C   LIG    1        1.912  -3.644  -0.106  0.00  0.00    +0.124 C 
ATOM      2  C   LIG    1        2.500  -4.095   1.086  0.00  0.00    +0.035 C 
ATOM      3  C   LIG    1        3.405  -5.111   1.053  0.00  0.00    +0.008 C 
ATOM      4  C   LIG    1        3.724  -5.683  -0.196  0.00  0.00    +0.006 C 
ATOM      5  C   LIG    1        4.648  -6.734  -0.301  0.00  0.00    +0.005 C 
ATOM      6  C   LIG    1        4.932  -7.262  -1.524  0.00  0.00    +0.000 C 
ATOM      7  C   LIG    1        4.316  -6.773  -2.673  0.00  0.00    +0.002 C 
ATOM      8  C   LIG    1        3.415  -5.754  -2.607  0.00  0.00    +0.019 C 
ATOM      9  C   LIG    1        3.097  -5.184  -1.363  0.00  0.00    +0.058 C 
ATOM     10  N   LIG    1        2.210  -4.186  -1.269  0.00  0.00    -0.298 NA
ATOM     11  H   LIG    1        1.782  -3.852  -2.073  0.00  0.00    +0.124 HD
ENDROOT
BRANCH   1  16
ATOM     12  C   LIG    1       -0.016   1.464   0.050  0.00  0.00    +0.105 C 
ATOM     13  N   LIG    1        0.003  -0.004   0.022  0.00  0.00    -0.303 NA
ATOM     14  C   LIG    1        0.611  -0.500  -1.220  0.00  0.00    +0.099 C 
ATOM     15  C   LIG    1        0.449  -2.022  -1.292  0.00  0.00    +0.101 C 
ATOM     16  N   LIG    1        0.991  -2.608  -0.057  0.00  0.00    -0.285 NA
ATOM     17  C   LIG    1        0.530  -2.068   1.230  0.00  0.00    +0.101 C 
ATOM     18  C   LIG    1        0.689  -0.544   1.204  0.00  0.00    +0.099 C 
ENDBRANCH   1  16
TORSDOF 1
