REMARK  Name = ZINC21047415
REMARK                            x       y       z     vdW  Elec       q    Type
REMARK                         _______ _______ _______ _____ _____    ______ ____
ROOT
ATOM      1  C   LIG    1       -2.796   9.567  -1.794  0.00  0.00    +0.129 A 
ATOM      2  C   LIG    1       -3.335   8.693  -2.728  0.00  0.00    +0.050 A 
ATOM      3  C   LIG    1       -3.189   7.330  -2.562  0.00  0.00    +0.049 A 
ATOM      4  C   LIG    1       -2.504   6.834  -1.463  0.00  0.00    +0.121 A 
ATOM      5  C   LIG    1       -1.970   7.707  -0.527  0.00  0.00    +0.049 A 
ATOM      6  C   LIG    1       -2.111   9.070  -0.695  0.00  0.00    +0.050 A 
ENDROOT
BRANCH   1   7
ATOM      7  O   LIG    1       -2.940  10.909  -1.957  0.00  0.00    -0.456 OA
BRANCH   7  11
ATOM      8  C   LIG    1       -6.728  12.507  -1.625  0.00  0.00    +0.000 A 
ATOM      9  C   LIG    1       -5.673  13.309  -2.018  0.00  0.00    +0.004 A 
ATOM     10  C   LIG    1       -4.403  12.777  -2.130  0.00  0.00    +0.046 A 
ATOM     11  C   LIG    1       -4.188  11.435  -1.847  0.00  0.00    +0.128 A 
ATOM     12  C   LIG    1       -5.249  10.631  -1.458  0.00  0.00    +0.046 A 
ATOM     13  C   LIG    1       -6.516  11.170  -1.343  0.00  0.00    +0.004 A 
ENDBRANCH   7  11
ENDBRANCH   1   7
BRANCH   4  14
ATOM     14  O   LIG    1       -2.360   5.492  -1.300  0.00  0.00    -0.494 OA
BRANCH  14  15
ATOM     15  C   LIG    1       -1.643   5.051  -0.146  0.00  0.00    +0.213 C 
BRANCH  15  16
ATOM     16  C   LIG    1       -1.584   3.522  -0.134  0.00  0.00    -0.034 C 
ATOM     17  C   LIG    1       -0.927   3.047   1.164  0.00  0.00    -0.013 C 
ATOM     18  C   LIG    1       -0.852   1.517   1.163  0.00  0.00    -0.003 C 
ATOM     19  C   LIG    1       -0.070   1.054  -0.070  0.00  0.00    -0.019 C 
ATOM     20  C   LIG    1       -0.752   1.587  -1.332  0.00  0.00    -0.082 C 
ATOM     21  N   LIG    1       -0.797   3.054  -1.282  0.00  0.00    +0.383 N 
ATOM     22  H   LIG    1        0.231   3.434  -1.202  0.00  0.00    -0.085 HD
ATOM     23  H   LIG    1       -1.253   3.422  -2.213  0.00  0.00    -0.085 HD
ENDBRANCH  15  16
ENDBRANCH  14  15
ENDBRANCH   4  14
TORSDOF 5
