REMARK  Name = ZINC53099188
REMARK                            x       y       z     vdW  Elec       q    Type
REMARK                         _______ _______ _______ _____ _____    ______ ____
ROOT
ATOM      1  CA  ALA A  1       -2.632  -4.409  -1.361  0.00  0.00    +0.138 C 
ATOM      2  CB  ALA A  1       -1.148  -4.475  -0.992  0.00  0.00    +0.034 C 
ENDROOT
BRANCH   1   3
ATOM      3  C   ALA A  1       -3.171  -5.807  -1.528  0.00  0.00    +0.233 C 
ATOM      4  N   UNK A  2       -3.070  -6.431  -2.718  0.00  0.00    -0.283 N 
ATOM      5  C   UNK A  2       -3.631  -7.742  -3.054  0.00  0.00    +0.080 C 
ATOM      6  C   UNK A  2       -4.903  -8.051  -2.299  0.00  0.00    +0.023 C 
ATOM      7  C   UNK A  2       -6.037  -7.114  -2.715  0.00  0.00    +0.002 C 
ATOM      8  C   UNK A  2       -6.274  -7.280  -4.220  0.00  0.00    +0.000 C 
ATOM      9  C   UNK A  2       -5.014  -6.846  -4.965  0.00  0.00    +0.005 C 
ATOM     10  C   UNK A  2       -3.842  -7.725  -4.580  0.00  0.00    +0.012 C 
ATOM     11  C   UNK A  2       -2.562  -6.958  -5.035  0.00  0.00    +0.039 C 
ATOM     12  C   UNK A  2       -2.380  -5.912  -3.913  0.00  0.00    +0.185 C 
ATOM     13  O   ALA A  1       -3.695  -6.370  -0.591  0.00  0.00    -0.274 OA
BRANCH  12  14
ATOM     14  C   UNK A  2       -2.992  -4.599  -4.329  0.00  0.00    +0.325 C 
ATOM     15  O   UNK A  2       -2.451  -3.917  -5.182  0.00  0.00    -0.249 OA
BRANCH  14  16
ATOM     16  O   UNK A  2       -4.029  -4.218  -3.811  0.00  0.00    -0.479 OA
ATOM     17  H   UNK A  2       -4.445  -4.742  -3.155  0.00  0.00    +0.295 HD
ENDBRANCH  14  16
ENDBRANCH  12  14
ENDBRANCH   1   3
BRANCH   1  18
ATOM     18  N   ALA A  1       -3.372  -3.723  -0.294  0.00  0.00    -0.294 NA
ATOM     19  H   ALA A  1       -3.022  -3.985   0.615  0.00  0.00    +0.123 HD
BRANCH  18  20
ATOM     20  C   UNK A  0       -3.327  -2.266  -0.475  0.00  0.00    +0.164 C 
BRANCH  20  21
ATOM     21  C   UNK A  0       -2.063  -1.722   0.140  0.00  0.00    +0.324 C 
ATOM     22  O   UNK A  0       -1.280  -2.471   0.674  0.00  0.00    -0.249 OA
BRANCH  21  23
ATOM     23  O   UNK A  0       -1.807  -0.405   0.094  0.00  0.00    -0.464 OA
BRANCH  23  25
ATOM     24  C   UNK A  0       -0.474   1.559   0.547  0.00  0.00    +0.048 C 
ATOM     25  C   UNK A  0       -0.591   0.041   0.697  0.00  0.00    +0.229 C 
ENDBRANCH  23  25
ENDBRANCH  21  23
ENDBRANCH  20  21
BRANCH  20  26
ATOM     26  C   UNK A  0       -4.540  -1.629   0.205  0.00  0.00    +0.035 C 
BRANCH  26  27
ATOM     27  C   UNK A  0       -5.819  -2.086  -0.501  0.00  0.00    +0.037 C 
BRANCH  27  28
ATOM     28  C   UNK A  0       -7.014  -1.459   0.170  0.00  0.00    -0.047 A 
ATOM     29  C   UNK A  0       -7.634  -2.106   1.222  0.00  0.00    +0.003 A 
ATOM     30  C   UNK A  0       -8.730  -1.531   1.837  0.00  0.00    +0.000 A 
ATOM     31  C   UNK A  0       -9.207  -0.309   1.400  0.00  0.00    +0.000 A 
ATOM     32  C   UNK A  0       -8.586   0.338   0.348  0.00  0.00    +0.000 A 
ATOM     33  C   UNK A  0       -7.487  -0.235  -0.265  0.00  0.00    +0.003 A 
ENDBRANCH  27  28
ENDBRANCH  26  27
ENDBRANCH  20  26
ENDBRANCH  18  20
ENDBRANCH   1  18
TORSDOF 11
