REMARK  Name = ZINC15924493
REMARK                            x       y       z     vdW  Elec       q    Type
REMARK                         _______ _______ _______ _____ _____    ______ ____
ROOT
ATOM      1  C   LIG    1        0.002  -0.004   0.002  0.00  0.00    +0.089 A 
ATOM      2  C   LIG    1       -0.710  -0.529   1.233  0.00  0.00    +0.201 A 
ATOM      3  C   LIG    1       -2.181  -0.560   1.185  0.00  0.00    +0.046 A 
ATOM      4  C   LIG    1       -2.950  -0.468   2.344  0.00  0.00    +0.014 A 
ATOM      5  C   LIG    1       -4.326  -0.485   2.248  0.00  0.00    +0.001 A 
ATOM      6  C   LIG    1       -4.939  -0.593   1.009  0.00  0.00    +0.002 A 
ATOM      7  C   LIG    1       -4.188  -0.690  -0.145  0.00  0.00    +0.026 A 
ATOM      8  C   LIG    1       -2.802  -0.679  -0.072  0.00  0.00    +0.053 A 
ATOM      9  N   LIG    1       -2.026  -0.785  -1.217  0.00  0.00    -0.325 N 
ATOM     10  H   LIG    1       -2.485  -1.104  -2.165  0.00  0.00    +0.169 HD
ATOM     11  O   LIG    1       -0.097  -0.905   2.209  0.00  0.00    -0.286 OA
ATOM     12  C   LIG    1       -0.712  -0.512  -1.223  0.00  0.00    +0.202 A 
ENDROOT
BRANCH   1  16
ATOM     13  C   LIG    1       -0.056   4.267   0.025  0.00  0.00    +0.000 A 
ATOM     14  C   LIG    1        1.151   3.592   0.010  0.00  0.00    +0.001 A 
ATOM     15  C   LIG    1        1.169   2.210   0.003  0.00  0.00    +0.009 A 
ATOM     16  C   LIG    1       -0.018   1.503   0.010  0.00  0.00    -0.009 A 
ATOM     17  C   LIG    1       -1.225   2.178   0.020  0.00  0.00    +0.009 A 
ATOM     18  C   LIG    1       -1.244   3.560   0.032  0.00  0.00    +0.001 A 
ENDBRANCH   1  16
BRANCH  12  19
ATOM     19  O   LIG    1       -0.081  -0.679  -2.245  0.00  0.00    -0.493 OA
ATOM     20  H   LIG    1        0.837  -0.493  -2.265  0.00  0.00    +0.294 HD
ENDBRANCH  12  19
TORSDOF 2
