REMARK  Name = ZINC00058014
REMARK                            x       y       z     vdW  Elec       q    Type
REMARK                         _______ _______ _______ _____ _____    ______ ____
ROOT
ATOM      1  C   LIG    1       -0.013   1.076   0.008  0.00  0.00    +0.015 A 
ATOM      2  C   LIG    1       -1.202   1.742   0.017  0.00  0.00    +0.046 A 
ATOM      3  C   LIG    1       -1.230   3.135   0.031  0.00  0.00    +0.120 A 
ATOM      4  C   LIG    1       -0.050   3.862   0.023  0.00  0.00    +0.092 A 
ATOM      5  C   LIG    1        1.170   3.203   0.008  0.00  0.00    +0.143 A 
ATOM      6  O   LIG    1        2.318   3.914   0.001  0.00  0.00    -0.421 OA
ATOM      7  C   LIG    1        3.517   3.309  -0.015  0.00  0.00    +0.355 A 
ATOM      8  O   LIG    1        4.535   3.977  -0.021  0.00  0.00    -0.244 OA
ATOM      9  C   LIG    1        3.603   1.845  -0.023  0.00  0.00    +0.137 A 
ATOM     10  C   LIG    1        2.431   1.107  -0.016  0.00  0.00    +0.037 A 
ATOM     11  C   LIG    1        1.194   1.795   0.000  0.00  0.00    +0.019 A 
ENDROOT
BRANCH   3  12
ATOM     12  O   LIG    1       -2.421   3.785   0.046  0.00  0.00    -0.507 OA
ATOM     13  H   LIG    1       -2.775   3.978  -0.833  0.00  0.00    +0.292 HD
ENDBRANCH   3  12
BRANCH   9  14
ATOM     14  C   LIG    1        4.876   1.189  -0.039  0.00  0.00    +0.106 C 
ATOM     15  N   LIG    1        5.886   0.669  -0.052  0.00  0.00    -0.191 NA
ENDBRANCH   9  14
TORSDOF 2
