REMARK  Name = ZINC13766777
REMARK                            x       y       z     vdW  Elec       q    Type
REMARK                         _______ _______ _______ _____ _____    ______ ____
ROOT
ATOM      1  N   LIG    1       -4.388  -0.610  -1.244  0.00  0.00    +0.381 N 
ATOM      2  H   LIG    1       -4.446   0.412  -1.318  0.00  0.00    -0.086 HD
ATOM      3  H   LIG    1       -3.852  -0.981  -2.037  0.00  0.00    -0.086 HD
ENDROOT
BRANCH   1   4
ATOM      4  C   LIG    1       -3.706  -0.968   0.014  0.00  0.00    -0.041 C 
BRANCH   4   5
ATOM      5  C   LIG    1       -2.299  -0.366   0.011  0.00  0.00    +0.210 C 
BRANCH   5   6
ATOM      6  O   LIG    1       -2.391   1.060   0.019  0.00  0.00    -0.494 OA
BRANCH   6  12
ATOM      7  C   LIG    1       -0.065   5.351   0.029  0.00  0.00    +0.044 C 
ATOM      8  C   LIG    1       -0.049   3.844   0.022  0.00  0.00    -0.047 A 
ATOM      9  C   LIG    1        1.156   3.166   0.007  0.00  0.00    +0.003 A 
ATOM     10  C   LIG    1        1.174   1.783   0.000  0.00  0.00    +0.004 A 
ATOM     11  C   LIG    1       -0.013   1.076   0.008  0.00  0.00    +0.045 A 
ATOM     12  C   LIG    1       -1.223   1.754   0.017  0.00  0.00    +0.121 A 
ATOM     13  C   LIG    1       -1.238   3.141   0.029  0.00  0.00    +0.049 A 
ENDBRANCH   6  12
ENDBRANCH   5   6
ENDBRANCH   4   5
ENDBRANCH   1   4
BRANCH   1  14
ATOM     14  C   LIG    1       -5.749  -1.178  -1.268  0.00  0.00    -0.079 C 
BRANCH  14  15
ATOM     15  C   LIG    1       -6.431  -0.791  -2.582  0.00  0.00    +0.022 C 
BRANCH  15  16
ATOM     16  C   LIG    1       -7.844  -1.376  -2.615  0.00  0.00    +0.227 C 
BRANCH  16  17
ATOM     17  O   LIG    1       -8.480  -1.015  -3.843  0.00  0.00    -0.492 OA
BRANCH  17  18
ATOM     18  C   LIG    1       -9.751  -1.458  -4.033  0.00  0.00    +0.120 A 
ATOM     19  C   LIG    1      -10.370  -2.231  -3.061  0.00  0.00    +0.045 A 
ATOM     20  C   LIG    1      -11.663  -2.676  -3.255  0.00  0.00    +0.004 A 
ATOM     21  C   LIG    1      -12.337  -2.362  -4.420  0.00  0.00    +0.000 A 
ATOM     22  C   LIG    1      -11.720  -1.597  -5.393  0.00  0.00    +0.004 A 
ATOM     23  C   LIG    1      -10.428  -1.144  -5.202  0.00  0.00    +0.045 A 
ENDBRANCH  17  18
ENDBRANCH  16  17
ENDBRANCH  15  16
ENDBRANCH  14  15
ENDBRANCH   1  14
TORSDOF 9
