REMARK  Name = ZINC27558640
REMARK                            x       y       z     vdW  Elec       q    Type
REMARK                         _______ _______ _______ _____ _____    ______ ____
ROOT
ATOM      1  C   LIG    1       -2.295   4.136   0.046  0.00  0.00    -0.021 A 
ATOM      2  C   LIG    1       -1.702   5.341   0.047  0.00  0.00    +0.087 A 
ATOM      3  N   LIG    1       -0.342   5.191   0.033  0.00  0.00    -0.360 N 
ATOM      4  C   LIG    1       -0.018   3.852   0.022  0.00  0.00    +0.047 A 
ATOM      5  C   LIG    1        1.187   3.158   0.007  0.00  0.00    +0.026 A 
ATOM      6  C   LIG    1        1.183   1.781   0.000  0.00  0.00    +0.002 A 
ATOM      7  C   LIG    1       -0.013   1.076   0.008  0.00  0.00    +0.001 A 
ATOM      8  C   LIG    1       -1.208   1.738   0.017  0.00  0.00    +0.010 A 
ATOM      9  H   LIG    1        0.309   6.077   0.031  0.00  0.00    +0.165 HD
ATOM     10  C   LIG    1       -1.228   3.133   0.031  0.00  0.00    +0.003 A 
ENDROOT
BRANCH   1  12
ATOM     11  C   LIG    1       -4.395   4.479   1.320  0.00  0.00    +0.010 C 
ATOM     12  C   LIG    1       -3.778   3.868   0.060  0.00  0.00    +0.000 C 
BRANCH  12  13
ATOM     13  C   LIG    1       -4.421   4.494  -1.179  0.00  0.00    -0.079 C 
BRANCH  13  14
ATOM     14  N   LIG    1       -5.844   4.131  -1.228  0.00  0.00    +0.379 N 
ATOM     15  H   LIG    1       -5.942   3.037  -1.278  0.00  0.00    -0.090 HD
ATOM     16  H   LIG    1       -6.349   4.504  -0.325  0.00  0.00    -0.090 HD
ATOM     17  H   LIG    1       -6.306   4.581  -2.119  0.00  0.00    -0.090 HD
ENDBRANCH  13  14
ENDBRANCH  12  13
ENDBRANCH   1  12
TORSDOF 3
