REMARK  Name = ZINC22448624
REMARK                            x       y       z     vdW  Elec       q    Type
REMARK                         _______ _______ _______ _____ _____    ______ ____
ROOT
ATOM      1  N   LIG    1        0.713   0.588   7.365  0.00  0.00    -0.309 N 
ATOM      2  H   LIG    1       -0.194   1.208   7.317  0.00  0.00    +0.149 HD
ATOM      3  C   LIG    1        1.310   0.177   6.229  0.00  0.00    +0.249 C 
ATOM      4  O   LIG    1        2.313  -0.509   6.282  0.00  0.00    -0.270 OA
ENDROOT
BRANCH   1  12
ATOM      5  N   LIG    1        1.453   0.914  10.996  0.00  0.00    +0.382 N 
ATOM      6  H   LIG    1        2.466   0.500  10.888  0.00  0.00    -0.082 HD
ATOM      7  C   LIG    1        0.649  -0.084  11.657  0.00  0.00    -0.063 C 
ATOM      8  C   LIG    1        1.184  -1.511  11.441  0.00  0.00    +0.065 C 
ATOM      9  N   LIG    1        1.634  -1.750  10.049  0.00  0.00    -0.305 NA
ATOM     10  C   LIG    1        1.874  -3.180   9.811  0.00  0.00    +0.104 C 
ATOM     11  C   LIG    1        0.761  -1.197   9.042  0.00  0.00    +0.104 C 
ATOM     12  C   LIG    1        1.274   0.209   8.665  0.00  0.00    +0.071 C 
ATOM     13  C   LIG    1        0.892   1.211   9.658  0.00  0.00    -0.055 C 
BRANCH   5  15
ATOM     14  C   LIG    1        0.146   2.677  12.083  0.00  0.00    -0.017 C 
ATOM     15  C   LIG    1        1.550   2.134  11.808  0.00  0.00    -0.082 C 
ENDBRANCH   5  15
ENDBRANCH   1  12
BRANCH   3  16
ATOM     16  C   LIG    1        0.747   0.557   4.923  0.00  0.00    +0.099 A 
ATOM     17  C   LIG    1       -0.410   1.348   4.849  0.00  0.00    +0.037 A 
ATOM     18  C   LIG    1       -0.899   1.679   3.614  0.00  0.00    +0.058 A 
ATOM     19 BR   LIG    1       -2.455   2.742   3.458  0.00  0.00    -0.047 Br
ATOM     20  C   LIG    1       -0.241   1.226   2.470  0.00  0.00    +0.136 A 
ATOM     21  N   LIG    1        0.848   0.475   2.561  0.00  0.00    -0.196 NA
ATOM     22  C   LIG    1        1.359   0.136   3.733  0.00  0.00    +0.229 A 
BRANCH  20  23
ATOM     23  N   LIG    1       -0.736   1.560   1.221  0.00  0.00    -0.331 N 
ATOM     24  H   LIG    1       -1.641   2.179   1.136  0.00  0.00    +0.147 HD
ATOM     25  C   LIG    1       -0.053   1.090   0.013  0.00  0.00    +0.127 C 
ENDBRANCH  20  23
BRANCH  22  26
ATOM     26  O   LIG    1        2.476  -0.628   3.784  0.00  0.00    -0.479 OA
ATOM     27  C   LIG    1        3.049  -1.024   2.536  0.00  0.00    +0.279 C 
ENDBRANCH  22  26
ENDBRANCH   3  16
TORSDOF 5
