REMARK  Name = ZINC26491261
REMARK                            x       y       z     vdW  Elec       q    Type
REMARK                         _______ _______ _______ _____ _____    ______ ____
ROOT
ATOM      1  C   LIG    1        2.281   1.923   3.595  0.00  0.00    +0.002 A 
ATOM      2  C   LIG    1        1.533   2.112   2.449  0.00  0.00    +0.010 A 
ATOM      3  C   LIG    1        1.991   1.644   1.229  0.00  0.00    +0.028 A 
ATOM      4  C   LIG    1        3.208   0.985   1.158  0.00  0.00    +0.144 A 
ATOM      5  O   LIG    1        3.696   0.516  -0.019  0.00  0.00    -0.490 OA
ATOM      6  C   LIG    1        2.784   0.355  -1.107  0.00  0.00    +0.232 C 
ATOM      7  C   LIG    1        1.981   1.653  -1.263  0.00  0.00    +0.081 C 
ATOM      8  C   LIG    1        3.958   0.796   2.315  0.00  0.00    +0.083 A 
ATOM      9 CL   LIG    1        5.482  -0.031   2.232  0.00  0.00    -0.080 Cl
ATOM     10  C   LIG    1        1.153   1.861   0.001  0.00  0.00    +0.144 C 
ATOM     11  C   LIG    1        0.550   3.247   0.014  0.00  0.00    +0.249 C 
ATOM     12  N   LIG    1       -0.786   3.059   0.025  0.00  0.00    -0.238 N 
ATOM     13  H   LIG    1       -1.463   3.925   0.040  0.00  0.00    +0.159 HD
ATOM     14  C   LIG    1       -1.101   1.758   0.016  0.00  0.00    +0.307 C 
ATOM     15  O   LIG    1       -2.241   1.338   0.018  0.00  0.00    -0.252 OA
ATOM     16  O   LIG    1        1.142   4.305   0.013  0.00  0.00    -0.273 OA
ATOM     17  N   LIG    1       -0.011   0.966   0.007  0.00  0.00    -0.281 N 
ATOM     18  H   LIG    1        0.134  -0.125   0.005  0.00  0.00    +0.152 HD
ATOM     19  C   LIG    1        3.494   1.264   3.528  0.00  0.00    +0.024 A 
ENDROOT
TORSDOF 0
