REMARK  Name = ZINC29388911
REMARK                            x       y       z     vdW  Elec       q    Type
REMARK                         _______ _______ _______ _____ _____    ______ ____
ROOT
ATOM      1  C   LIG    1        1.058  -0.691   0.583  0.00  0.00    +0.006 A 
ATOM      2  C   LIG    1        1.095  -2.063   0.591  0.00  0.00    +0.010 A 
ATOM      3  C   LIG    1        0.060  -2.811  -0.004  0.00  0.00    +0.003 A 
ATOM      4  C   LIG    1       -0.997  -2.088  -0.590  0.00  0.00    +0.020 A 
ATOM      5  S   LIG    1       -2.078  -3.346  -1.216  0.00  0.00    -0.096 S 
ATOM      6  C   LIG    1       -1.194  -4.755  -0.737  0.00  0.00    +0.061 A 
ATOM      7  C   LIG    1       -1.028  -0.710  -0.589  0.00  0.00    +0.021 A 
ATOM      8  C   LIG    1       -0.091  -4.265  -0.108  0.00  0.00    +0.074 A 
ATOM      9  C   LIG    1        0.002  -0.004   0.002  0.00  0.00    -0.027 A 
ENDROOT
BRANCH   8  10
ATOM     10  C   LIG    1        0.920  -5.168   0.451  0.00  0.00    +0.338 C 
ATOM     11  O   LIG    1        1.899  -4.713   1.010  0.00  0.00    -0.245 OA
BRANCH  10  12
ATOM     12  O   LIG    1        0.764  -6.504   0.345  0.00  0.00    -0.477 OA
ATOM     13  H   LIG    1        0.009  -6.854  -0.085  0.00  0.00    +0.295 HD
ENDBRANCH  10  12
ENDBRANCH   8  10
BRANCH   9  14
ATOM     14  C   LIG    1       -0.018   1.503   0.010  0.00  0.00    +0.157 C 
BRANCH  14  15
ATOM     15  N   LIG    1       -0.704   1.975   1.216  0.00  0.00    -0.332 N 
ATOM     16  C   LIG    1       -2.043   2.232   1.341  0.00  0.00    +0.107 A 
ATOM     17  C   LIG    1       -2.245   2.640   2.608  0.00  0.00    +0.130 A 
ATOM     18  N   LIG    1       -1.060   2.641   3.237  0.00  0.00    -0.244 NA
ATOM     19  C   LIG    1       -0.133   2.244   2.409  0.00  0.00    +0.199 A 
ENDBRANCH  14  15
ENDBRANCH   9  14
TORSDOF 4
