REMARK  Name = ZINC28359635
REMARK                            x       y       z     vdW  Elec       q    Type
REMARK                         _______ _______ _______ _____ _____    ______ ____
ROOT
ATOM      1  C   LIG    1        0.621  -0.366   0.796  0.00  0.00    +0.045 A 
ATOM      2  C   LIG    1        1.197  -1.123  -0.213  0.00  0.00    +0.044 A 
ATOM      3  C   LIG    1        1.341  -2.490  -0.056  0.00  0.00    +0.043 A 
ATOM      4 CL   LIG    1        2.062  -3.436  -1.320  0.00  0.00    -0.083 Cl
ATOM      5  C   LIG    1        0.911  -3.106   1.107  0.00  0.00    +0.021 A 
ATOM      6  C   LIG    1        0.336  -2.358   2.118  0.00  0.00    +0.018 A 
ATOM      7  C   LIG    1        0.193  -0.986   1.970  0.00  0.00    +0.034 A 
ENDROOT
BRANCH   1  11
ATOM      8  C   LIG    1       -2.536   3.301   0.309  0.00  0.00    -0.012 C 
ATOM      9  C   LIG    1       -1.063   2.913   0.452  0.00  0.00    -0.053 C 
ATOM     10  C   LIG    1       -0.943   1.390   0.542  0.00  0.00    +0.089 C 
ATOM     11  N   LIG    1        0.475   1.017   0.640  0.00  0.00    -0.332 N 
ATOM     12  C   LIG    1        1.224   1.497  -0.530  0.00  0.00    +0.086 C 
ATOM     13  C   LIG    1        1.105   3.020  -0.620  0.00  0.00    -0.058 C 
ATOM     14  N   LIG    1       -0.314   3.392  -0.718  0.00  0.00    +0.390 N 
ATOM     15  H   LIG    1       -0.732   2.906  -1.611  0.00  0.00    -0.081 HD
BRANCH  14  16
ATOM     16  C   LIG    1       -0.467   4.844  -0.882  0.00  0.00    +0.044 C 
BRANCH  16  17
ATOM     17  C   LIG    1        0.117   5.549   0.315  0.00  0.00    +0.288 C 
ATOM     18  O   LIG    1        0.669   4.913   1.181  0.00  0.00    -0.253 OA
BRANCH  17  19
ATOM     19  O   LIG    1        0.024   6.885   0.419  0.00  0.00    -0.482 OA
ATOM     20  H   LIG    1       -0.404   7.378  -0.253  0.00  0.00    +0.295 HD
ENDBRANCH  17  19
ENDBRANCH  16  17
ENDBRANCH  14  16
ENDBRANCH   1  11
BRANCH   7  21
ATOM     21  S   LIG    1       -0.533  -0.030   3.260  0.00  0.00    -0.088 S 
BRANCH  21  22
ATOM     22  C   LIG    1        0.614  -0.168   4.591  0.00  0.00    +0.013 A 
ATOM     23  C   LIG    1        1.824  -0.825   4.400  0.00  0.00    +0.018 A 
ATOM     24  C   LIG    1        2.724  -0.927   5.442  0.00  0.00    +0.047 A 
ATOM     25  C   LIG    1        2.417  -0.385   6.681  0.00  0.00    +0.120 A 
ATOM     26  C   LIG    1        1.207   0.267   6.874  0.00  0.00    +0.047 A 
ATOM     27  C   LIG    1        0.308   0.375   5.832  0.00  0.00    +0.018 A 
BRANCH  25  28
ATOM     28  O   LIG    1        3.302  -0.491   7.708  0.00  0.00    -0.495 OA
ATOM     29  C   LIG    1        4.528  -1.174   7.439  0.00  0.00    +0.277 C 
ENDBRANCH  25  28
ENDBRANCH  21  22
ENDBRANCH   7  21
TORSDOF 7
