REMARK  Name = ZINC39316388
REMARK                            x       y       z     vdW  Elec       q    Type
REMARK                         _______ _______ _______ _____ _____    ______ ____
ROOT
ATOM      1  C   LIG    1        3.696  -2.042   0.044  0.00  0.00    +0.032 A 
ATOM      2  C   LIG    1        2.533  -2.804   0.041  0.00  0.00    +0.023 A 
ATOM      3  C   LIG    1        2.603  -4.182   0.121  0.00  0.00    +0.003 A 
ATOM      4  C   LIG    1        3.827  -4.812   0.206  0.00  0.00    +0.015 A 
ATOM      5  C   LIG    1        5.003  -4.057   0.211  0.00  0.00    +0.061 A 
ATOM      6  C   LIG    1        4.932  -2.665   0.124  0.00  0.00    +0.038 A 
ENDROOT
BRANCH   1   7
ATOM      7  N   LIG    1        3.620  -0.649  -0.037  0.00  0.00    -0.314 N 
ATOM      8  H   LIG    1        4.318  -0.151  -0.491  0.00  0.00    +0.152 HD
BRANCH   7  12
ATOM      9  C   LIG    1        0.397   1.363   1.666  0.00  0.00    +0.000 A 
ATOM     10  C   LIG    1        0.770   0.123   2.151  0.00  0.00    +0.002 A 
ATOM     11  C   LIG    1        1.839  -0.547   1.589  0.00  0.00    +0.023 A 
ATOM     12  C   LIG    1        2.538   0.026   0.534  0.00  0.00    +0.031 A 
ATOM     13  C   LIG    1        2.161   1.272   0.049  0.00  0.00    +0.023 A 
ATOM     14  C   LIG    1        1.092   1.937   0.617  0.00  0.00    +0.002 A 
ENDBRANCH   7  12
ENDBRANCH   1   7
BRANCH   5  15
ATOM     15  C   LIG    1        6.314  -4.728   0.302  0.00  0.00    +0.337 C 
ATOM     16  O   LIG    1        6.373  -5.947   0.374  0.00  0.00    -0.245 OA
BRANCH  15  17
ATOM     17  O   LIG    1        7.341  -4.065   0.306  0.00  0.00    -0.477 OA
ATOM     18  H   LIG    1        7.296  -3.130   0.251  0.00  0.00    +0.295 HD
ENDBRANCH  15  17
ENDBRANCH   5  15
TORSDOF 4
