REMARK  Name = ZINC72176343
REMARK                            x       y       z     vdW  Elec       q    Type
REMARK                         _______ _______ _______ _____ _____    ______ ____
ROOT
ATOM      1  C   LIG    1       -0.017  -2.879   2.505  0.00  0.00    +0.279 C 
ATOM      2  N   LIG    1        0.024  -4.226   2.478  0.00  0.00    -0.195 N 
ATOM      3  C   LIG    1        0.126  -5.043   3.583  0.00  0.00    +0.079 A 
ATOM      4  C   LIG    1        0.211  -4.803   4.951  0.00  0.00    +0.028 A 
ATOM      5  C   LIG    1        0.305  -5.862   5.826  0.00  0.00    +0.002 A 
ATOM      6  C   LIG    1        0.315  -7.168   5.356  0.00  0.00    +0.001 A 
ATOM      7  C   LIG    1        0.232  -7.425   4.017  0.00  0.00    +0.012 A 
ATOM      8  C   LIG    1        0.136  -6.367   3.112  0.00  0.00    +0.033 A 
ATOM      9  C   LIG    1        0.034  -6.286   1.648  0.00  0.00    +0.156 A 
ATOM     10  N   LIG    1       -0.035  -5.015   1.325  0.00  0.00    -0.158 NA
ATOM     11  O   LIG    1        0.132  -2.288   3.555  0.00  0.00    -0.265 OA
ENDROOT
BRANCH   1  17
ATOM     12  C   LIG    1       -0.836   1.456   0.174  0.00  0.00    +0.044 C 
ATOM     13  C   LIG    1       -0.639  -0.038   0.131  0.00  0.00    -0.050 A 
ATOM     14  C   LIG    1       -0.672  -0.704  -1.082  0.00  0.00    +0.003 A 
ATOM     15  C   LIG    1       -0.492  -2.074  -1.132  0.00  0.00    +0.001 A 
ATOM     16  C   LIG    1       -0.279  -2.788   0.030  0.00  0.00    +0.013 A 
ATOM     17  C   LIG    1       -0.244  -2.122   1.257  0.00  0.00    +0.042 A 
ATOM     18  C   LIG    1       -0.421  -0.737   1.299  0.00  0.00    +0.016 A 
ENDBRANCH   1  17
BRANCH   9  19
ATOM     19  C   LIG    1        0.007  -7.426   0.712  0.00  0.00    +0.269 C 
ATOM     20  N   LIG    1       -0.090  -7.206  -0.615  0.00  0.00    -0.280 N 
ATOM     21  H   LIG    1       -0.066  -6.299  -0.959  0.00  0.00    +0.155 HD
ATOM     22  O   LIG    1        0.072  -8.563   1.136  0.00  0.00    -0.268 OA
BRANCH  20  23
ATOM     23  C   LIG    1       -0.226  -8.285  -1.494  0.00  0.00    +0.034 A 
ATOM     24  C   LIG    1        0.341  -8.226  -2.761  0.00  0.00    +0.023 A 
ATOM     25  C   LIG    1        0.205  -9.293  -3.627  0.00  0.00    +0.002 A 
ATOM     26  C   LIG    1       -0.494 -10.419  -3.234  0.00  0.00    +0.000 A 
ATOM     27  C   LIG    1       -1.060 -10.481  -1.974  0.00  0.00    +0.002 A 
ATOM     28  C   LIG    1       -0.922  -9.420  -1.100  0.00  0.00    +0.023 A 
ENDBRANCH  20  23
ENDBRANCH   9  19
TORSDOF 3
