REMARK  Name = ZINC19361055
REMARK                            x       y       z     vdW  Elec       q    Type
REMARK                         _______ _______ _______ _____ _____    ______ ____
ROOT
ATOM      1  C   LIG    1        2.013  -3.927   1.464  0.00  0.00    +0.044 C 
ATOM      2  C   LIG    1        2.277  -3.996   2.970  0.00  0.00    -0.039 C 
ATOM      3  N   LIG    1        3.332  -3.049   3.338  0.00  0.00    +0.383 N 
ATOM      4  H   LIG    1        3.483  -3.111   4.334  0.00  0.00    -0.081 HD
ATOM      5  C   LIG    1        2.925  -1.677   3.027  0.00  0.00    -0.078 C 
ATOM      6  C   LIG    1        2.683  -1.530   1.523  0.00  0.00    -0.014 C 
ATOM      7  C   LIG    1        4.585  -3.383   2.657  0.00  0.00    -0.078 C 
ATOM      8  C   LIG    1        4.398  -3.294   1.138  0.00  0.00    -0.014 C 
ATOM      9  C   LIG    1        2.950  -2.882   0.842  0.00  0.00    +0.001 C 
ENDROOT
BRANCH   1  10
ATOM     10  N   LIG    1        0.616  -3.539   1.226  0.00  0.00    -0.310 NA
ATOM     11  H   LIG    1        0.477  -2.558   1.414  0.00  0.00    +0.122 HD
BRANCH  10  12
ATOM     12  C   LIG    1        0.202  -3.877  -0.142  0.00  0.00    +0.120 C 
BRANCH  12  18
ATOM     13  C   LIG    1       -1.543  -2.141  -0.619  0.00  0.00    +0.124 A 
ATOM     14  C   LIG    1       -2.865  -1.766  -0.814  0.00  0.00    +0.046 A 
ATOM     15  C   LIG    1       -3.869  -2.712  -0.732  0.00  0.00    +0.004 A 
ATOM     16  C   LIG    1       -3.558  -4.031  -0.457  0.00  0.00    +0.001 A 
ATOM     17  C   LIG    1       -2.242  -4.407  -0.262  0.00  0.00    +0.008 A 
ATOM     18  C   LIG    1       -1.233  -3.466  -0.348  0.00  0.00    +0.008 A 
BRANCH  13  20
ATOM     19  C   LIG    1       -0.947   0.131  -0.982  0.00  0.00    +0.277 C 
ATOM     20  O   LIG    1       -0.554  -1.213  -0.700  0.00  0.00    -0.495 OA
ENDBRANCH  13  20
ENDBRANCH  12  18
ENDBRANCH  10  12
ENDBRANCH   1  10
BRANCH   2  21
ATOM     21  C   LIG    1        0.995  -3.644   3.726  0.00  0.00    +0.037 C 
BRANCH  21  22
ATOM     22  C   LIG    1        1.285  -3.578   5.204  0.00  0.00    -0.041 A 
ATOM     23  C   LIG    1        0.939  -2.452   5.926  0.00  0.00    +0.004 A 
ATOM     24  C   LIG    1        1.205  -2.391   7.282  0.00  0.00    +0.000 A 
ATOM     25  C   LIG    1        1.818  -3.457   7.914  0.00  0.00    +0.000 A 
ATOM     26  C   LIG    1        2.164  -4.583   7.191  0.00  0.00    +0.000 A 
ATOM     27  C   LIG    1        1.893  -4.646   5.837  0.00  0.00    +0.004 A 
ENDBRANCH  21  22
BRANCH  21  28
ATOM     28  C   LIG    1       -0.048  -4.700   3.466  0.00  0.00    -0.041 A 
ATOM     29  C   LIG    1        0.264  -6.036   3.635  0.00  0.00    +0.004 A 
ATOM     30  C   LIG    1       -0.693  -7.005   3.396  0.00  0.00    +0.000 A 
ATOM     31  C   LIG    1       -1.962  -6.638   2.990  0.00  0.00    +0.000 A 
ATOM     32  C   LIG    1       -2.275  -5.301   2.822  0.00  0.00    +0.000 A 
ATOM     33  C   LIG    1       -1.319  -4.332   3.065  0.00  0.00    +0.004 A 
ENDBRANCH  21  28
ENDBRANCH   2  21
TORSDOF 7
