REMARK  Name = ZINC62260316
REMARK                            x       y       z     vdW  Elec       q    Type
REMARK                         _______ _______ _______ _____ _____    ______ ____
ROOT
ATOM      1  C   LIG    1       -1.987   0.107   2.961  0.00  0.00    +0.220 C 
ENDROOT
BRANCH   1   3
ATOM      2  N   LIG    1        0.385  -0.111   3.589  0.00  0.00    -0.263 N 
ATOM      3  C   LIG    1       -0.882   0.195   3.981  0.00  0.00    +0.139 A 
ATOM      4  N   LIG    1       -1.187   0.558   5.190  0.00  0.00    -0.231 NA
ATOM      5  C   LIG    1       -0.245   0.659   6.161  0.00  0.00    +0.079 A 
ATOM      6  C   LIG    1       -0.572   1.049   7.461  0.00  0.00    +0.028 A 
ATOM      7  C   LIG    1        0.415   1.137   8.416  0.00  0.00    +0.002 A 
ATOM      8  C   LIG    1        1.736   0.844   8.103  0.00  0.00    +0.004 A 
ATOM      9  C   LIG    1        2.084   0.457   6.827  0.00  0.00    -0.036 A 
ATOM     10  C   LIG    1        3.520   0.141   6.495  0.00  0.00    +0.044 C 
ATOM     11  C   LIG    1        1.099   0.360   5.846  0.00  0.00    +0.068 A 
ATOM     12  C   LIG    1        1.411  -0.053   4.470  0.00  0.00    +0.267 A 
ATOM     13  O   LIG    1        2.548  -0.328   4.135  0.00  0.00    -0.267 OA
BRANCH   2  20
ATOM     14  C   LIG    1        1.015   1.919   1.696  0.00  0.00    +0.046 C 
ATOM     15  C   LIG    1        0.939   0.465   1.309  0.00  0.00    -0.026 A 
ATOM     16  C   LIG    1        1.184   0.083   0.004  0.00  0.00    +0.005 A 
ATOM     17  C   LIG    1        1.114  -1.251  -0.352  0.00  0.00    +0.000 A 
ATOM     18  C   LIG    1        0.799  -2.208   0.596  0.00  0.00    +0.002 A 
ATOM     19  C   LIG    1        0.553  -1.832   1.902  0.00  0.00    +0.026 A 
ATOM     20  C   LIG    1        0.628  -0.494   2.264  0.00  0.00    +0.054 A 
ENDBRANCH   2  20
ENDBRANCH   1   3
BRANCH   1  21
ATOM     21  N   LIG    1       -3.260   0.474   3.586  0.00  0.00    -0.238 N 
ATOM     22  C   LIG    1       -4.112  -0.392   4.204  0.00  0.00    +0.164 A 
ATOM     23  C   LIG    1       -5.205   0.367   4.662  0.00  0.00    +0.086 A 
ATOM     24  C   LIG    1       -6.242  -0.292   5.343  0.00  0.00    +0.131 A 
ATOM     25  N   LIG    1       -6.144  -1.605   5.523  0.00  0.00    -0.220 NA
ATOM     26  C   LIG    1       -5.099  -2.279   5.075  0.00  0.00    +0.225 A 
ATOM     27  C   LIG    1       -4.940   1.752   4.272  0.00  0.00    +0.105 A 
ATOM     28  N   LIG    1       -4.105  -1.704   4.434  0.00  0.00    -0.216 NA
ATOM     29  N   LIG    1       -3.786   1.769   3.648  0.00  0.00    -0.168 NA
BRANCH  27  30
ATOM     30  C   LIG    1       -5.812   2.921   4.538  0.00  0.00    +0.006 A 
ATOM     31  C   LIG    1       -6.381   3.097   5.799  0.00  0.00    +0.010 A 
ATOM     32  C   LIG    1       -7.192   4.187   6.043  0.00  0.00    +0.004 A 
ATOM     33  C   LIG    1       -7.443   5.106   5.041  0.00  0.00    +0.045 A 
ATOM     34  C   LIG    1       -6.881   4.938   3.783  0.00  0.00    +0.117 A 
ATOM     35  C   LIG    1       -6.061   3.851   3.530  0.00  0.00    +0.055 A 
BRANCH  34  36
ATOM     36  O   LIG    1       -7.130   5.844   2.801  0.00  0.00    -0.507 OA
ATOM     37  H   LIG    1       -6.498   6.574   2.770  0.00  0.00    +0.292 HD
ENDBRANCH  34  36
ENDBRANCH  27  30
BRANCH  24  38
ATOM     38  N   LIG    1       -7.337   0.408   5.814  0.00  0.00    -0.342 N 
ATOM     39  H   LIG    1       -7.925   0.003   6.470  0.00  0.00    +0.144 HD
ATOM     40  H   LIG    1       -7.517   1.303   5.488  0.00  0.00    +0.144 HD
ENDBRANCH  24  38
ENDBRANCH   1  21
TORSDOF 6
