REMARK  Name = ZINC33315026
REMARK                            x       y       z     vdW  Elec       q    Type
REMARK                         _______ _______ _______ _____ _____    ______ ____
ROOT
ATOM      1  C   LIG    1       -0.918  11.453  -4.079  0.00  0.00    +0.000 C 
ATOM      2  C   LIG    1       -0.993  10.064  -4.148  0.00  0.00    +0.000 C 
ATOM      3  C   LIG    1       -0.461   9.280  -3.167  0.00  0.00    +0.007 C 
ATOM      4  C   LIG    1        0.174   9.883  -2.076  0.00  0.00    +0.027 C 
ATOM      5  C   LIG    1        0.246  11.299  -2.002  0.00  0.00    +0.013 C 
ATOM      6  C   LIG    1        0.889  11.864  -0.885  0.00  0.00    +0.077 C 
ATOM      7  N   LIG    1        1.386  11.071   0.036  0.00  0.00    -0.252 NA
ATOM      8  H   LIG    1        0.927  11.334   0.908  0.00  0.00    +0.141 HD
ATOM      9  N   LIG    1        1.320   9.793  -0.022  0.00  0.00    -0.239 NA
ATOM     10  H   LIG    1        1.757   9.183   0.783  0.00  0.00    +0.142 HD
ATOM     11  C   LIG    1        0.744   9.141  -1.016  0.00  0.00    +0.142 C 
ATOM     12  C   LIG    1       -0.311  12.073  -3.028  0.00  0.00    +0.005 C 
ENDROOT
BRANCH  11  13
ATOM     13  N   LIG    1        0.704   7.756  -1.024  0.00  0.00    -0.283 NA
ATOM     14  C   LIG    1        2.060   7.191  -1.054  0.00  0.00    +0.105 C 
ATOM     15  C   LIG    1        1.971   5.665  -1.142  0.00  0.00    +0.122 C 
ATOM     16  N   LIG    1        1.216   5.154   0.011  0.00  0.00    -0.313 N 
ATOM     17  C   LIG    1       -0.140   5.720   0.042  0.00  0.00    +0.122 C 
ATOM     18  C   LIG    1       -0.051   7.246   0.129  0.00  0.00    +0.105 C 
BRANCH  16  19
ATOM     19  C   LIG    1        1.176   3.765   0.004  0.00  0.00    +0.121 A 
ATOM     20  C   LIG    1        0.505   3.089   1.019  0.00  0.00    +0.043 A 
ATOM     21  C   LIG    1        0.469   1.707   0.997  0.00  0.00    +0.005 A 
ATOM     22  C   LIG    1        1.116   1.043  -0.038  0.00  0.00    +0.020 A 
ATOM     23  C   LIG    1        1.762   1.777  -1.012  0.00  0.00    +0.113 A 
ATOM     24  N   LIG    1        1.777   3.096  -0.968  0.00  0.00    -0.240 NA
ENDBRANCH  16  19
ENDBRANCH  11  13
BRANCH   6  25
ATOM     25  C   LIG    1        1.006  13.360  -0.747  0.00  0.00    +0.055 C 
BRANCH  25  26
ATOM     26  C   LIG    1        2.283  13.826  -1.398  0.00  0.00    -0.043 A 
ATOM     27  C   LIG    1        3.460  13.911  -0.670  0.00  0.00    +0.023 A 
ATOM     28  C   LIG    1        4.613  14.339  -1.302  0.00  0.00    +0.111 A 
ATOM     29  N   LIG    1        4.599  14.673  -2.578  0.00  0.00    -0.263 NA
ATOM     30  C   LIG    1        3.497  14.609  -3.299  0.00  0.00    +0.111 A 
ATOM     31  C   LIG    1        2.307  14.186  -2.737  0.00  0.00    +0.023 A 
ENDBRANCH  25  26
ENDBRANCH   6  25
TORSDOF 4
