REMARK  Name = ZINC29555312
REMARK                            x       y       z     vdW  Elec       q    Type
REMARK                         _______ _______ _______ _____ _____    ______ ____
ROOT
ATOM      1  C   LIG    1       -0.019   1.526   0.010  0.00  0.00    +0.011 C 
ATOM      2  C   LIG    1        0.002  -0.004   0.002  0.00  0.00    +0.025 C 
ATOM      3  C   LIG    1       -1.436  -0.565   0.061  0.00  0.00    +0.025 C 
ATOM      4  C   LIG    1       -2.455   0.575   0.107  0.00  0.00    +0.011 C 
ATOM      5  C   LIG    1       -1.469  -1.377   1.375  0.00  0.00    +0.152 C 
ATOM      6  O   LIG    1       -0.428  -0.799   2.192  0.00  0.00    -0.364 OA
ATOM      7  C   LIG    1        0.672  -0.543   1.286  0.00  0.00    +0.152 C 
ENDROOT
BRANCH   5   8
ATOM      8  C   LIG    1       -2.809  -1.232   2.048  0.00  0.00    -0.015 A 
ATOM      9  C   LIG    1       -3.090  -0.099   2.788  0.00  0.00    +0.010 A 
ATOM     10  C   LIG    1       -4.319   0.039   3.408  0.00  0.00    +0.050 A 
ATOM     11  C   LIG    1       -5.271  -0.960   3.287  0.00  0.00    +0.162 A 
ATOM     12  C   LIG    1       -4.989  -2.101   2.541  0.00  0.00    +0.162 A 
ATOM     13  C   LIG    1       -3.757  -2.230   1.919  0.00  0.00    +0.055 A 
BRANCH  11  14
ATOM     14  O   LIG    1       -6.480  -0.827   3.896  0.00  0.00    -0.491 OA
ATOM     15  C   LIG    1       -6.700   0.370   4.645  0.00  0.00    +0.277 C 
ENDBRANCH  11  14
BRANCH  12  16
ATOM     16  O   LIG    1       -5.920  -3.084   2.420  0.00  0.00    -0.491 OA
ATOM     17  C   LIG    1       -5.561  -4.226   1.640  0.00  0.00    +0.277 C 
ENDBRANCH  12  16
ENDBRANCH   5   8
BRANCH   7  18
ATOM     18  C   LIG    1        1.603   0.490   1.865  0.00  0.00    -0.015 A 
ATOM     19  C   LIG    1        1.111   1.466   2.710  0.00  0.00    +0.010 A 
ATOM     20  C   LIG    1        1.961   2.416   3.244  0.00  0.00    +0.050 A 
ATOM     21  C   LIG    1        3.311   2.390   2.933  0.00  0.00    +0.162 A 
ATOM     22  C   LIG    1        3.808   1.407   2.083  0.00  0.00    +0.162 A 
ATOM     23  C   LIG    1        2.950   0.455   1.554  0.00  0.00    +0.055 A 
BRANCH  21  24
ATOM     24  O   LIG    1        4.150   3.324   3.457  0.00  0.00    -0.491 OA
ATOM     25  C   LIG    1        3.570   4.303   4.322  0.00  0.00    +0.277 C 
ENDBRANCH  21  24
BRANCH  22  26
ATOM     26  O   LIG    1        5.132   1.377   1.774  0.00  0.00    -0.491 OA
ATOM     27  C   LIG    1        5.570   0.339   0.895  0.00  0.00    +0.277 C 
ENDBRANCH  22  26
ENDBRANCH   7  18
TORSDOF 6
