REMARK  Name = ZINC27721564
REMARK                            x       y       z     vdW  Elec       q    Type
REMARK                         _______ _______ _______ _____ _____    ______ ____
ROOT
ATOM      1  N   LIG    1        0.031   1.243   0.591  0.00  0.00    -0.260 N 
ATOM      2  C   LIG    1        0.109  -0.007   0.094  0.00  0.00    +0.224 C 
ATOM      3  O   LIG    1        1.171  -0.436  -0.306  0.00  0.00    -0.275 OA
ENDROOT
BRANCH   1   8
ATOM      4  C   LIG    1        4.733   4.364   1.169  0.00  0.00    +0.044 C 
ATOM      5  C   LIG    1        3.484   3.535   1.016  0.00  0.00    -0.050 A 
ATOM      6  C   LIG    1        2.281   4.001   1.514  0.00  0.00    +0.005 A 
ATOM      7  C   LIG    1        1.135   3.243   1.375  0.00  0.00    +0.024 A 
ATOM      8  C   LIG    1        1.191   2.013   0.734  0.00  0.00    +0.037 A 
ATOM      9  C   LIG    1        2.401   1.545   0.239  0.00  0.00    +0.024 A 
ATOM     10  C   LIG    1        3.543   2.310   0.377  0.00  0.00    +0.005 A 
ENDBRANCH   1   8
BRANCH   2  11
ATOM     11  C   LIG    1       -1.123  -0.873   0.034  0.00  0.00    +0.082 C 
ATOM     12  C   LIG    1       -2.033  -0.388  -1.097  0.00  0.00    +0.018 C 
BRANCH  11  13
ATOM     13  C   LIG    1       -0.715  -2.324  -0.227  0.00  0.00    +0.078 C 
BRANCH  13  14
ATOM     14  S   LIG    1       -2.183  -3.388  -0.152  0.00  0.00    -0.178 S 
ATOM     15  H   LIG    1       -2.086  -4.471  -0.316  0.00  0.00    +0.102 HD
ENDBRANCH  13  14
ENDBRANCH  11  13
ENDBRANCH   2  11
BRANCH   1  16
ATOM     16  C   LIG    1       -1.269   1.798   0.977  0.00  0.00    +0.233 C 
BRANCH  16  17
ATOM     17  C   LIG    1       -1.485   1.591   2.454  0.00  0.00    +0.323 C 
ATOM     18  O   LIG    1       -0.639   1.037   3.117  0.00  0.00    -0.249 OA
BRANCH  17  19
ATOM     19  O   LIG    1       -2.616   2.023   3.034  0.00  0.00    -0.480 OA
ATOM     20  H   LIG    1       -3.271   2.452   2.520  0.00  0.00    +0.295 HD
ENDBRANCH  17  19
ENDBRANCH  16  17
ENDBRANCH   1  16
TORSDOF 7
