REMARK  Name = ZINC15834312
REMARK                            x       y       z     vdW  Elec       q    Type
REMARK                         _______ _______ _______ _____ _____    ______ ____
ROOT
ATOM      1  C   LIG    1        3.776   1.885   0.085  0.00  0.00    +0.069 A 
ATOM      2  C   LIG    1        4.434   2.330  -1.034  0.00  0.00    +0.089 A 
ATOM      3  C   LIG    1        5.573   3.153  -0.554  0.00  0.00    +0.082 A 
ATOM      4  N   LIG    1        6.426   3.743  -1.500  0.00  0.00    -0.294 N 
ATOM      5  C   LIG    1        7.572   4.559  -1.089  0.00  0.00    +0.154 C 
ATOM      6  C   LIG    1        6.156   3.515  -2.804  0.00  0.00    +0.332 A 
ATOM      7  N   LIG    1        5.139   2.784  -3.271  0.00  0.00    -0.263 N 
ATOM      8  C   LIG    1        4.992   2.652  -4.722  0.00  0.00    +0.157 C 
ATOM      9  O   LIG    1        6.897   4.024  -3.623  0.00  0.00    -0.246 OA
ATOM     10  C   LIG    1        5.520   3.139   0.769  0.00  0.00    +0.073 A 
ATOM     11  C   LIG    1        6.417   3.831   1.774  0.00  0.00    +0.150 C 
ATOM     12  N   LIG    1        6.339   3.083   3.038  0.00  0.00    -0.330 N 
ATOM     13  H   LIG    1        7.137   2.958   3.576  0.00  0.00    +0.147 HD
ATOM     14  C   LIG    1        5.117   2.554   3.468  0.00  0.00    +0.052 A 
ATOM     15  C   LIG    1        4.851   2.402   4.820  0.00  0.00    +0.025 A 
ATOM     16  C   LIG    1        3.647   1.859   5.229  0.00  0.00    +0.002 A 
ATOM     17  C   LIG    1        2.705   1.465   4.297  0.00  0.00    +0.002 A 
ATOM     18  C   LIG    1        2.957   1.619   2.945  0.00  0.00    +0.028 A 
ATOM     19  C   LIG    1        4.154   2.169   2.530  0.00  0.00    +0.068 A 
ATOM     20  C   LIG    1        4.232   2.158  -2.476  0.00  0.00    +0.266 A 
ATOM     21  O   LIG    1        3.316   1.498  -2.930  0.00  0.00    -0.267 OA
ATOM     22  N   LIG    1        4.442   2.363   1.171  0.00  0.00    -0.306 N 
ENDROOT
BRANCH   1  29
ATOM     23  C   LIG    1        4.053  -0.995   0.124  0.00  0.00    +0.044 C 
ATOM     24  C   LIG    1        2.689  -0.355   0.126  0.00  0.00    -0.041 A 
ATOM     25  C   LIG    1        1.556  -1.142   0.147  0.00  0.00    +0.004 A 
ATOM     26  C   LIG    1        0.303  -0.555   0.148  0.00  0.00    +0.000 A 
ATOM     27  C   LIG    1        0.176   0.823   0.129  0.00  0.00    +0.001 A 
ATOM     28  C   LIG    1        1.300   1.621   0.109  0.00  0.00    +0.010 A 
ATOM     29  C   LIG    1        2.569   1.037   0.107  0.00  0.00    +0.003 A 
ENDBRANCH   1  29
BRANCH  11  30
ATOM     30  C   LIG    1        5.946   5.246   1.988  0.00  0.00    -0.018 A 
ATOM     31  C   LIG    1        6.755   6.306   1.623  0.00  0.00    +0.006 A 
ATOM     32  C   LIG    1        6.325   7.606   1.817  0.00  0.00    +0.004 A 
ATOM     33  C   LIG    1        5.086   7.848   2.377  0.00  0.00    +0.045 A 
ATOM     34  C   LIG    1        4.272   6.787   2.744  0.00  0.00    +0.120 A 
ATOM     35  C   LIG    1        4.703   5.483   2.543  0.00  0.00    +0.051 A 
BRANCH  34  36
ATOM     36  O   LIG    1        3.052   7.023   3.294  0.00  0.00    -0.495 OA
ATOM     37  C   LIG    1        2.671   8.389   3.466  0.00  0.00    +0.277 C 
ENDBRANCH  34  36
ENDBRANCH  11  30
TORSDOF 3
