REMARK  Name = ZINC40848506
REMARK                            x       y       z     vdW  Elec       q    Type
REMARK                         _______ _______ _______ _____ _____    ______ ____
ROOT
ATOM      1  C   LIG    1       -0.017   1.375   0.010  0.00  0.00    +0.078 A 
ATOM      2  C   LIG    1        1.321   1.793  -0.001  0.00  0.00    +0.099 A 
ATOM      3 CL   LIG    1        1.887   3.434   0.003  0.00  0.00    -0.079 Cl
ATOM      4  C   LIG    1        2.089   0.676  -0.014  0.00  0.00    +0.213 A 
ATOM      5 CL   LIG    1        3.825   0.647  -0.032  0.00  0.00    -0.042 Cl
ATOM      6  O   LIG    1        1.293  -0.400  -0.012  0.00  0.00    -0.436 OA
ATOM      7  C   LIG    1        0.002  -0.004   0.002  0.00  0.00    +0.215 A 
ENDROOT
BRANCH   7   8
ATOM      8  C   LIG    1       -1.131  -0.854   0.009  0.00  0.00    +0.373 C 
ATOM      9  O   LIG    1       -2.258  -0.372   0.023  0.00  0.00    -0.242 OA
BRANCH   8  10
ATOM     10  O   LIG    1       -0.985  -2.070   0.001  0.00  0.00    -0.475 OA
ATOM     11  H   LIG    1       -0.123  -2.438  -0.010  0.00  0.00    +0.296 HD
ENDBRANCH   8  10
ENDBRANCH   7   8
TORSDOF 2
