REMARK  Name = ZINC28474872
REMARK                            x       y       z     vdW  Elec       q    Type
REMARK                         _______ _______ _______ _____ _____    ______ ____
ROOT
ATOM      1  C   LIG    1       -1.117   5.864  -1.067  0.00  0.00    +0.272 C 
ENDROOT
BRANCH   1   2
ATOM      2  P   LIG    1       -1.088   7.686  -1.017  0.00  0.00    +0.371 P 
ATOM      3  O   LIG    1       -1.582   8.151   0.299  0.00  0.00    -0.255 OA
BRANCH   2   4
ATOM      4  O   LIG    1       -2.033   8.271  -2.182  0.00  0.00    -0.322 OA
ATOM      5  H   LIG    1       -2.142   9.358  -2.308  0.00  0.00    +0.220 HD
ENDBRANCH   2   4
BRANCH   2   6
ATOM      6  O   LIG    1        0.420   8.205  -1.238  0.00  0.00    -0.322 OA
ATOM      7  H   LIG    1        0.989   7.852  -0.536  0.00  0.00    +0.220 HD
ENDBRANCH   2   6
ENDBRANCH   1   2
BRANCH   1   8
ATOM      8  P   LIG    1       -2.825   5.277  -0.817  0.00  0.00    +0.371 P 
ATOM      9  O   LIG    1       -3.671   5.724  -1.946  0.00  0.00    -0.255 OA
BRANCH   8  10
ATOM     10  O   LIG    1       -3.403   5.879   0.559  0.00  0.00    -0.322 OA
ATOM     11  H   LIG    1       -3.398   6.848   0.516  0.00  0.00    +0.220 HD
ENDBRANCH   8  10
BRANCH   8  12
ATOM     12  O   LIG    1       -2.834   3.668  -0.745  0.00  0.00    -0.322 OA
ATOM     13  H   LIG    1       -3.781   3.130  -0.596  0.00  0.00    +0.220 HD
ENDBRANCH   8  12
ENDBRANCH   1   8
BRANCH   1  14
ATOM     14  O   LIG    1       -0.640   5.415  -2.337  0.00  0.00    -0.367 OA
ATOM     15  H   LIG    1       -1.162   5.715  -3.258  0.00  0.00    +0.212 HD
ENDBRANCH   1  14
BRANCH   1  16
ATOM     16  C   LIG    1       -0.219   5.308   0.040  0.00  0.00    +0.115 C 
BRANCH  16  21
ATOM     17  C   LIG    1        3.041   7.063   0.747  0.00  0.00    +0.003 A 
ATOM     18  C   LIG    1        3.695   6.825  -0.452  0.00  0.00    +0.020 A 
ATOM     19  C   LIG    1        3.048   6.109  -1.442  0.00  0.00    +0.111 A 
ATOM     20  N   LIG    1        1.828   5.646  -1.251  0.00  0.00    -0.260 NA
ATOM     21  C   LIG    1        1.176   5.854  -0.124  0.00  0.00    +0.045 A 
ATOM     22  C   LIG    1        1.757   6.565   0.908  0.00  0.00    +0.023 A 
ENDBRANCH  16  21
ENDBRANCH   1  16
TORSDOF 9
