REMARK  Name = ZINC34169081
REMARK                            x       y       z     vdW  Elec       q    Type
REMARK                         _______ _______ _______ _____ _____    ______ ____
ROOT
ATOM      1  C   LIG    1       -0.136  -1.765  -0.999  0.00  0.00    +0.182 C 
ATOM      2  C   LIG    1       -1.424  -2.553  -1.200  0.00  0.00    +0.046 C 
ATOM      3  C   LIG    1       -1.111  -4.035  -1.382  0.00  0.00    +0.011 C 
ATOM      4  C   LIG    1       -0.275  -4.229  -2.660  0.00  0.00    -0.018 C 
ATOM      5  C   LIG    1       -1.112  -3.767  -3.847  0.00  0.00    +0.012 C 
ATOM      6  C   LIG    1        1.016  -3.431  -2.512  0.00  0.00    +0.005 C 
ATOM      7  C   LIG    1        1.894  -3.641  -3.744  0.00  0.00    +0.005 C 
ATOM      8  C   LIG    1        2.343  -5.111  -3.755  0.00  0.00    +0.008 C 
ATOM      9  C   LIG    1        1.141  -6.040  -3.812  0.00  0.00    -0.013 C 
ATOM     10  C   LIG    1        0.513  -5.933  -5.211  0.00  0.00    +0.013 C 
ATOM     11  C   LIG    1        1.582  -7.505  -3.658  0.00  0.00    -0.004 C 
ATOM     12  C   LIG    1        2.301  -7.633  -2.308  0.00  0.00    +0.016 C 
ATOM     13  C   LIG    1        2.585  -7.866  -4.745  0.00  0.00    +0.012 C 
ATOM     14  C   LIG    1        2.768  -9.373  -4.902  0.00  0.00    +0.008 C 
ATOM     15  C   LIG    1        1.434 -10.058  -5.174  0.00  0.00    -0.025 C 
ATOM     16  C   LIG    1        0.755  -9.413  -6.388  0.00  0.00    +0.012 C 
ATOM     17  C   LIG    1        0.532  -9.897  -3.953  0.00  0.00    +0.023 C 
ATOM     18  C   LIG    1        1.108 -10.637  -2.752  0.00  0.00    +0.026 C 
ATOM     19  C   LIG    1        1.320 -12.119  -3.059  0.00  0.00    +0.065 C 
ATOM     20  C   LIG    1        2.011 -12.775  -1.853  0.00  0.00    +0.023 C 
ATOM     21  C   LIG    1        2.219 -12.276  -4.283  0.00  0.00    +0.018 C 
ATOM     22  C   LIG    1        1.643 -11.539  -5.485  0.00  0.00    +0.008 C 
ATOM     23  C   LIG    1        0.397  -8.421  -3.631  0.00  0.00    -0.056 C 
ATOM     24  C   LIG    1       -0.838  -7.996  -3.332  0.00  0.00    +0.046 C 
ATOM     25  C   LIG    1       -1.107  -6.590  -2.999  0.00  0.00    +0.160 C 
ATOM     26  O   LIG    1       -2.253  -6.198  -2.905  0.00  0.00    -0.292 OA
ATOM     27  C   LIG    1        0.095  -5.707  -2.760  0.00  0.00    +0.073 C 
ATOM     28  C   LIG    1        0.858  -1.975  -2.141  0.00  0.00    +0.006 C 
ATOM     29  C   LIG    1        0.474  -1.097  -3.333  0.00  0.00    +0.015 C 
ATOM     30  C   LIG    1        2.225  -1.460  -1.624  0.00  0.00    +0.015 C 
ENDROOT
BRANCH  19  31
ATOM     31  C   LIG    1       -0.002 -12.801  -3.285  0.00  0.00    +0.311 C 
ATOM     32  O   LIG    1       -0.073 -13.759  -4.037  0.00  0.00    -0.250 OA
BRANCH  31  33
ATOM     33  O   LIG    1       -1.002 -12.397  -2.717  0.00  0.00    -0.480 OA
ATOM     34  H   LIG    1       -0.948 -11.661  -2.139  0.00  0.00    +0.295 HD
ENDBRANCH  31  33
ENDBRANCH  19  31
BRANCH   1  35
ATOM     35  O   LIG    1       -0.447  -0.369  -0.902  0.00  0.00    -0.461 OA
BRANCH  35  37
ATOM     36  C   LIG    1       -1.058   1.569   0.501  0.00  0.00    +0.136 C 
ATOM     37  C   LIG    1       -0.723   0.110   0.321  0.00  0.00    +0.304 C 
ATOM     38  O   LIG    1       -0.702  -0.627   1.278  0.00  0.00    -0.251 OA
ENDBRANCH  35  37
ENDBRANCH   1  35
TORSDOF 4
