REMARK  Name = ZINC35902488
REMARK                            x       y       z     vdW  Elec       q    Type
REMARK                         _______ _______ _______ _____ _____    ______ ____
ROOT
ATOM      1  C   LIG    1       -0.032  -0.600   2.304  0.00  0.00    +0.151 C 
ATOM      2  C   LIG    1       -1.399  -0.378   2.296  0.00  0.00    +0.044 C 
ATOM      3  C   LIG    1       -2.102  -0.517   3.497  0.00  0.00    +0.038 C 
ATOM      4  C   LIG    1       -1.409  -0.869   4.650  0.00  0.00    +0.090 C 
ATOM      5  N   LIG    1       -0.106  -1.071   4.620  0.00  0.00    -0.299 NA
ATOM      6  H   LIG    1        0.353  -1.315   5.439  0.00  0.00    +0.123 HD
ATOM      7  C   LIG    1        0.592  -0.955   3.502  0.00  0.00    +0.148 C 
ENDROOT
BRANCH   3   8
ATOM      8  C   LIG    1       -3.569  -0.290   3.541  0.00  0.00    -0.006 A 
ATOM      9  C   LIG    1       -4.389   0.064   2.452  0.00  0.00    +0.138 A 
ATOM     10  N   LIG    1       -5.617   0.172   2.886  0.00  0.00    -0.179 NA
ATOM     11  N   LIG    1       -5.629  -0.106   4.258  0.00  0.00    -0.268 N 
ATOM     12  C   LIG    1       -4.368  -0.392   4.642  0.00  0.00    +0.112 A 
BRANCH  11  13
ATOM     13  C   LIG    1       -6.809  -0.094   5.127  0.00  0.00    +0.104 C 
ATOM     14  C   LIG    1       -6.415   0.406   6.519  0.00  0.00    +0.008 C 
ATOM     15  C   LIG    1       -7.633   0.341   7.442  0.00  0.00    -0.081 C 
ATOM     16  N   LIG    1       -8.108  -1.045   7.535  0.00  0.00    +0.379 N 
ATOM     17  H   LIG    1       -8.878  -1.093   8.185  0.00  0.00    -0.086 HD
ATOM     18  H   LIG    1       -7.358  -1.635   7.861  0.00  0.00    -0.086 HD
ATOM     19  C   LIG    1       -8.555  -1.507   6.215  0.00  0.00    -0.081 C 
ATOM     20  C   LIG    1       -7.372  -1.513   5.245  0.00  0.00    +0.008 C 
ENDBRANCH  11  13
ENDBRANCH   3   8
BRANCH   7  21
ATOM     21  N   LIG    1        1.965  -1.186   3.520  0.00  0.00    -0.313 NA
ATOM     22  H   LIG    1        2.404  -1.433   4.349  0.00  0.00    +0.120 HD
ATOM     23  H   LIG    1        2.483  -1.099   2.705  0.00  0.00    +0.120 HD
ENDBRANCH   7  21
BRANCH   1  24
ATOM     24  O   LIG    1        0.693  -0.477   1.160  0.00  0.00    -0.366 OA
BRANCH  24  26
ATOM     25  C   LIG    1       -0.290   1.265  -0.196  0.00  0.00    +0.043 C 
ATOM     26  C   LIG    1       -0.034  -0.236  -0.046  0.00  0.00    +0.149 C 
BRANCH  26  27
ATOM     27  C   LIG    1        0.767  -0.729  -1.224  0.00  0.00    +0.020 A 
ATOM     28  C   LIG    1        2.120  -0.449  -1.306  0.00  0.00    +0.048 A 
ATOM     29 CL   LIG    1        2.893   0.471  -0.052  0.00  0.00    -0.083 Cl
ATOM     30  C   LIG    1        2.856  -0.901  -2.386  0.00  0.00    +0.023 A 
ATOM     31  C   LIG    1        2.242  -1.633  -3.384  0.00  0.00    +0.041 A 
ATOM     32  C   LIG    1        0.889  -1.915  -3.303  0.00  0.00    +0.142 A 
ATOM     33  F   LIG    1        0.288  -2.630  -4.279  0.00  0.00    -0.204 F 
ATOM     34  C   LIG    1        0.152  -1.466  -2.219  0.00  0.00    +0.083 A 
ATOM     35 CL   LIG    1       -1.543  -1.824  -2.113  0.00  0.00    -0.080 Cl
ENDBRANCH  26  27
ENDBRANCH  24  26
ENDBRANCH   1  24
TORSDOF 6
