REMARK  Name = ZINC64479794
REMARK                            x       y       z     vdW  Elec       q    Type
REMARK                         _______ _______ _______ _____ _____    ______ ____
ROOT
ATOM      1  C   LIG    1        0.516  -2.044   1.256  0.00  0.00    +0.049 C 
ENDROOT
BRANCH   1   2
ATOM      2  C   LIG    1        1.238  -2.581   2.465  0.00  0.00    -0.046 A 
ATOM      3  C   LIG    1        2.558  -2.978   2.360  0.00  0.00    +0.007 A 
ATOM      4  C   LIG    1        3.222  -3.471   3.466  0.00  0.00    +0.046 A 
ATOM      5  C   LIG    1        2.564  -3.567   4.684  0.00  0.00    +0.120 A 
ATOM      6  C   LIG    1        1.240  -3.167   4.787  0.00  0.00    +0.046 A 
ATOM      7  C   LIG    1        0.581  -2.670   3.679  0.00  0.00    +0.007 A 
BRANCH   5   8
ATOM      8  O   LIG    1        3.215  -4.052   5.774  0.00  0.00    -0.495 OA
ATOM      9  C   LIG    1        2.475  -4.122   6.994  0.00  0.00    +0.277 C 
ENDBRANCH   5   8
ENDBRANCH   1   2
BRANCH   1  10
ATOM     10  C   LIG    1        0.706  -0.527   1.180  0.00  0.00    +0.070 C 
BRANCH  10  12
ATOM     11  C   LIG    1       -0.018   1.465   0.010  0.00  0.00    +0.084 C 
ATOM     12  N   LIG    1        0.002  -0.004   0.002  0.00  0.00    -0.358 NA
BRANCH  12  13
ATOM     13  N   LIG    1        0.594  -0.510  -1.226  0.00  0.00    +0.389 N 
ATOM     14  H   LIG    1        0.093  -0.137  -2.019  0.00  0.00    -0.065 HD
ATOM     15  H   LIG    1        0.537  -1.518  -1.236  0.00  0.00    -0.065 HD
ATOM     16  H   LIG    1        1.561  -0.228  -1.275  0.00  0.00    -0.065 HD
ENDBRANCH  12  13
ENDBRANCH  10  12
ENDBRANCH   1  10
TORSDOF 5
