REMARK  Name = ZINC36237989
REMARK                            x       y       z     vdW  Elec       q    Type
REMARK                         _______ _______ _______ _____ _____    ______ ____
ROOT
ATOM      1  C   LIG    1       -0.026   1.460  -0.163  0.00  0.00    -0.096 C 
ATOM      2  N   LIG    1       -0.002  -0.006  -0.082  0.00  0.00    +0.380 N 
ATOM      3  H   LIG    1       -0.945  -0.352   0.009  0.00  0.00    -0.082 HD
ATOM      4  C   LIG    1        0.600  -0.552  -1.306  0.00  0.00    -0.060 C 
ATOM      5  C   LIG    1        0.521  -2.082  -1.273  0.00  0.00    +0.088 C 
ATOM      6  N   LIG    1        1.144  -2.555  -0.027  0.00  0.00    -0.316 N 
ATOM      7  C   LIG    1        0.715  -1.940   1.239  0.00  0.00    +0.088 C 
ATOM      8  C   LIG    1        0.784  -0.417   1.088  0.00  0.00    -0.060 C 
ENDROOT
BRANCH   6   9
ATOM      9  C   LIG    1        2.112  -3.554  -0.045  0.00  0.00    +0.157 A 
ATOM     10  C   LIG    1        1.728  -4.890   0.058  0.00  0.00    +0.163 A 
ATOM     11  F   LIG    1        0.424  -5.220   0.177  0.00  0.00    -0.202 F 
ATOM     12  C   LIG    1        2.703  -5.873   0.038  0.00  0.00    +0.043 A 
ATOM     13  C   LIG    1        4.032  -5.486  -0.085  0.00  0.00    +0.023 A 
ATOM     14  C   LIG    1        4.339  -4.144  -0.183  0.00  0.00    +0.113 A 
ATOM     15  N   LIG    1        3.389  -3.228  -0.166  0.00  0.00    -0.237 NA
ENDBRANCH   6   9
TORSDOF 1
