REMARK  Name = ZINC28124765
REMARK                            x       y       z     vdW  Elec       q    Type
REMARK                         _______ _______ _______ _____ _____    ______ ____
ROOT
ATOM      1  C   UNK A  1       -0.905 -11.793  -0.057  0.00  0.00    +0.185 C 
ENDROOT
BRANCH   1   2
ATOM      2  N   UNK A  1       -1.626 -11.576   1.200  0.00  0.00    -0.268 N 
ATOM      3  H   UNK A  1       -1.143 -11.295   1.993  0.00  0.00    +0.153 HD
ATOM      4  C   UNK A  0       -2.959 -11.767   1.254  0.00  0.00    +0.401 C 
ATOM      5  O   UNK A  0       -3.563 -12.119   0.260  0.00  0.00    -0.226 OA
BRANCH   4   6
ATOM      6  O   UNK A  0       -3.621 -11.568   2.409  0.00  0.00    -0.449 OA
BRANCH   6   7
ATOM      7  C   UNK A  0       -5.033 -11.789   2.394  0.00  0.00    +0.246 C 
BRANCH   7   8
ATOM      8  C   UNK A  0       -5.607 -11.515   3.786  0.00  0.00    +0.088 C 
ATOM      9  C   UNK A  0       -5.518 -10.042   4.104  0.00  0.00    -0.029 A 
ATOM     10  C   UNK A  0       -4.446  -9.182   4.213  0.00  0.00    +0.005 A 
ATOM     11  C   UNK A  0       -4.656  -7.849   4.522  0.00  0.00    +0.000 A 
ATOM     12  C   UNK A  0       -5.941  -7.378   4.722  0.00  0.00    +0.001 A 
ATOM     13  C   UNK A  0       -7.019  -8.232   4.615  0.00  0.00    +0.009 A 
ATOM     14  C   UNK A  0       -6.815  -9.577   4.303  0.00  0.00    -0.014 A 
ATOM     15  C   UNK A  0       -7.774 -10.697   4.128  0.00  0.00    -0.014 A 
ATOM     16  C   UNK A  0       -9.166 -10.739   4.223  0.00  0.00    +0.009 A 
ATOM     17  C   UNK A  0       -9.835 -11.926   4.012  0.00  0.00    +0.001 A 
ATOM     18  C   UNK A  0       -9.133 -13.078   3.706  0.00  0.00    +0.000 A 
ATOM     19  C   UNK A  0       -7.753 -13.043   3.610  0.00  0.00    +0.005 A 
ATOM     20  C   UNK A  0       -7.075 -11.861   3.820  0.00  0.00    -0.029 A 
ENDBRANCH   7   8
ENDBRANCH   6   7
ENDBRANCH   4   6
ENDBRANCH   1   2
BRANCH   1  21
ATOM     21  C   UNK A  1       -0.556 -13.252  -0.191  0.00  0.00    +0.325 C 
ATOM     22  O   UNK A  1       -0.359 -13.926   0.806  0.00  0.00    -0.249 OA
BRANCH  21  23
ATOM     23  O   UNK A  1       -0.471 -13.760  -1.296  0.00  0.00    -0.479 OA
ATOM     24  H   UNK A  1       -0.622 -13.243  -2.062  0.00  0.00    +0.295 HD
ENDBRANCH  21  23
ENDBRANCH   1  21
BRANCH   1  25
ATOM     25  C   UNK A  1        0.378 -10.959  -0.059  0.00  0.00    +0.037 C 
BRANCH  25  26
ATOM     26  C   UNK A  1        0.020  -9.472  -0.050  0.00  0.00    +0.039 C 
BRANCH  26  27
ATOM     27  C   UNK A  1        1.302  -8.638  -0.052  0.00  0.00    +0.196 C 
BRANCH  27  28
ATOM     28  N   UNK A  1        0.960  -7.214  -0.042  0.00  0.00    -0.274 N 
ATOM     29  H   UNK A  1        0.029  -6.939  -0.036  0.00  0.00    +0.258 HD
BRANCH  28  31
ATOM     30  N   UNK A  1        1.651  -4.999  -0.034  0.00  0.00    +0.062 NA
ATOM     31  C   UNK A  1        1.956  -6.267  -0.043  0.00  0.00    +0.406 C 
BRANCH  30  32
ATOM     32  S   UNK A  1        0.063  -4.530  -0.023  0.00  0.00    +0.155 S 
ATOM     33  O   UNK A  1       -0.490  -4.937  -1.267  0.00  0.00    -0.132 OA
ATOM     34  O   UNK A  1       -0.476  -4.950   1.223  0.00  0.00    -0.132 OA
BRANCH  32  39
ATOM     35  C   UNK A  1       -0.018   1.503   0.010  0.00  0.00    +0.044 C 
ATOM     36  C   UNK A  1        0.002  -0.004   0.002  0.00  0.00    -0.050 A 
ATOM     37  C   UNK A  1        0.006  -0.689  -1.199  0.00  0.00    +0.005 A 
ATOM     38  C   UNK A  1        0.025  -2.071  -1.206  0.00  0.00    +0.030 A 
ATOM     39  C   UNK A  1        0.040  -2.768  -0.013  0.00  0.00    +0.127 A 
ATOM     40  C   UNK A  1        0.037  -2.084   1.188  0.00  0.00    +0.030 A 
ATOM     41  C   UNK A  1        0.023  -0.702   1.195  0.00  0.00    +0.005 A 
ENDBRANCH  32  39
ENDBRANCH  30  32
BRANCH  31  42
ATOM     42  N   UNK A  1        3.275  -6.656  -0.052  0.00  0.00    -0.287 N 
ATOM     43  H   UNK A  1        3.502  -7.599  -0.059  0.00  0.00    +0.255 HD
ATOM     44  H   UNK A  1        3.978  -5.988  -0.052  0.00  0.00    +0.255 HD
ENDBRANCH  31  42
ENDBRANCH  28  31
ENDBRANCH  27  28
ENDBRANCH  26  27
ENDBRANCH  25  26
ENDBRANCH   1  25
TORSDOF 14
