REMARK  Name = ZINC25514953
REMARK                            x       y       z     vdW  Elec       q    Type
REMARK                         _______ _______ _______ _____ _____    ______ ____
ROOT
ATOM      1  C   LIG    1       -3.974   0.217  -4.149  0.00  0.00    +0.100 C 
ATOM      2  C   LIG    1       -4.786   1.473  -3.886  0.00  0.00    +0.070 C 
ATOM      3  C   LIG    1       -6.160   1.386  -4.039  0.00  0.00    +0.049 C 
ATOM      4  C   LIG    1       -7.002   2.610  -3.788  0.00  0.00    +0.066 C 
ATOM      5  N   LIG    1       -6.755   0.265  -4.398  0.00  0.00    -0.256 NA
ATOM      6  C   LIG    1       -6.145  -0.877  -4.649  0.00  0.00    +0.049 C 
ATOM      7  C   LIG    1       -6.970  -2.073  -5.048  0.00  0.00    +0.066 C 
ATOM      8  C   LIG    1       -4.772  -1.009  -4.557  0.00  0.00    +0.065 C 
ATOM      9  C   LIG    1       -4.146  -2.221  -4.828  0.00  0.00    +0.285 C 
ENDROOT
BRANCH   1  15
ATOM     10  C   LIG    1       -1.620   0.455  -4.978  0.00  0.00    +0.125 A 
ATOM     11  C   LIG    1       -0.708   0.728  -5.987  0.00  0.00    +0.046 A 
ATOM     12  C   LIG    1       -1.156   1.067  -7.249  0.00  0.00    +0.004 A 
ATOM     13  C   LIG    1       -2.513   1.134  -7.507  0.00  0.00    +0.001 A 
ATOM     14  C   LIG    1       -3.424   0.863  -6.503  0.00  0.00    +0.008 A 
ATOM     15  C   LIG    1       -2.981   0.518  -5.241  0.00  0.00    +0.007 A 
BRANCH  10  16
ATOM     16  O   LIG    1       -1.181   0.121  -3.736  0.00  0.00    -0.485 OA
BRANCH  16  17
ATOM     17  C   LIG    1        0.233   0.075  -3.538  0.00  0.00    +0.291 C 
BRANCH  17  20
ATOM     18  C   LIG    1        0.577   2.091  -1.144  0.00  0.00    +0.071 C 
ATOM     19  C   LIG    1        0.682   0.591  -1.042  0.00  0.00    +0.109 A 
ATOM     20  C   LIG    1        0.529  -0.310  -2.112  0.00  0.00    +0.158 A 
ATOM     21  N   LIG    1        0.682  -1.527  -1.677  0.00  0.00    -0.012 N 
ATOM     22  O   LIG    1        0.944  -1.451  -0.285  0.00  0.00    -0.230 OA
ATOM     23  N   LIG    1        0.933  -0.072   0.049  0.00  0.00    -0.053 NA
BRANCH  21  24
ATOM     24  O   LIG    1        0.602  -2.710  -2.452  0.00  0.00    -0.397 OA
ATOM     25  H   LIG    1        0.423  -2.657  -3.370  0.00  0.00    +0.329 HD
ENDBRANCH  21  24
ENDBRANCH  17  20
ENDBRANCH  16  17
ENDBRANCH  10  16
ENDBRANCH   1  15
BRANCH   2  26
ATOM     26  C   LIG    1       -4.175   2.662  -3.506  0.00  0.00    +0.338 C 
ATOM     27  O   LIG    1       -4.894   3.780  -3.409  0.00  0.00    -0.245 OA
BRANCH  26  28
ATOM     28  O   LIG    1       -2.854   2.685  -3.236  0.00  0.00    -0.465 OA
ATOM     29  C   LIG    1       -2.292   3.942  -2.852  0.00  0.00    +0.280 C 
ENDBRANCH  26  28
ENDBRANCH   2  26
BRANCH   9  30
ATOM     30  O   LIG    1       -2.806  -2.324  -4.730  0.00  0.00    -0.467 OA
ATOM     31  C   LIG    1       -2.231  -3.599  -5.023  0.00  0.00    +0.280 C 
ENDBRANCH   9  30
BRANCH   9  32
ATOM     32  O   LIG    1       -4.872  -3.280  -5.185  0.00  0.00    -0.480 OA
ATOM     33  H   LIG    1       -5.804  -3.207  -5.253  0.00  0.00    +0.295 HD
ENDBRANCH   9  32
TORSDOF 9
