REMARK  Name = ZINC14960724
REMARK                            x       y       z     vdW  Elec       q    Type
REMARK                         _______ _______ _______ _____ _____    ______ ____
ROOT
ATOM      1  C   LIG    1       -0.560  -5.229   1.149  0.00  0.00    +0.106 A 
ATOM      2  C   LIG    1       -1.449  -5.814   0.251  0.00  0.00    +0.029 A 
ATOM      3  C   LIG    1       -1.162  -7.005  -0.347  0.00  0.00    +0.012 A 
ATOM      4  C   LIG    1        0.047  -7.650  -0.053  0.00  0.00    +0.007 A 
ATOM      5  C   LIG    1        0.951  -7.053   0.861  0.00  0.00    +0.047 A 
ATOM      6  C   LIG    1        2.204  -7.751   1.146  0.00  0.00    +0.240 A 
ATOM      7  N   LIG    1        2.446  -8.908   0.543  0.00  0.00    -0.220 NA
ATOM      8  C   LIG    1        1.593  -9.457  -0.310  0.00  0.00    +0.135 A 
ATOM      9  C   LIG    1        0.405  -8.882  -0.636  0.00  0.00    +0.067 A 
ATOM     10 CL   LIG    1       -0.664  -9.659  -1.762  0.00  0.00    -0.081 Cl
ATOM     11  C   LIG    1        0.628  -5.829   1.452  0.00  0.00    +0.042 A 
ENDROOT
BRANCH   1  12
ATOM     12  S   LIG    1       -0.971  -3.689   1.899  0.00  0.00    +0.061 S 
ATOM     13  O   LIG    1       -2.388  -3.589   1.871  0.00  0.00    -0.153 OA
ATOM     14  O   LIG    1       -0.226  -3.614   3.107  0.00  0.00    -0.153 OA
BRANCH  12  20
ATOM     15  C   LIG    1        0.208   1.533  -0.057  0.00  0.00    -0.096 C 
ATOM     16  N   LIG    1        0.190   0.064  -0.054  0.00  0.00    +0.380 N 
ATOM     17  H   LIG    1        0.658  -0.278  -0.880  0.00  0.00    -0.082 HD
ATOM     18  C   LIG    1       -1.201  -0.406  -0.054  0.00  0.00    -0.062 C 
ATOM     19  C   LIG    1       -1.222  -1.934  -0.167  0.00  0.00    +0.091 C 
ATOM     20  N   LIG    1       -0.392  -2.493   0.911  0.00  0.00    -0.180 NA
ATOM     21  C   LIG    1        0.968  -1.959   1.086  0.00  0.00    +0.091 C 
ATOM     22  C   LIG    1        0.886  -0.430   1.140  0.00  0.00    -0.062 C 
ENDBRANCH  12  20
ENDBRANCH   1  12
BRANCH   6  23
ATOM     23  N   LIG    1        3.107  -7.223   2.015  0.00  0.00    -0.052 NA
ATOM     24  C   LIG    1        2.994  -7.457   3.306  0.00  0.00    +0.384 C 
BRANCH  24  25
ATOM     25  N   LIG    1        3.831  -6.832   4.191  0.00  0.00    -0.289 N 
ATOM     26  H   LIG    1        3.748  -7.005   5.142  0.00  0.00    +0.255 HD
ATOM     27  H   LIG    1        4.507  -6.216   3.867  0.00  0.00    +0.255 HD
ENDBRANCH  24  25
BRANCH  24  28
ATOM     28  N   LIG    1        2.040  -8.327   3.763  0.00  0.00    -0.289 N 
ATOM     29  H   LIG    1        1.905  -8.441   4.716  0.00  0.00    +0.255 HD
ATOM     30  H   LIG    1        1.498  -8.828   3.133  0.00  0.00    +0.255 HD
ENDBRANCH  24  28
ENDBRANCH   6  23
TORSDOF 5
