REMARK  Name = ZINC13834537
REMARK                            x       y       z     vdW  Elec       q    Type
REMARK                         _______ _______ _______ _____ _____    ______ ____
ROOT
ATOM      1  C   LIG    1        0.002  -0.004   0.002  0.00  0.00    +0.003 A 
ATOM      2  C   LIG    1       -0.017   1.378   0.010  0.00  0.00    +0.015 A 
ATOM      3  C   LIG    1        1.175   2.099   0.002  0.00  0.00    +0.064 A 
ATOM      4  C   LIG    1        2.405   1.405  -0.013  0.00  0.00    +0.102 A 
ATOM      5  C   LIG    1        2.402  -0.001  -0.021  0.00  0.00    +0.067 A 
ATOM      6  N   LIG    1        3.729  -0.388  -0.036  0.00  0.00    -0.338 N 
ATOM      7  C   LIG    1        4.479   0.755  -0.038  0.00  0.00    +0.139 A 
ATOM      8  H   LIG    1        4.074  -1.326  -0.045  0.00  0.00    +0.167 HD
ATOM      9  N   LIG    1        3.690   1.803  -0.024  0.00  0.00    -0.227 NA
ATOM     10  C   LIG    1        1.200  -0.693  -0.013  0.00  0.00    +0.028 A 
ENDROOT
BRANCH   7  11
ATOM     11  C   LIG    1        5.957   0.802  -0.053  0.00  0.00    +0.017 A 
ATOM     12  C   LIG    1        6.697  -0.381  -0.060  0.00  0.00    +0.014 A 
ATOM     13  C   LIG    1        8.075  -0.330  -0.080  0.00  0.00    +0.033 A 
ATOM     14  C   LIG    1        8.725   0.892  -0.081  0.00  0.00    +0.122 A 
ATOM     15  C   LIG    1        7.998   2.069  -0.068  0.00  0.00    +0.033 A 
ATOM     16  C   LIG    1        6.619   2.031  -0.054  0.00  0.00    +0.014 A 
BRANCH  14  17
ATOM     17  N   LIG    1       10.204   0.940  -0.096  0.00  0.00    +0.006 N 
ATOM     18  O   LIG    1       10.779   2.014  -0.097  0.00  0.00    -0.130 OA
BRANCH  17  19
ATOM     19  O   LIG    1       10.847  -0.095  -0.108  0.00  0.00    -0.396 OA
ATOM     20  H   LIG    1       10.405  -0.921  -0.107  0.00  0.00    +0.329 HD
ENDBRANCH  17  19
ENDBRANCH  14  17
ENDBRANCH   7  11
BRANCH   3  21
ATOM     21  C   LIG    1        1.153   3.572   0.010  0.00  0.00    +0.244 C 
ATOM     22  N   LIG    1       -0.024   4.228   0.024  0.00  0.00    -0.325 N 
ATOM     23  H   LIG    1       -0.038   5.198   0.029  0.00  0.00    +0.145 HD
ATOM     24  H   LIG    1       -0.857   3.731   0.029  0.00  0.00    +0.145 HD
ATOM     25  O   LIG    1        2.197   4.196   0.003  0.00  0.00    -0.270 OA
ENDBRANCH   3  21
TORSDOF 4
