REMARK  Name = ZINC14951647
REMARK                            x       y       z     vdW  Elec       q    Type
REMARK                         _______ _______ _______ _____ _____    ______ ____
ROOT
ATOM      1  C   LIG    1       -2.009  -8.307   6.032  0.00  0.00    +0.152 A 
ATOM      2  C   LIG    1       -1.263  -8.964   7.027  0.00  0.00    +0.034 A 
ATOM      3  C   LIG    1       -2.062  -9.888   7.601  0.00  0.00    +0.060 A 
ATOM      4  C   LIG    1       -1.293 -10.614   8.675  0.00  0.00    +0.163 C 
ATOM      5  N   LIG    1        0.060 -10.048   8.709  0.00  0.00    -0.289 N 
ATOM      6  C   LIG    1        1.068 -10.412   9.527  0.00  0.00    +0.250 C 
ATOM      7  O   LIG    1        2.143  -9.856   9.448  0.00  0.00    -0.272 OA
ATOM      8  N   LIG    1       -3.270  -9.824   6.997  0.00  0.00    -0.278 N 
ATOM      9  H   LIG    1       -4.041 -10.374   7.207  0.00  0.00    +0.189 HD
ATOM     10  C   LIG    1        0.097  -9.006   7.676  0.00  0.00    +0.148 C 
ATOM     11  N   LIG    1       -3.215  -8.822   6.021  0.00  0.00    -0.158 NA
ENDROOT
BRANCH   1  13
ATOM     12  C   LIG    1       -2.371  -6.727   4.288  0.00  0.00    +0.249 C 
ATOM     13  N   LIG    1       -1.547  -7.277   5.202  0.00  0.00    -0.265 N 
ATOM     14  H   LIG    1       -0.634  -6.960   5.284  0.00  0.00    +0.157 HD
ATOM     15  O   LIG    1       -3.515  -7.124   4.184  0.00  0.00    -0.270 OA
BRANCH  12  19
ATOM     16  C   LIG    1       -0.970  -3.605   1.773  0.00  0.00    +0.030 A 
ATOM     17  C   LIG    1       -2.280  -4.059   1.652  0.00  0.00    +0.024 A 
ATOM     18  C   LIG    1       -2.737  -5.071   2.466  0.00  0.00    +0.015 A 
ATOM     19  C   LIG    1       -1.884  -5.643   3.414  0.00  0.00    +0.037 A 
ATOM     20  C   LIG    1       -0.568  -5.185   3.533  0.00  0.00    +0.015 A 
ATOM     21  C   LIG    1       -0.116  -4.176   2.712  0.00  0.00    +0.024 A 
BRANCH  16  27
ATOM     22  C   LIG    1       -0.039   1.464  -0.002  0.00  0.00    -0.096 C 
ATOM     23  N   LIG    1       -0.008  -0.004  -0.004  0.00  0.00    +0.380 N 
ATOM     24  H   LIG    1        0.477  -0.328  -0.827  0.00  0.00    -0.082 HD
ATOM     25  C   LIG    1       -1.383  -0.521  -0.015  0.00  0.00    -0.060 C 
ATOM     26  C   LIG    1       -1.352  -2.048  -0.132  0.00  0.00    +0.086 C 
ATOM     27  N   LIG    1       -0.511  -2.583   0.950  0.00  0.00    -0.333 N 
ATOM     28  C   LIG    1        0.828  -2.004   1.137  0.00  0.00    +0.086 C 
ATOM     29  C   LIG    1        0.695  -0.479   1.195  0.00  0.00    -0.060 C 
ENDBRANCH  16  27
ENDBRANCH  12  19
ENDBRANCH   1  13
BRANCH   6  30
ATOM     30  C   LIG    1        0.860 -11.509  10.538  0.00  0.00    +0.233 C 
BRANCH  30  31
ATOM     31  C   LIG    1       -0.164 -11.068  11.553  0.00  0.00    -0.010 A 
ATOM     32  C   LIG    1        0.205 -10.226  12.586  0.00  0.00    +0.006 A 
ATOM     33  C   LIG    1       -0.733  -9.822  13.517  0.00  0.00    +0.000 A 
ATOM     34  C   LIG    1       -2.041 -10.259  13.415  0.00  0.00    +0.000 A 
ATOM     35  C   LIG    1       -2.410 -11.101  12.382  0.00  0.00    +0.000 A 
ATOM     36  C   LIG    1       -1.472 -11.502  11.448  0.00  0.00    +0.006 A 
ENDBRANCH  30  31
BRANCH  30  37
ATOM     37  O   LIG    1        2.095 -11.790  11.199  0.00  0.00    -0.366 OA
ATOM     38  C   LIG    1        2.881 -12.796  10.558  0.00  0.00    +0.195 C 
ENDBRANCH  30  37
ENDBRANCH   6  30
TORSDOF 6
