REMARK  Name = ZINC28461237
REMARK                            x       y       z     vdW  Elec       q    Type
REMARK                         _______ _______ _______ _____ _____    ______ ____
ROOT
ATOM      1  C   LIG    1       -0.018   1.461   0.010  0.00  0.00    +0.151 C 
ATOM      2  N   LIG    1        0.002  -0.004   0.002  0.00  0.00    -0.325 N 
ATOM      3  C   LIG    1        0.024  -0.825   1.104  0.00  0.00    +0.072 A 
ATOM      4  C   LIG    1        0.034  -0.627   2.480  0.00  0.00    +0.047 A 
ATOM      5  C   LIG    1        0.056  -1.727   3.310  0.00  0.00    +0.113 A 
ATOM      6  N   LIG    1        0.068  -2.956   2.821  0.00  0.00    -0.261 NA
ATOM      7  C   LIG    1        0.059  -3.201   1.528  0.00  0.00    +0.140 A 
ATOM      8  C   LIG    1        0.036  -2.147   0.612  0.00  0.00    +0.108 A 
ATOM      9  N   LIG    1        0.022  -2.069  -0.738  0.00  0.00    -0.224 NA
ATOM     10  C   LIG    1       -0.003  -0.811  -1.105  0.00  0.00    +0.167 A 
ENDROOT
BRANCH  10  11
ATOM     11  C   LIG    1       -0.030  -0.334  -2.506  0.00  0.00    +0.190 A 
ATOM     12  C   LIG    1       -0.032  -1.128  -3.756  0.00  0.00    +0.191 A 
ATOM     13  N   LIG    1       -0.063  -0.200  -4.684  0.00  0.00    -0.033 NA
ATOM     14  O   LIG    1       -0.070   0.890  -4.163  0.00  0.00    -0.240 OA
ATOM     15  N   LIG    1       -0.053   0.903  -2.954  0.00  0.00    -0.044 NA
BRANCH  12  16
ATOM     16  N   LIG    1       -0.009  -2.508  -3.909  0.00  0.00    -0.339 N 
ATOM     17  H   LIG    1        0.013  -3.159  -3.023  0.00  0.00    +0.144 HD
ATOM     18  H   LIG    1       -0.014  -2.950  -4.916  0.00  0.00    +0.144 HD
ENDBRANCH  12  16
ENDBRANCH  10  11
TORSDOF 2
