REMARK  Name = ZINC18189751
REMARK                            x       y       z     vdW  Elec       q    Type
REMARK                         _______ _______ _______ _____ _____    ______ ____
ROOT
ATOM      1  N   LIG    1        1.996  -6.411  -0.328  0.00  0.00    -0.170 NA
ATOM      2  C   LIG    1        3.224  -6.729  -0.052  0.00  0.00    +0.075 C 
ATOM      3  C   LIG    1        3.559  -8.133   0.382  0.00  0.00    +0.068 C 
ENDROOT
BRANCH   2   4
ATOM      4  C   LIG    1        4.290  -5.718  -0.164  0.00  0.00    +0.125 A 
ATOM      5  C   LIG    1        4.917  -5.468  -1.416  0.00  0.00    +0.205 A 
ATOM      6  C   LIG    1        5.976  -4.441  -1.450  0.00  0.00    +0.065 A 
ATOM      7  C   LIG    1        6.644  -4.131  -2.634  0.00  0.00    +0.015 A 
ATOM      8  C   LIG    1        7.627  -3.166  -2.630  0.00  0.00    +0.001 A 
ATOM      9  C   LIG    1        7.952  -2.505  -1.454  0.00  0.00    +0.004 A 
ATOM     10  C   LIG    1        7.300  -2.803  -0.277  0.00  0.00    +0.047 A 
ATOM     11  C   LIG    1        6.304  -3.773  -0.260  0.00  0.00    +0.143 A 
ATOM     12  O   LIG    1        5.657  -4.072   0.886  0.00  0.00    -0.424 OA
ATOM     13  O   LIG    1        4.593  -6.078  -2.422  0.00  0.00    -0.286 OA
ATOM     14  C   LIG    1        4.690  -4.995   0.947  0.00  0.00    +0.297 A 
BRANCH  14  15
ATOM     15  O   LIG    1        4.089  -5.232   2.131  0.00  0.00    -0.479 OA
ATOM     16  H   LIG    1        3.410  -5.874   2.191  0.00  0.00    +0.295 HD
ENDBRANCH  14  15
ENDBRANCH   2   4
BRANCH   1  17
ATOM     17  N   LIG    1        1.667  -5.082  -0.625  0.00  0.00    -0.136 N 
ATOM     18  H   LIG    1        2.367  -4.389  -0.625  0.00  0.00    +0.197 HD
BRANCH  17  19
ATOM     19  S   LIG    1        0.100  -4.676  -0.976  0.00  0.00    +0.086 S 
ATOM     20  O   LIG    1       -0.221  -5.318  -2.203  0.00  0.00    -0.149 OA
ATOM     21  O   LIG    1       -0.650  -4.885   0.212  0.00  0.00    -0.149 OA
BRANCH  19  26
ATOM     22  C   LIG    1       -0.007   1.259  -2.060  0.00  0.00    +0.044 C 
ATOM     23  C   LIG    1        0.020  -0.223  -1.790  0.00  0.00    -0.050 A 
ATOM     24  C   LIG    1        0.240  -1.111  -2.826  0.00  0.00    +0.005 A 
ATOM     25  C   LIG    1        0.264  -2.471  -2.578  0.00  0.00    +0.029 A 
ATOM     26  C   LIG    1        0.070  -2.942  -1.293  0.00  0.00    +0.110 A 
ATOM     27  C   LIG    1       -0.149  -2.054  -0.256  0.00  0.00    +0.029 A 
ATOM     28  C   LIG    1       -0.169  -0.695  -0.504  0.00  0.00    +0.005 A 
ENDBRANCH  19  26
ENDBRANCH  17  19
ENDBRANCH   1  17
TORSDOF 5
