REMARK  Name = ZINC27196927
REMARK                            x       y       z     vdW  Elec       q    Type
REMARK                         _______ _______ _______ _____ _____    ______ ____
ROOT
ATOM      1  C   LIG    1        0.739  -2.027  -1.265  0.00  0.00    +0.176 C 
ATOM      2  C   LIG    1        1.411  -2.548  -2.557  0.00  0.00    +0.042 C 
ATOM      3  C   LIG    1        2.380  -1.512  -3.131  0.00  0.00    +0.012 C 
ATOM      4  C   LIG    1        2.171  -3.783  -2.017  0.00  0.00    +0.130 C 
ATOM      5  C   LIG    1        2.356  -3.481  -0.547  0.00  0.00    +0.237 C 
ATOM      6  N   LIG    1        1.574  -2.531  -0.169  0.00  0.00    -0.277 N 
ATOM      7  H   LIG    1        1.588  -2.190   0.877  0.00  0.00    +0.304 HD
ENDROOT
BRANCH   5   8
ATOM      8  N   LIG    1        3.239  -4.132   0.274  0.00  0.00    -0.254 N 
ATOM      9  H   LIG    1        3.874  -4.935  -0.129  0.00  0.00    +0.288 HD
ATOM     10  H   LIG    1        3.313  -3.852   1.335  0.00  0.00    +0.288 HD
ENDBRANCH   5   8
BRANCH   1  11
ATOM     11  C   LIG    1        0.718  -0.497  -1.257  0.00  0.00    +0.049 C 
BRANCH  11  13
ATOM     12  C   LIG    1       -0.019   1.526   0.010  0.00  0.00    +0.004 C 
ATOM     13  C   LIG    1        0.002  -0.004   0.002  0.00  0.00    +0.001 C 
ENDBRANCH  11  13
ENDBRANCH   1  11
TORSDOF 3
