REMARK  Name = ZINC13759262
REMARK                            x       y       z     vdW  Elec       q    Type
REMARK                         _______ _______ _______ _____ _____    ______ ____
ROOT
ATOM      1  C   LIG    1       -0.538  -0.648   0.001  0.00  0.00    +0.200 C 
ENDROOT
BRANCH   1   2
ATOM      2  N   LIG    1       -0.109   0.753   0.007  0.00  0.00    -0.278 N 
ATOM      3  H   LIG    1        0.837   0.970  -0.001  0.00  0.00    +0.258 HD
BRANCH   2   4
ATOM      4  C   LIG    1       -1.045   1.759   0.017  0.00  0.00    +0.341 C 
ATOM      5  N   LIG    1       -2.320   1.396   0.021  0.00  0.00    -0.292 N 
ATOM      6  H   LIG    1       -2.570   0.401   0.016  0.00  0.00    +0.255 HD
ATOM      7  H   LIG    1       -3.052   2.107   0.028  0.00  0.00    +0.255 HD
BRANCH   4   8
ATOM      8  N   LIG    1       -0.642   3.073   0.022  0.00  0.00    -0.292 N 
ATOM      9  H   LIG    1       -1.303   3.783   0.029  0.00  0.00    +0.255 HD
ATOM     10  H   LIG    1        0.303   3.291   0.018  0.00  0.00    +0.255 HD
ENDBRANCH   4   8
ENDBRANCH   2   4
ENDBRANCH   1   2
BRANCH   1  11
ATOM     11  C   LIG    1        0.691  -1.558  -0.017  0.00  0.00    +0.073 C 
BRANCH  11  17
ATOM     12  C   LIG    1       -0.247  -5.021   1.161  0.00  0.00    +0.000 A 
ATOM     13  C   LIG    1       -0.561  -5.643  -0.033  0.00  0.00    +0.001 A 
ATOM     14  C   LIG    1       -0.470  -4.945  -1.222  0.00  0.00    +0.020 A 
ATOM     15  C   LIG    1       -0.065  -3.622  -1.217  0.00  0.00    +0.044 A 
ATOM     16 CL   LIG    1        0.050  -2.744  -2.710  0.00  0.00    -0.083 Cl
ATOM     17  C   LIG    1        0.249  -2.999  -0.022  0.00  0.00    -0.026 A 
ATOM     18  C   LIG    1        0.163  -3.701   1.166  0.00  0.00    +0.005 A 
ENDBRANCH  11  17
ENDBRANCH   1  11
TORSDOF 5
