REMARK  Name = ZINC36242028
REMARK                            x       y       z     vdW  Elec       q    Type
REMARK                         _______ _______ _______ _____ _____    ______ ____
ROOT
ATOM      1  C   LIG    1       -0.006  -2.832  -0.016  0.00  0.00    +0.084 A 
ATOM      2  C   LIG    1       -0.058  -4.167   0.271  0.00  0.00    +0.077 A 
ATOM      3  S   LIG    1        1.684  -4.553   0.383  0.00  0.00    -0.060 S 
ATOM      4  C   LIG    1        2.301  -2.911   0.039  0.00  0.00    +0.163 A 
ATOM      5  N   LIG    1        1.178  -2.236  -0.131  0.00  0.00    -0.225 NA
ENDROOT
BRANCH   1  11
ATOM      6  C   LIG    1       -1.198  -0.692  -0.502  0.00  0.00    +0.129 A 
ATOM      7  C   LIG    1       -2.371   0.023  -0.681  0.00  0.00    +0.046 A 
ATOM      8  C   LIG    1       -3.594  -0.610  -0.558  0.00  0.00    +0.004 A 
ATOM      9  C   LIG    1       -3.655  -1.959  -0.258  0.00  0.00    +0.001 A 
ATOM     10  C   LIG    1       -2.494  -2.684  -0.077  0.00  0.00    +0.013 A 
ATOM     11  C   LIG    1       -1.256  -2.057  -0.203  0.00  0.00    +0.043 A 
BRANCH   6  13
ATOM     12  C   LIG    1       -0.014   1.325  -0.928  0.00  0.00    +0.277 C 
ATOM     13  O   LIG    1        0.004  -0.071  -0.621  0.00  0.00    -0.494 OA
ENDBRANCH   6  13
ENDBRANCH   1  11
BRANCH   4  14
ATOM     14  N   LIG    1        3.611  -2.465  -0.036  0.00  0.00    -0.294 N 
ATOM     15  H   LIG    1        3.796  -1.519  -0.150  0.00  0.00    +0.154 HD
BRANCH  14  16
ATOM     16  C   LIG    1        4.668  -3.378   0.053  0.00  0.00    +0.033 A 
ATOM     17  C   LIG    1        4.564  -4.623  -0.554  0.00  0.00    +0.027 A 
ATOM     18  C   LIG    1        5.606  -5.524  -0.466  0.00  0.00    +0.047 A 
ATOM     19  C   LIG    1        6.758  -5.186   0.230  0.00  0.00    +0.117 A 
ATOM     20  C   LIG    1        6.863  -3.943   0.838  0.00  0.00    +0.047 A 
ATOM     21  C   LIG    1        5.823  -3.039   0.745  0.00  0.00    +0.027 A 
BRANCH  19  22
ATOM     22  O   LIG    1        7.784  -6.074   0.318  0.00  0.00    -0.507 OA
ATOM     23  H   LIG    1        8.431  -5.999  -0.397  0.00  0.00    +0.292 HD
ENDBRANCH  19  22
ENDBRANCH  14  16
ENDBRANCH   4  14
TORSDOF 5
