REMARK  Name = ZINC23382757
REMARK                            x       y       z     vdW  Elec       q    Type
REMARK                         _______ _______ _______ _____ _____    ______ ____
ROOT
ATOM      1  C   LIG    1        2.109  -3.551  -0.045  0.00  0.00    +0.122 A 
ATOM      2  C   LIG    1        2.569  -4.036  -1.278  0.00  0.00    +0.044 A 
ATOM      3  C   LIG    1        3.517  -5.013  -1.312  0.00  0.00    +0.013 A 
ATOM      4  C   LIG    1        4.008  -5.510  -0.087  0.00  0.00    +0.001 A 
ATOM      5  C   LIG    1        4.986  -6.516  -0.049  0.00  0.00    +0.010 A 
ATOM      6  C   LIG    1        5.438  -6.972   1.153  0.00  0.00    +0.001 A 
ATOM      7  C   LIG    1        4.942  -6.451   2.346  0.00  0.00    +0.002 A 
ATOM      8  C   LIG    1        3.994  -5.474   2.345  0.00  0.00    +0.028 A 
ATOM      9  C   LIG    1        3.503  -4.979   1.125  0.00  0.00    +0.073 A 
ATOM     10  N   LIG    1        2.576  -4.015   1.095  0.00  0.00    -0.232 NA
ENDROOT
BRANCH   1  16
ATOM     11  C   LIG    1       -0.037   1.439   0.375  0.00  0.00    -0.096 C 
ATOM     12  N   LIG    1       -0.007  -0.017   0.180  0.00  0.00    +0.380 N 
ATOM     13  H   LIG    1       -0.945  -0.352   0.018  0.00  0.00    -0.082 HD
ATOM     14  C   LIG    1        0.830  -0.335  -0.984  0.00  0.00    -0.060 C 
ATOM     15  C   LIG    1        0.770  -1.841  -1.258  0.00  0.00    +0.088 C 
ATOM     16  N   LIG    1        1.144  -2.555  -0.027  0.00  0.00    -0.319 N 
ATOM     17  C   LIG    1        0.466  -2.181   1.224  0.00  0.00    +0.088 C 
ATOM     18  C   LIG    1        0.540  -0.659   1.381  0.00  0.00    -0.060 C 
ENDBRANCH   1  16
TORSDOF 1
