REMARK  Name = ZINC00037156
REMARK                            x       y       z     vdW  Elec       q    Type
REMARK                         _______ _______ _______ _____ _____    ______ ____
ROOT
ATOM      1  C   LIG    1        4.160  -0.531   0.071  0.00  0.00    +0.043 A 
ATOM      2  C   LIG    1        5.555  -0.523   0.164  0.00  0.00    +0.015 A 
ATOM      3  C   LIG    1        6.244  -1.713   0.255  0.00  0.00    +0.022 A 
ATOM      4  C   LIG    1        5.558  -2.917   0.255  0.00  0.00    +0.059 A 
ATOM      5 CL   LIG    1        6.434  -4.411   0.371  0.00  0.00    -0.082 Cl
ATOM      6  C   LIG    1        4.175  -2.932   0.165  0.00  0.00    +0.060 A 
ATOM      7 CL   LIG    1        3.323  -4.445   0.167  0.00  0.00    -0.082 Cl
ATOM      8  C   LIG    1        3.473  -1.747   0.078  0.00  0.00    +0.034 A 
ENDROOT
BRANCH   1  13
ATOM      9  C   LIG    1       -0.015   1.403   0.067  0.00  0.00    +0.041 A 
ATOM     10  C   LIG    1        0.002   0.001   0.065  0.00  0.00    +0.135 A 
ATOM     11  N   LIG    1        1.246  -0.397   0.031  0.00  0.00    -0.172 NA
ATOM     12  N   LIG    1        2.070   0.737   0.010  0.00  0.00    -0.204 N 
ATOM     13  C   LIG    1        3.417   0.740  -0.027  0.00  0.00    +0.279 C 
ATOM     14  O   LIG    1        4.019   1.789  -0.140  0.00  0.00    -0.265 OA
ATOM     15  C   LIG    1        1.264   1.835   0.033  0.00  0.00    +0.118 A 
ENDBRANCH   1  13
TORSDOF 1
