REMARK  Name = ZINC19862659
REMARK                            x       y       z     vdW  Elec       q    Type
REMARK                         _______ _______ _______ _____ _____    ______ ____
ROOT
ATOM      1  C   LIG    1        2.081   9.540   0.031  0.00  0.00    +0.007 A 
ATOM      2  C   LIG    1        2.271   8.208   0.022  0.00  0.00    +0.041 A 
ATOM      3  C   LIG    1        1.119   7.328   0.028  0.00  0.00    +0.084 A 
ATOM      4  C   LIG    1       -0.129   7.987   0.043  0.00  0.00    +0.078 A 
ATOM      5  C   LIG    1       -1.317   7.273   0.051  0.00  0.00    +0.140 A 
ATOM      6  N   LIG    1       -1.256   5.943   0.044  0.00  0.00    -0.211 NA
ATOM      7  C   LIG    1       -0.076   5.331   0.029  0.00  0.00    +0.162 A 
ATOM      8  N   LIG    1        1.071   5.975   0.027  0.00  0.00    -0.227 NA
ATOM      9  S   LIG    1        0.305   9.705   0.048  0.00  0.00    -0.087 S 
ENDROOT
BRANCH   5  10
ATOM     10  N   LIG    1       -2.538   7.927   0.066  0.00  0.00    -0.310 N 
ATOM     11  C   LIG    1       -2.632   8.840   1.214  0.00  0.00    +0.134 C 
ATOM     12  C   LIG    1       -3.969   9.584   1.159  0.00  0.00    +0.178 C 
ATOM     13  O   LIG    1       -5.037   8.633   1.134  0.00  0.00    -0.377 OA
ATOM     14  C   LIG    1       -4.977   7.729   0.029  0.00  0.00    +0.178 C 
ATOM     15  C   LIG    1       -3.651   6.966   0.072  0.00  0.00    +0.134 C 
ENDBRANCH   5  10
BRANCH   7  16
ATOM     16  C   LIG    1       -0.051   3.848   0.022  0.00  0.00    +0.023 A 
ATOM     17  C   LIG    1       -1.246   3.129   0.030  0.00  0.00    +0.012 A 
ATOM     18  C   LIG    1       -1.220   1.749   0.017  0.00  0.00    +0.004 A 
ATOM     19  C   LIG    1       -0.013   1.076   0.008  0.00  0.00    +0.045 A 
ATOM     20  C   LIG    1        1.181   1.784   0.000  0.00  0.00    +0.118 A 
ATOM     21  C   LIG    1        1.165   3.169   0.007  0.00  0.00    +0.057 A 
BRANCH  20  22
ATOM     22  O   LIG    1        2.366   1.118  -0.015  0.00  0.00    -0.507 OA
ATOM     23  H   LIG    1        3.312   1.680  -0.021  0.00  0.00    +0.292 HD
ENDBRANCH  20  22
ENDBRANCH   7  16
BRANCH   1  24
ATOM     24  C   LIG    1        3.120  10.631   0.026  0.00  0.00    +0.126 C 
BRANCH  24  30
ATOM     25  C   LIG    1        5.507  11.841  -4.949  0.00  0.00    -0.096 C 
ATOM     26  N   LIG    1        5.183  11.480  -3.562  0.00  0.00    +0.379 N 
ATOM     27  H   LIG    1        6.127  11.269  -3.040  0.00  0.00    -0.082 HD
ATOM     28  C   LIG    1        4.520  12.593  -2.869  0.00  0.00    -0.064 C 
ATOM     29  C   LIG    1        4.271  12.206  -1.409  0.00  0.00    +0.066 C 
ATOM     30  N   LIG    1        3.444  10.992  -1.361  0.00  0.00    -0.301 NA
ATOM     31  C   LIG    1        4.107   9.879  -2.054  0.00  0.00    +0.066 C 
ATOM     32  C   LIG    1        4.356  10.266  -3.514  0.00  0.00    -0.064 C 
ENDBRANCH  24  30
ENDBRANCH   1  24
TORSDOF 5
