REMARK  Name = ZINC26894532
REMARK                            x       y       z     vdW  Elec       q    Type
REMARK                         _______ _______ _______ _____ _____    ______ ____
ROOT
ATOM      1  C   LIG    1       -0.033   3.864   0.023  0.00  0.00    +0.145 A 
ATOM      2  C   LIG    1        1.157   3.163   0.008  0.00  0.00    +0.048 A 
ATOM      3  C   LIG    1        1.159   1.774   0.001  0.00  0.00    +0.004 A 
ATOM      4  C   LIG    1       -0.013   1.076   0.008  0.00  0.00    +0.012 A 
ATOM      5  C   LIG    1       -1.236   1.761   0.018  0.00  0.00    +0.023 A 
ATOM      6  C   LIG    1       -2.588   1.342   0.036  0.00  0.00    +0.142 A 
ATOM      7  N   LIG    1       -3.351   2.396   0.049  0.00  0.00    -0.181 NA
ATOM      8  N   LIG    1       -2.561   3.552   0.047  0.00  0.00    -0.273 N 
ATOM      9  H   LIG    1       -2.821   4.621   0.055  0.00  0.00    +0.189 HD
ATOM     10  C   LIG    1       -1.244   3.167   0.031  0.00  0.00    +0.107 A 
ENDROOT
BRANCH   1  12
ATOM     11  C   LIG    1        1.250   5.865   0.021  0.00  0.00    +0.277 C 
ATOM     12  O   LIG    1       -0.026   5.223   0.030  0.00  0.00    -0.493 OA
ENDBRANCH   1  12
TORSDOF 1
