REMARK  Name = ZINC15894680
REMARK                            x       y       z     vdW  Elec       q    Type
REMARK                         _______ _______ _______ _____ _____    ______ ____
ROOT
ATOM      1  C   LIG    1        0.059  -2.916  -0.013  0.00  0.00    +0.029 A 
ATOM      2  C   LIG    1       -0.357  -3.754   0.982  0.00  0.00    +0.114 A 
ATOM      3  N   LIG    1       -1.523  -4.308   0.601  0.00  0.00    -0.284 N 
ATOM      4  N   LIG    1       -1.877  -3.827  -0.663  0.00  0.00    -0.172 NA
ATOM      5  H   LIG    1       -2.038  -4.944   1.123  0.00  0.00    +0.188 HD
ATOM      6  C   LIG    1       -0.954  -2.981  -1.068  0.00  0.00    +0.118 A 
ENDROOT
BRANCH   1  12
ATOM      7  C   LIG    1       -0.016   1.359   0.009  0.00  0.00    +0.001 A 
ATOM      8  C   LIG    1        1.170   2.088   0.002  0.00  0.00    +0.002 A 
ATOM      9  C   LIG    1        2.379   1.462  -0.013  0.00  0.00    +0.028 A 
ATOM     10  C   LIG    1        2.437   0.058  -0.021  0.00  0.00    +0.072 A 
ATOM     11  C   LIG    1        1.229  -0.680  -0.013  0.00  0.00    +0.008 A 
ATOM     12  C   LIG    1        1.291  -2.097  -0.021  0.00  0.00    -0.004 A 
ATOM     13  C   LIG    1        2.548  -2.691  -0.036  0.00  0.00    +0.029 A 
ATOM     14  C   LIG    1        3.684  -1.893  -0.043  0.00  0.00    +0.112 A 
ATOM     15  N   LIG    1        3.611  -0.582  -0.035  0.00  0.00    -0.255 NA
ATOM     16  C   LIG    1        0.002  -0.004   0.002  0.00  0.00    +0.010 A 
ENDBRANCH   1  12
BRANCH   6  17
ATOM     17  C   LIG    1       -0.941  -2.237  -2.350  0.00  0.00    +0.091 A 
ATOM     18  C   LIG    1       -1.637  -2.741  -3.448  0.00  0.00    +0.030 A 
ATOM     19  C   LIG    1       -1.616  -2.035  -4.638  0.00  0.00    +0.004 A 
ATOM     20  C   LIG    1       -0.899  -0.848  -4.692  0.00  0.00    +0.020 A 
ATOM     21  C   LIG    1       -0.231  -0.407  -3.565  0.00  0.00    +0.111 A 
ATOM     22  N   LIG    1       -0.272  -1.095  -2.442  0.00  0.00    -0.253 NA
ENDBRANCH   6  17
TORSDOF 2
