REMARK  Name = ZINC15602326
REMARK                            x       y       z     vdW  Elec       q    Type
REMARK                         _______ _______ _______ _____ _____    ______ ____
ROOT
ATOM      1  C   LIG    1       -4.047   6.476   0.080  0.00  0.00    +0.033 A 
ATOM      2  C   LIG    1       -2.890   6.675   0.825  0.00  0.00    +0.024 A 
ATOM      3  C   LIG    1       -1.893   5.724   0.819  0.00  0.00    +0.012 A 
ATOM      4  C   LIG    1       -2.045   4.560   0.063  0.00  0.00    +0.007 A 
ATOM      5  C   LIG    1       -3.206   4.366  -0.689  0.00  0.00    +0.012 A 
ATOM      6  C   LIG    1       -4.202   5.318  -0.674  0.00  0.00    +0.024 A 
ENDROOT
BRANCH   4   7
ATOM      7  C   LIG    1       -0.977   3.538   0.054  0.00  0.00    +0.109 A 
ATOM      8  N   LIG    1        0.174   3.542   0.690  0.00  0.00    -0.239 NA
ATOM      9  C   LIG    1        1.062   2.535   0.585  0.00  0.00    +0.079 A 
ATOM     10  C   LIG    1        2.329   2.417   1.207  0.00  0.00    +0.029 A 
ATOM     11  C   LIG    1        3.108   1.323   0.999  0.00  0.00    +0.005 A 
ATOM     12  C   LIG    1        2.700   0.283   0.175  0.00  0.00    -0.049 A 
ATOM     13  C   LIG    1        3.589  -0.916  -0.034  0.00  0.00    +0.044 C 
ATOM     14  C   LIG    1        1.470   0.358  -0.451  0.00  0.00    +0.020 A 
ATOM     15  C   LIG    1        0.675   1.459  -0.248  0.00  0.00    +0.040 A 
ATOM     16  S   LIG    1       -0.925   1.979  -0.819  0.00  0.00    -0.067 S 
ENDBRANCH   4   7
BRANCH   1  18
ATOM     17  C   LIG    1       -4.739   8.747   0.194  0.00  0.00    +0.220 C 
ATOM     18  N   LIG    1       -5.056   7.441   0.089  0.00  0.00    -0.285 N 
ATOM     19  H   LIG    1       -5.986   7.172   0.019  0.00  0.00    +0.155 HD
ATOM     20  O   LIG    1       -3.576   9.091   0.185  0.00  0.00    -0.275 OA
BRANCH  17  24
ATOM     21  N   LIG    1       -7.271  12.065  -0.511  0.00  0.00    -0.181 NA
ATOM     22  C   LIG    1       -6.312  12.216   0.592  0.00  0.00    +0.110 C 
ATOM     23  C   LIG    1       -5.203  11.172   0.426  0.00  0.00    +0.030 C 
ATOM     24  C   LIG    1       -5.829   9.780   0.323  0.00  0.00    +0.078 C 
ATOM     25  C   LIG    1       -6.739   9.717  -0.906  0.00  0.00    +0.030 C 
ATOM     26  C   LIG    1       -7.865  10.744  -0.755  0.00  0.00    +0.110 C 
BRANCH  21  27
ATOM     27  S   LIG    1       -7.675  13.360  -1.461  0.00  0.00    +0.032 S 
ATOM     28  O   LIG    1       -7.457  14.497  -0.636  0.00  0.00    -0.158 OA
ATOM     29  O   LIG    1       -8.974  13.059  -1.951  0.00  0.00    -0.158 OA
BRANCH  27  31
ATOM     30  C   LIG    1       -6.753  14.500  -3.770  0.00  0.00    +0.029 C 
ATOM     31  C   LIG    1       -6.473  13.334  -2.820  0.00  0.00    +0.182 C 
ENDBRANCH  27  31
ENDBRANCH  21  27
ENDBRANCH  17  24
ENDBRANCH   1  18
TORSDOF 5
