REMARK  Name = ZINC20253728
REMARK                            x       y       z     vdW  Elec       q    Type
REMARK                         _______ _______ _______ _____ _____    ______ ____
ROOT
ATOM      1  C   LIG    1       -0.017   1.378   0.010  0.00  0.00    +0.005 A 
ATOM      2  C   LIG    1        1.166   2.089   0.002  0.00  0.00    +0.019 A 
ATOM      3  C   LIG    1        2.387   1.411  -0.013  0.00  0.00    +0.055 A 
ATOM      4  C   LIG    1        2.404   0.015  -0.021  0.00  0.00    +0.064 A 
ATOM      5  C   LIG    1        1.211  -0.687  -0.013  0.00  0.00    +0.122 A 
ATOM      6  C   LIG    1        0.002  -0.004   0.002  0.00  0.00    +0.046 A 
ENDROOT
BRANCH   3   7
ATOM      7  C   LIG    1        3.616   2.145  -0.021  0.00  0.00    +0.099 C 
ATOM      8  N   LIG    1        4.592   2.727  -0.028  0.00  0.00    -0.191 NA
ENDBRANCH   3   7
BRANCH   5   9
ATOM      9  O   LIG    1        1.223  -2.046  -0.021  0.00  0.00    -0.490 OA
BRANCH   9  10
ATOM     10  C   LIG    1       -0.044  -2.706  -0.012  0.00  0.00    +0.250 C 
BRANCH  10  11
ATOM     11  C   LIG    1        0.169  -4.221  -0.022  0.00  0.00    +0.163 C 
BRANCH  11  12
ATOM     12  N   LIG    1       -1.130  -4.898  -0.013  0.00  0.00    -0.334 N 
ATOM     13  C   LIG    1       -1.842  -5.274   1.093  0.00  0.00    +0.107 A 
ATOM     14  C   LIG    1       -2.971  -5.859   0.650  0.00  0.00    +0.130 A 
ATOM     15  N   LIG    1       -2.949  -5.841  -0.691  0.00  0.00    -0.244 NA
ATOM     16  C   LIG    1       -1.851  -5.262  -1.095  0.00  0.00    +0.199 A 
ENDBRANCH  11  12
ENDBRANCH  10  11
ENDBRANCH   9  10
ENDBRANCH   5   9
TORSDOF 5
