REMARK  Name = ZINC13834389
REMARK                            x       y       z     vdW  Elec       q    Type
REMARK                         _______ _______ _______ _____ _____    ______ ____
ROOT
ATOM      1  C   LIG    1       -0.720   3.035   3.262  0.00  0.00    -0.011 C 
ATOM      2  C   LIG    1       -1.201   1.802   4.071  0.00  0.00    -0.078 C 
ATOM      3  N   LIG    1       -0.739   0.550   3.447  0.00  0.00    +0.382 N 
ATOM      4  H   LIG    1       -1.074  -0.246   4.002  0.00  0.00    -0.082 HD
ATOM      5  C   LIG    1       -1.291   0.448   2.078  0.00  0.00    -0.028 C 
ATOM      6  C   LIG    1       -0.788   1.609   1.225  0.00  0.00    +0.119 C 
ATOM      7  C   LIG    1       -0.013   1.086   0.008  0.00  0.00    +0.154 C 
ATOM      8  N   LIG    1       -0.779   1.600  -1.140  0.00  0.00    -0.277 N 
ATOM      9  H   LIG    1       -0.562   1.454  -2.074  0.00  0.00    +0.152 HD
ATOM     10  C   LIG    1       -1.824   2.304  -0.682  0.00  0.00    +0.401 C 
ATOM     11  O   LIG    1       -2.630   2.846  -1.413  0.00  0.00    -0.226 OA
ATOM     12  O   LIG    1       -1.899   2.354   0.654  0.00  0.00    -0.444 OA
ATOM     13  C   LIG    1        0.744   0.520   3.413  0.00  0.00    -0.078 C 
ATOM     14  C   LIG    1        1.286   1.696   2.595  0.00  0.00    -0.011 C 
ATOM     15  C   LIG    1        0.102   2.521   2.070  0.00  0.00    +0.029 C 
ENDROOT
TORSDOF 0
