REMARK  Name = ZINC64527030
REMARK                            x       y       z     vdW  Elec       q    Type
REMARK                         _______ _______ _______ _____ _____    ______ ____
ROOT
ATOM      1  C   LIG    1        0.894  -0.193   1.209  0.00  0.00    -0.017 A 
ATOM      2  C   LIG    1        0.315  -0.736   2.347  0.00  0.00    +0.008 A 
ATOM      3  C   LIG    1        1.062  -0.920   3.491  0.00  0.00    +0.028 A 
ATOM      4  C   LIG    1        2.403  -0.558   3.502  0.00  0.00    +0.069 A 
ATOM      5  C   LIG    1        2.989  -0.009   2.349  0.00  0.00    +0.090 A 
ATOM      6  N   LIG    1        4.289   0.244   2.648  0.00  0.00    -0.231 NA
ATOM      7  C   LIG    1        4.531  -0.106   3.878  0.00  0.00    +0.128 A 
ATOM      8  N   LIG    1        3.404  -0.607   4.452  0.00  0.00    -0.329 N 
ATOM      9  C   LIG    1        3.276  -1.106   5.823  0.00  0.00    +0.150 C 
ATOM     10  C   LIG    1        2.213   0.164   1.200  0.00  0.00    +0.035 A 
ENDROOT
BRANCH   1  12
ATOM     11  C   LIG    1       -0.919   1.154   0.186  0.00  0.00    +0.043 C 
ATOM     12  C   LIG    1        0.061   0.000  -0.032  0.00  0.00    +0.119 C 
BRANCH  12  13
ATOM     13  C   LIG    1       -0.707  -1.263  -0.323  0.00  0.00    +0.240 C 
ATOM     14  N   LIG    1       -1.265  -1.448  -1.536  0.00  0.00    -0.300 N 
ATOM     15  C   LIG    1       -1.149  -0.534  -2.681  0.00  0.00    +0.108 C 
ATOM     16  C   LIG    1       -1.969  -1.143  -3.838  0.00  0.00    +0.020 C 
ATOM     17  C   LIG    1       -2.963  -2.081  -3.104  0.00  0.00    +0.020 C 
ATOM     18  C   LIG    1       -2.088  -2.605  -1.935  0.00  0.00    +0.108 C 
ATOM     19  O   LIG    1       -0.823  -2.113   0.534  0.00  0.00    -0.273 OA
ENDBRANCH  12  13
BRANCH  12  20
ATOM     20  N   LIG    1        0.939   0.312  -1.168  0.00  0.00    -0.290 NA
ATOM     21  H   LIG    1        0.405   0.642  -1.958  0.00  0.00    +0.124 HD
BRANCH  20  22
ATOM     22  C   LIG    1        1.758  -0.851  -1.535  0.00  0.00    +0.203 C 
BRANCH  22  23
ATOM     23  C   LIG    1        2.643  -0.494  -2.701  0.00  0.00    +0.319 C 
ATOM     24  O   LIG    1        2.597   0.625  -3.182  0.00  0.00    -0.250 OA
BRANCH  23  25
ATOM     25  O   LIG    1        3.406  -1.325  -3.164  0.00  0.00    -0.480 OA
ATOM     26  H   LIG    1        3.442  -2.185  -2.795  0.00  0.00    +0.295 HD
ENDBRANCH  23  25
ENDBRANCH  22  23
ENDBRANCH  20  22
ENDBRANCH  12  20
ENDBRANCH   1  12
BRANCH   7  27
ATOM     27  C   LIG    1        5.865   0.024   4.566  0.00  0.00    +0.176 C 
BRANCH  27  28
ATOM     28  N   LIG    1        5.953   1.333   5.218  0.00  0.00    -0.337 N 
ATOM     29  H   LIG    1        5.211   1.955   5.159  0.00  0.00    +0.147 HD
BRANCH  28  30
ATOM     30  C   LIG    1        7.101   1.684   5.921  0.00  0.00    +0.027 A 
ATOM     31  C   LIG    1        8.167   0.793   5.999  0.00  0.00    +0.024 A 
ATOM     32  C   LIG    1        9.304   1.139   6.694  0.00  0.00    +0.017 A 
ATOM     33  C   LIG    1        9.387   2.384   7.321  0.00  0.00    +0.061 A 
ATOM     34  C   LIG    1        8.315   3.277   7.240  0.00  0.00    +0.017 A 
ATOM     35  C   LIG    1        7.183   2.928   6.540  0.00  0.00    +0.024 A 
BRANCH  33  36
ATOM     36  C   LIG    1       10.606   2.757   8.067  0.00  0.00    +0.266 C 
ATOM     37  N   LIG    1       10.684   3.946   8.665  0.00  0.00    -0.288 N 
ATOM     38  H   LIG    1       11.484   4.191   9.155  0.00  0.00    +0.301 HD
ATOM     39  H   LIG    1        9.940   4.566   8.609  0.00  0.00    +0.301 HD
BRANCH  36  40
ATOM     40  N   LIG    1       11.628   1.905   8.143  0.00  0.00    -0.250 N 
ATOM     41  H   LIG    1       12.428   2.150   8.634  0.00  0.00    +0.288 HD
ATOM     42  H   LIG    1       11.571   1.040   7.709  0.00  0.00    +0.288 HD
ENDBRANCH  36  40
ENDBRANCH  33  36
ENDBRANCH  28  30
ENDBRANCH  27  28
ENDBRANCH   7  27
TORSDOF 11
