REMARK  Name = ZINC28246005
REMARK                            x       y       z     vdW  Elec       q    Type
REMARK                         _______ _______ _______ _____ _____    ______ ____
ROOT
ATOM      1  C   LIG    1       -0.013   1.086   0.008  0.00  0.00    +0.001 C 
ATOM      2  C   LIG    1       -1.150   1.781  -0.743  0.00  0.00    -0.001 C 
ATOM      3  C   LIG    1       -1.136   1.773   0.788  0.00  0.00    +0.032 C 
ENDROOT
BRANCH   3   4
ATOM      4  N   LIG    1       -0.815   3.034   1.470  0.00  0.00    +0.389 N 
ATOM      5  H   LIG    1       -0.015   2.860   2.204  0.00  0.00    -0.088 HD
ATOM      6  H   LIG    1       -0.478   3.775   0.730  0.00  0.00    -0.088 HD
ATOM      7  H   LIG    1       -1.711   3.410   1.985  0.00  0.00    -0.088 HD
ENDBRANCH   3   4
BRANCH   3   8
ATOM      8  C   LIG    1       -2.136   0.891   1.489  0.00  0.00    +0.293 C 
ATOM      9  O   LIG    1       -2.585  -0.079   0.926  0.00  0.00    -0.253 OA
BRANCH   8  10
ATOM     10  O   LIG    1       -2.529   1.183   2.739  0.00  0.00    -0.482 OA
ATOM     11  H   LIG    1       -2.181   1.936   3.175  0.00  0.00    +0.295 HD
ENDBRANCH   8  10
ENDBRANCH   3   8
BRANCH   2  12
ATOM     12  C   LIG    1       -0.830   3.102  -1.445  0.00  0.00    +0.129 C 
BRANCH  12  13
ATOM     13  P   LIG    1       -1.333   2.998  -3.194  0.00  0.00    +0.328 P 
ATOM     14  O   LIG    1       -0.689   1.823  -3.824  0.00  0.00    -0.259 OA
BRANCH  13  15
ATOM     15  O   LIG    1       -0.877   4.337  -3.964  0.00  0.00    -0.324 OA
ATOM     16  H   LIG    1        0.087   4.428  -3.910  0.00  0.00    +0.220 HD
ENDBRANCH  13  15
BRANCH  13  17
ATOM     17  O   LIG    1       -2.933   2.845  -3.284  0.00  0.00    -0.324 OA
ATOM     18  H   LIG    1       -3.207   2.039  -2.820  0.00  0.00    +0.220 HD
ENDBRANCH  13  17
ENDBRANCH  12  13
ENDBRANCH   2  12
TORSDOF 7
