REMARK  Name = ZINC28637594
REMARK                            x       y       z     vdW  Elec       q    Type
REMARK                         _______ _______ _______ _____ _____    ______ ____
ROOT
ATOM      1  S   LIG    1        3.629   2.831  -0.556  0.00  0.00    +0.050 S 
ATOM      2  O   LIG    1        3.251   3.925   0.268  0.00  0.00    -0.155 OA
ATOM      3  O   LIG    1        3.310   1.498  -0.182  0.00  0.00    -0.155 OA
ENDROOT
BRANCH   1   9
ATOM      4  C   LIG    1        1.680   2.764  -2.439  0.00  0.00    +0.058 C 
ATOM      5  C   LIG    1        1.210   2.106  -3.478  0.00  0.00    -0.014 C 
ATOM      6  C   LIG    1        2.059   1.638  -4.623  0.00  0.00    +0.028 C 
ATOM      7  C   LIG    1        3.398   2.380  -4.623  0.00  0.00    +0.006 C 
ATOM      8  C   LIG    1        3.994   2.303  -3.213  0.00  0.00    +0.033 C 
ATOM      9  C   LIG    1        3.124   3.138  -2.271  0.00  0.00    +0.188 C 
BRANCH   4  10
ATOM     10  C   LIG    1        0.736   3.155  -1.382  0.00  0.00    +0.337 C 
ATOM     11  O   LIG    1       -0.428   2.814  -1.450  0.00  0.00    -0.245 OA
BRANCH  10  12
ATOM     12  O   LIG    1        1.163   3.892  -0.337  0.00  0.00    -0.462 OA
BRANCH  12  14
ATOM     13  C   LIG    1        0.809   5.112   1.740  0.00  0.00    +0.048 C 
ATOM     14  C   LIG    1        0.214   4.121   0.738  0.00  0.00    +0.229 C 
ENDBRANCH  12  14
ENDBRANCH  10  12
ENDBRANCH   4  10
ENDBRANCH   1   9
BRANCH   1  15
ATOM     15  N   LIG    1        5.285   2.877  -0.586  0.00  0.00    -0.217 N 
ATOM     16  H   LIG    1        5.865   1.995  -0.276  0.00  0.00    +0.173 HD
BRANCH  15  17
ATOM     17  C   LIG    1        5.945   4.037  -1.005  0.00  0.00    +0.083 A 
ATOM     18  C   LIG    1        5.383   5.283  -0.762  0.00  0.00    +0.029 A 
ATOM     19  C   LIG    1        6.037   6.428  -1.176  0.00  0.00    +0.022 A 
ATOM     20  C   LIG    1        7.249   6.333  -1.838  0.00  0.00    +0.044 A 
ATOM     21 CL   LIG    1        8.063   7.774  -2.363  0.00  0.00    -0.083 Cl
ATOM     22  C   LIG    1        7.815   5.094  -2.076  0.00  0.00    +0.060 A 
ATOM     23  C   LIG    1        7.165   3.945  -1.664  0.00  0.00    +0.147 A 
ATOM     24  F   LIG    1        7.715   2.734  -1.903  0.00  0.00    -0.203 F 
ENDBRANCH  15  17
ENDBRANCH   1  15
TORSDOF 6
