REMARK  Name = ZINC13782474
REMARK                            x       y       z     vdW  Elec       q    Type
REMARK                         _______ _______ _______ _____ _____    ______ ____
ROOT
ATOM      1  C   LIG    1        1.162   2.106   0.002  0.00  0.00    +0.146 A 
ATOM      2  C   LIG    1       -0.017   1.383   0.010  0.00  0.00    +0.048 A 
ATOM      3  C   LIG    1        0.002  -0.004   0.002  0.00  0.00    +0.004 A 
ATOM      4  C   LIG    1        1.199  -0.693  -0.013  0.00  0.00    +0.015 A 
ATOM      5  C   LIG    1        2.399   0.010  -0.021  0.00  0.00    +0.068 A 
ATOM      6  C   LIG    1        3.700  -0.679  -0.038  0.00  0.00    +0.260 A 
ATOM      7  O   LIG    1        3.771  -1.894  -0.045  0.00  0.00    -0.267 OA
ATOM      8  N   LIG    1        4.814   0.090  -0.045  0.00  0.00    -0.306 N 
ATOM      9  H   LIG    1        5.689  -0.328  -0.056  0.00  0.00    +0.170 HD
ATOM     10  C   LIG    1        4.711   1.458  -0.035  0.00  0.00    +0.142 A 
ATOM     11  N   LIG    1        3.560   2.088  -0.021  0.00  0.00    -0.225 NA
ATOM     12  C   LIG    1        2.392   1.425  -0.013  0.00  0.00    +0.120 A 
ENDROOT
BRANCH  10  13
ATOM     13  C   LIG    1        5.947   2.254  -0.043  0.00  0.00    +0.017 A 
ATOM     14  C   LIG    1        7.186   1.596  -0.053  0.00  0.00    +0.014 A 
ATOM     15  C   LIG    1        8.346   2.301  -0.066  0.00  0.00    +0.031 A 
ATOM     16  C   LIG    1        8.293   3.765  -0.057  0.00  0.00    +0.100 A 
ATOM     17  C   LIG    1        6.982   4.420  -0.041  0.00  0.00    +0.031 A 
ATOM     18  C   LIG    1        5.860   3.655  -0.034  0.00  0.00    +0.014 A 
BRANCH  16  19
ATOM     19  N   LIG    1        9.404   4.482  -0.064  0.00  0.00    -0.074 NA
ATOM     20  N   LIG    1       10.404   3.968  -0.076  0.00  0.00    -0.192 NA
ATOM     21  N   LIG    1       11.403   3.454  -0.089  0.00  0.00    -0.127 NA
ATOM     22  H   LIG    1       12.150   3.841  -0.601  0.00  0.00    +0.228 HD
ENDBRANCH  16  19
ENDBRANCH  10  13
BRANCH   1  24
ATOM     23  C   LIG    1       -0.157   4.083   0.025  0.00  0.00    +0.277 C 
ATOM     24  O   LIG    1        1.131   3.463   0.010  0.00  0.00    -0.493 OA
ENDBRANCH   1  24
TORSDOF 3
