REMARK  Name = ZINC28357928
REMARK                            x       y       z     vdW  Elec       q    Type
REMARK                         _______ _______ _______ _____ _____    ______ ____
ROOT
ATOM      1  C   LIG    1        4.891  -3.102  -1.198  0.00  0.00    +0.062 A 
ATOM      2  C   LIG    1        5.725  -4.105  -1.694  0.00  0.00    +0.043 A 
ATOM      3  C   LIG    1        6.877  -3.769  -2.373  0.00  0.00    +0.106 A 
ATOM      4  C   LIG    1        7.210  -2.439  -2.566  0.00  0.00    +0.032 A 
ATOM      5  C   LIG    1        6.393  -1.437  -2.080  0.00  0.00    +0.048 A 
ATOM      6  C   LIG    1        5.229  -1.758  -1.400  0.00  0.00    +0.131 A 
ENDROOT
BRANCH   1  16
ATOM      7  C   LIG    1        0.762  -2.018   1.233  0.00  0.00    +0.132 A 
ATOM      8  N   LIG    1       -0.152  -2.792   1.768  0.00  0.00    -0.235 NA
ATOM      9  C   LIG    1        0.172  -4.072   1.581  0.00  0.00    +0.071 A 
ATOM     10  C   LIG    1       -0.616  -5.269   2.044  0.00  0.00    +0.068 C 
ATOM     11  C   LIG    1        1.358  -4.096   0.890  0.00  0.00    +0.152 A 
ATOM     12  C   LIG    1        2.233  -5.152   0.382  0.00  0.00    +0.278 A 
ATOM     13  O   LIG    1        1.956  -6.326   0.547  0.00  0.00    -0.265 OA
ATOM     14  N   LIG    1        3.351  -4.790  -0.287  0.00  0.00    -0.304 N 
ATOM     15  H   LIG    1        3.946  -5.472  -0.636  0.00  0.00    +0.170 HD
ATOM     16  C   LIG    1        3.656  -3.456  -0.469  0.00  0.00    +0.165 A 
ATOM     17  N   LIG    1        2.895  -2.498  -0.023  0.00  0.00    -0.146 NA
ATOM     18  N   LIG    1        1.715  -2.777   0.673  0.00  0.00    -0.210 N 
BRANCH   7  19
ATOM     19  C   LIG    1        0.742  -0.511   1.242  0.00  0.00    +0.076 C 
BRANCH  19  21
ATOM     20  C   LIG    1       -0.019   1.526   0.010  0.00  0.00    +0.004 C 
ATOM     21  C   LIG    1        0.002  -0.004   0.002  0.00  0.00    +0.004 C 
ENDBRANCH  19  21
ENDBRANCH   7  19
ENDBRANCH   1  16
BRANCH   3  22
ATOM     22  S   LIG    1        7.929  -5.037  -2.998  0.00  0.00    +0.061 S 
ATOM     23  O   LIG    1        7.679  -6.195  -2.214  0.00  0.00    -0.153 OA
ATOM     24  O   LIG    1        9.224  -4.465  -3.122  0.00  0.00    -0.153 OA
BRANCH  22  25
ATOM     25  N   LIG    1        7.417  -5.385  -4.534  0.00  0.00    -0.174 NA
ATOM     26  C   LIG    1        6.396  -6.416  -4.774  0.00  0.00    +0.125 C 
ATOM     27  C   LIG    1        5.295  -5.816  -5.655  0.00  0.00    +0.101 C 
ATOM     28  N   LIG    1        5.899  -5.247  -6.867  0.00  0.00    -0.298 NA
ATOM     29  C   LIG    1        6.808  -4.140  -6.540  0.00  0.00    +0.101 C 
ATOM     30  C   LIG    1        7.967  -4.667  -5.694  0.00  0.00    +0.125 C 
BRANCH  28  31
ATOM     31  C   LIG    1        4.865  -4.815  -7.817  0.00  0.00    +0.112 C 
BRANCH  31  32
ATOM     32  C   LIG    1        5.518  -4.463  -9.155  0.00  0.00    +0.171 C 
BRANCH  32  33
ATOM     33  O   LIG    1        6.092  -5.639  -9.730  0.00  0.00    -0.394 OA
ATOM     34  H   LIG    1        6.525  -5.489 -10.582  0.00  0.00    +0.209 HD
ENDBRANCH  32  33
ENDBRANCH  31  32
ENDBRANCH  28  31
ENDBRANCH  22  25
ENDBRANCH   3  22
BRANCH   6  35
ATOM     35  O   LIG    1        4.422  -0.774  -0.927  0.00  0.00    -0.492 OA
BRANCH  35  36
ATOM     36  C   LIG    1        4.831   0.574  -1.171  0.00  0.00    +0.226 C 
ATOM     37  C   LIG    1        3.804   1.535  -0.568  0.00  0.00    +0.048 C 
ENDBRANCH  35  36
ENDBRANCH   6  35
TORSDOF 10
