REMARK  Name = ZINC34421479
REMARK                            x       y       z     vdW  Elec       q    Type
REMARK                         _______ _______ _______ _____ _____    ______ ____
ROOT
ATOM      1  C   LIG    1       -3.348  -2.855   0.058  0.00  0.00    +0.188 C 
ATOM      2  C   LIG    1       -4.174  -2.780   1.346  0.00  0.00    +0.032 C 
ATOM      3  C   LIG    1       -5.330  -3.779   1.264  0.00  0.00    +0.003 C 
ATOM      4  C   LIG    1       -4.773  -5.198   1.129  0.00  0.00    +0.017 C 
ATOM      5  C   LIG    1       -3.954  -5.300  -0.161  0.00  0.00    +0.110 C 
ATOM      6  N   LIG    1       -2.929  -4.247  -0.159  0.00  0.00    -0.163 NA
ENDROOT
BRANCH   6   7
ATOM      7  S   LIG    1       -1.333  -4.622  -0.392  0.00  0.00    +0.062 S 
ATOM      8  O   LIG    1       -0.680  -3.411  -0.748  0.00  0.00    -0.153 OA
ATOM      9  O   LIG    1       -1.304  -5.776  -1.220  0.00  0.00    -0.153 OA
BRANCH   7  10
ATOM     10  C   LIG    1       -0.679  -5.106   1.171  0.00  0.00    +0.106 A 
ATOM     11  C   LIG    1        0.039  -4.200   1.930  0.00  0.00    +0.028 A 
ATOM     12  C   LIG    1        0.553  -4.580   3.156  0.00  0.00    +0.002 A 
ATOM     13  C   LIG    1        0.348  -5.865   3.623  0.00  0.00    +0.000 A 
ATOM     14  C   LIG    1       -0.370  -6.770   2.864  0.00  0.00    +0.002 A 
ATOM     15  C   LIG    1       -0.887  -6.389   1.640  0.00  0.00    +0.028 A 
ENDBRANCH   7  10
ENDBRANCH   6   7
BRANCH   1  16
ATOM     16  C   LIG    1       -2.131  -1.976   0.186  0.00  0.00    +0.326 C 
ATOM     17  O   LIG    1       -1.441  -2.040   1.176  0.00  0.00    -0.249 OA
BRANCH  16  18
ATOM     18  O   LIG    1       -1.813  -1.121  -0.799  0.00  0.00    -0.464 OA
BRANCH  18  20
ATOM     19  C   LIG    1       -0.447   0.586  -1.829  0.00  0.00    +0.048 C 
ATOM     20  C   LIG    1       -0.646  -0.319  -0.611  0.00  0.00    +0.229 C 
ENDBRANCH  18  20
ENDBRANCH  16  18
ENDBRANCH   1  16
TORSDOF 5
