REMARK  Name = ZINC58538132
REMARK                            x       y       z     vdW  Elec       q    Type
REMARK                         _______ _______ _______ _____ _____    ______ ____
ROOT
ATOM      1  C   LIG    1       -0.263  -0.421  -2.284  0.00  0.00    +0.123 C 
ENDROOT
BRANCH   1   4
ATOM      2  C   LIG    1       -0.152   1.287   0.383  0.00  0.00    +0.068 C 
ATOM      3  C   LIG    1       -0.156  -0.218   0.296  0.00  0.00    +0.065 A 
ATOM      4  C   LIG    1       -0.204  -0.971  -0.882  0.00  0.00    +0.010 A 
ATOM      5  C   LIG    1       -0.190  -2.280  -0.540  0.00  0.00    +0.047 A 
ATOM      6  C   LIG    1       -0.229  -3.448  -1.492  0.00  0.00    +0.066 C 
ATOM      7  N   LIG    1       -0.134  -2.353   0.809  0.00  0.00    -0.236 N 
ATOM      8  N   LIG    1       -0.109  -1.045   1.310  0.00  0.00    -0.171 NA
BRANCH   7   9
ATOM      9  C   LIG    1       -0.102  -3.530   1.571  0.00  0.00    +0.066 A 
ATOM     10  C   LIG    1        0.693  -4.595   1.172  0.00  0.00    +0.030 A 
ATOM     11  C   LIG    1        0.724  -5.753   1.924  0.00  0.00    +0.040 A 
ATOM     12  C   LIG    1       -0.039  -5.852   3.076  0.00  0.00    +0.124 A 
ATOM     13  F   LIG    1       -0.009  -6.985   3.810  0.00  0.00    -0.205 F 
ATOM     14  C   LIG    1       -0.834  -4.790   3.475  0.00  0.00    +0.040 A 
ATOM     15  C   LIG    1       -0.861  -3.628   2.729  0.00  0.00    +0.030 A 
ENDBRANCH   7   9
ENDBRANCH   1   4
BRANCH   1  16
ATOM     16  N   LIG    1        1.102  -0.242  -2.797  0.00  0.00    -0.295 NA
ATOM     17  C   LIG    1        1.781  -1.536  -2.950  0.00  0.00    +0.103 C 
ATOM     18  C   LIG    1        3.251  -1.298  -3.311  0.00  0.00    +0.120 C 
ATOM     19  N   LIG    1        3.306  -0.423  -4.492  0.00  0.00    -0.327 N 
ATOM     20  C   LIG    1        2.537   0.830  -4.467  0.00  0.00    +0.120 C 
ATOM     21  C   LIG    1        1.095   0.508  -4.060  0.00  0.00    +0.103 C 
BRANCH  19  22
ATOM     22  C   LIG    1        4.069  -0.774  -5.608  0.00  0.00    +0.033 A 
ATOM     23  C   LIG    1        4.206   0.118  -6.665  0.00  0.00    +0.023 A 
ATOM     24  C   LIG    1        4.961  -0.229  -7.769  0.00  0.00    +0.005 A 
ATOM     25  C   LIG    1        5.581  -1.462  -7.825  0.00  0.00    +0.046 A 
ATOM     26  C   LIG    1        5.447  -2.357  -6.773  0.00  0.00    +0.122 A 
ATOM     27  C   LIG    1        4.695  -2.011  -5.661  0.00  0.00    +0.068 A 
BRANCH  26  28
ATOM     28  O   LIG    1        6.058  -3.570  -6.830  0.00  0.00    -0.495 OA
ATOM     29  C   LIG    1        6.821  -3.857  -8.004  0.00  0.00    +0.277 C 
ENDBRANCH  26  28
ENDBRANCH  19  22
ENDBRANCH   1  16
TORSDOF 5
