REMARK  Name = ZINC25966487
REMARK                            x       y       z     vdW  Elec       q    Type
REMARK                         _______ _______ _______ _____ _____    ______ ____
ROOT
ATOM      1  C   LIG    1        2.481   1.070  -0.016  0.00  0.00    +0.094 A 
ATOM      2  C   LIG    1        3.680   1.787  -0.030  0.00  0.00    +0.046 A 
ATOM      3  C   LIG    1        4.874   1.058  -0.041  0.00  0.00    +0.077 A 
ATOM      4  C   LIG    1        4.785  -0.339  -0.048  0.00  0.00    +0.164 A 
ATOM      5 CL   LIG    1        6.230  -1.302  -0.069  0.00  0.00    -0.059 Cl
ATOM      6  N   LIG    1        3.601  -0.923  -0.039  0.00  0.00    -0.136 NA
ATOM      7  N   LIG    1        2.506  -0.256  -0.024  0.00  0.00    -0.148 NA
ENDROOT
BRANCH   1  13
ATOM      8  C   LIG    1       -0.013   1.076   0.008  0.00  0.00    +0.012 A 
ATOM      9  C   LIG    1       -1.216   1.751   0.017  0.00  0.00    +0.033 A 
ATOM     10  C   LIG    1       -1.236   3.134   0.031  0.00  0.00    +0.122 A 
ATOM     11  C   LIG    1       -0.052   3.848   0.023  0.00  0.00    +0.033 A 
ATOM     12  C   LIG    1        1.157   3.183   0.008  0.00  0.00    +0.012 A 
ATOM     13  C   LIG    1        1.184   1.790   0.000  0.00  0.00    +0.002 A 
BRANCH  10  14
ATOM     14  N   LIG    1       -2.531   3.852   0.047  0.00  0.00    +0.006 N 
ATOM     15  O   LIG    1       -2.551   5.070   0.054  0.00  0.00    -0.130 OA
BRANCH  14  16
ATOM     16  O   LIG    1       -3.575   3.226   0.054  0.00  0.00    -0.396 OA
ATOM     17  H   LIG    1       -3.559   2.289   0.049  0.00  0.00    +0.329 HD
ENDBRANCH  14  16
ENDBRANCH  10  14
ENDBRANCH   1  13
BRANCH   3  18
ATOM     18  C   LIG    1        6.187   1.742  -0.051  0.00  0.00    +0.245 C 
ATOM     19  N   LIG    1        6.245   3.089  -0.044  0.00  0.00    -0.325 N 
ATOM     20  H   LIG    1        5.318   3.680  -0.030  0.00  0.00    +0.145 HD
ATOM     21  H   LIG    1        7.221   3.597  -0.051  0.00  0.00    +0.145 HD
ATOM     22  O   LIG    1        7.212   1.089  -0.065  0.00  0.00    -0.270 OA
ENDBRANCH   3  18
TORSDOF 4
