REMARK  Name = ZINC33696847
REMARK                            x       y       z     vdW  Elec       q    Type
REMARK                         _______ _______ _______ _____ _____    ______ ____
ROOT
ATOM      1  C   LIG    1        1.480   3.229   1.553  0.00  0.00    +0.012 C 
ATOM      2  C   LIG    1        1.224   1.946   0.759  0.00  0.00    -0.018 C 
ATOM      3  C   LIG    1        1.136   2.234  -0.718  0.00  0.00    +0.008 C 
ATOM      4  C   LIG    1       -0.311   2.516  -1.147  0.00  0.00    +0.005 C 
ATOM      5  C   LIG    1       -1.133   3.024   0.026  0.00  0.00    +0.000 C 
ATOM      6  C   LIG    1       -1.292   1.919   1.077  0.00  0.00    -0.004 C 
ATOM      7  C   LIG    1       -1.891   2.517   2.345  0.00  0.00    +0.006 C 
ATOM      8  C   LIG    1       -3.261   3.123   1.997  0.00  0.00    +0.023 C 
ATOM      9  C   LIG    1       -3.572   2.893   0.526  0.00  0.00    +0.079 C 
ATOM     10  N   LIG    1       -4.889   3.387   0.154  0.00  0.00    -0.312 N 
ATOM     11  H   LIG    1       -5.671   3.498   0.920  0.00  0.00    +0.149 HD
ATOM     12  C   LIG    1       -5.189   3.717  -1.107  0.00  0.00    +0.213 C 
ATOM     13  O   LIG    1       -6.348   3.971  -1.364  0.00  0.00    -0.276 OA
ATOM     14  C   LIG    1       -4.188   3.792  -2.218  0.00  0.00    +0.096 C 
ATOM     15  C   LIG    1       -2.844   3.176  -1.829  0.00  0.00    +0.018 C 
ATOM     16  C   LIG    1       -2.515   3.525  -0.379  0.00  0.00    -0.010 C 
ATOM     17  C   LIG    1       -2.536   5.050  -0.209  0.00  0.00    +0.013 C 
ATOM     18  C   LIG    1        2.347   0.958   1.150  0.00  0.00    +0.081 C 
ATOM     19  C   LIG    1        1.907   0.438   2.542  0.00  0.00    +0.013 C 
ATOM     20  C   LIG    1        0.408   0.818   2.698  0.00  0.00    +0.005 C 
ATOM     21  C   LIG    1       -0.009   1.173   1.265  0.00  0.00    -0.001 C 
ENDROOT
BRANCH  18  22
ATOM     22  C   LIG    1        3.656   1.690   1.246  0.00  0.00    +0.217 C 
ATOM     23  N   LIG    1        4.606   1.262   2.102  0.00  0.00    -0.310 N 
ATOM     24  H   LIG    1        4.423   0.377   2.729  0.00  0.00    +0.149 HD
ATOM     25  O   LIG    1        3.857   2.666   0.555  0.00  0.00    -0.275 OA
BRANCH  23  26
ATOM     26  C   LIG    1        5.881   1.976   2.196  0.00  0.00    +0.026 C 
ATOM     27  C   LIG    1        6.577   1.960   0.833  0.00  0.00    +0.031 C 
ATOM     28  C   LIG    1        6.774   1.290   3.232  0.00  0.00    +0.031 C 
ATOM     29  C   LIG    1        5.626   3.423   2.621  0.00  0.00    +0.031 C 
ENDBRANCH  23  26
ENDBRANCH  18  22
TORSDOF 2
