REMARK  Name = ZINC34803574
REMARK                            x       y       z     vdW  Elec       q    Type
REMARK                         _______ _______ _______ _____ _____    ______ ____
ROOT
ATOM      1  C   LIG    1        4.898 -10.955  -8.463  0.00  0.00    +0.000 C 
ENDROOT
BRANCH   1   2
ATOM      2  C   LIG    1        4.877  -9.425  -8.455  0.00  0.00    +0.001 C 
BRANCH   2   3
ATOM      3  C   LIG    1        4.161  -8.932  -7.196  0.00  0.00    +0.013 C 
BRANCH   3   4
ATOM      4  C   LIG    1        4.140  -7.402  -7.188  0.00  0.00    +0.089 C 
BRANCH   4   6
ATOM      5  C   LIG    1        2.902  -6.548  -5.011  0.00  0.00    -0.102 C 
ATOM      6  C   LIG    1        3.451  -6.927  -5.977  0.00  0.00    -0.102 C 
BRANCH   5   7
ATOM      7  C   LIG    1        2.213  -6.074  -3.800  0.00  0.00    +0.089 C 
BRANCH   7   8
ATOM      8  C   LIG    1        2.192  -4.544  -3.791  0.00  0.00    +0.013 C 
BRANCH   8   9
ATOM      9  C   LIG    1        1.476  -4.051  -2.532  0.00  0.00    +0.001 C 
BRANCH   9  10
ATOM     10  C   LIG    1        1.455  -2.521  -2.524  0.00  0.00    +0.000 C 
BRANCH  10  11
ATOM     11  C   LIG    1        0.739  -2.027  -1.265  0.00  0.00    -0.000 C 
BRANCH  11  12
ATOM     12  C   LIG    1        0.718  -0.497  -1.257  0.00  0.00    -0.000 C 
BRANCH  12  14
ATOM     13  C   LIG    1       -0.019   1.526   0.010  0.00  0.00    +0.004 C 
ATOM     14  C   LIG    1        0.002  -0.004   0.002  0.00  0.00    -0.003 C 
ENDBRANCH  12  14
ENDBRANCH  11  12
ENDBRANCH  10  11
ENDBRANCH   9  10
ENDBRANCH   8   9
ENDBRANCH   7   8
ENDBRANCH   5   7
ENDBRANCH   4   6
ENDBRANCH   3   4
ENDBRANCH   2   3
ENDBRANCH   1   2
BRANCH   1  15
ATOM     15  C   LIG    1        5.614 -11.448  -9.722  0.00  0.00    +0.000 C 
BRANCH  15  16
ATOM     16  C   LIG    1        5.635 -12.978  -9.730  0.00  0.00    +0.008 C 
BRANCH  16  17
ATOM     17  C   LIG    1        6.351 -13.472 -10.989  0.00  0.00    +0.085 C 
BRANCH  17  18
ATOM     18  C   LIG    1        6.371 -14.979 -10.998  0.00  0.00    +0.217 C 
ATOM     19  O   LIG    1        5.863 -15.597 -10.087  0.00  0.00    -0.287 OA
BRANCH  18  20
ATOM     20  C   LIG    1        7.009 -15.701 -12.113  0.00  0.00    +0.266 A 
ATOM     21  N   LIG    1        7.590 -15.134 -13.140  0.00  0.00    -0.187 NA
ATOM     22  C   LIG    1        8.061 -16.091 -13.961  0.00  0.00    +0.199 A 
ATOM     23  C   LIG    1        7.732 -17.326 -13.370  0.00  0.00    +0.175 A 
ATOM     24  C   LIG    1        8.100 -18.505 -14.007  0.00  0.00    +0.051 A 
ATOM     25  C   LIG    1        8.782 -18.415 -15.207  0.00  0.00    +0.023 A 
ATOM     26  C   LIG    1        9.076 -17.165 -15.736  0.00  0.00    +0.113 A 
ATOM     27  N   LIG    1        8.720 -16.061 -15.119  0.00  0.00    -0.233 NA
ATOM     28  O   LIG    1        7.085 -17.041 -12.223  0.00  0.00    -0.431 OA
ENDBRANCH  18  20
ENDBRANCH  17  18
ENDBRANCH  16  17
ENDBRANCH  15  16
ENDBRANCH   1  15
TORSDOF 16
