REMARK  Name = ZINC38847238
REMARK                            x       y       z     vdW  Elec       q    Type
REMARK                         _______ _______ _______ _____ _____    ______ ____
ROOT
ATOM      1  C   UNK    1       -0.019   1.526   0.010  0.00  0.00    -0.011 C 
ATOM      2  C   UNK    1        0.002  -0.004   0.002  0.00  0.00    -0.043 C 
ATOM      3  C   UNK    1       -1.435  -0.562   0.090  0.00  0.00    +0.127 C 
ATOM      4  C   UNK    1       -1.324  -1.815   0.983  0.00  0.00    +0.130 C 
ATOM      5  C   UNK    1        0.171  -1.909   1.360  0.00  0.00    -0.014 C 
ATOM      6  N   UNK    1        0.682  -0.520   1.218  0.00  0.00    +0.388 N 
ATOM      7  H   UNK    1        0.429   0.032   2.024  0.00  0.00    -0.085 HD
ATOM      8  H   UNK    1        1.683  -0.522   1.089  0.00  0.00    -0.085 HD
ENDROOT
BRANCH   3   9
ATOM      9  O   UNK    1       -2.305   0.400   0.687  0.00  0.00    -0.391 OA
ATOM     10  H   UNK    1       -3.222   0.104   0.768  0.00  0.00    +0.210 HD
ENDBRANCH   3   9
BRANCH   4  11
ATOM     11  O   UNK    1       -1.728  -2.979   0.258  0.00  0.00    -0.391 OA
ATOM     12  H   UNK    1       -2.647  -2.955  -0.042  0.00  0.00    +0.210 HD
ENDBRANCH   4  11
BRANCH   5  13
ATOM     13  C   UNK    1        0.328  -2.394   2.802  0.00  0.00    +0.143 C 
BRANCH  13  14
ATOM     14  O   UNK    1        1.714  -2.584   3.092  0.00  0.00    -0.397 OA
ATOM     15  H   UNK    1        1.889  -2.893   3.992  0.00  0.00    +0.209 HD
ENDBRANCH  13  14
ENDBRANCH   5  13
TORSDOF 4
