REMARK  Name = ZINC29394466
REMARK                            x       y       z     vdW  Elec       q    Type
REMARK                         _______ _______ _______ _____ _____    ______ ____
ROOT
ATOM      1  C   LIG    1       -0.016   1.354   0.009  0.00  0.00    +0.006 A 
ATOM      2  C   LIG    1        0.002  -0.004   0.002  0.00  0.00    +0.009 A 
ATOM      3  C   LIG    1        1.231  -0.713  -0.013  0.00  0.00    -0.010 A 
ATOM      4  C   LIG    1        1.433  -2.105  -0.022  0.00  0.00    +0.031 A 
ATOM      5  C   LIG    1        2.697  -2.607  -0.037  0.00  0.00    +0.097 A 
ATOM      6  S   LIG    1        3.709  -1.137  -0.039  0.00  0.00    -0.082 S 
ATOM      7  C   LIG    1        2.409   0.071  -0.021  0.00  0.00    +0.020 A 
ATOM      8  C   LIG    1        2.374   1.449  -0.014  0.00  0.00    +0.021 A 
ATOM      9  C   LIG    1        1.157   2.099   0.002  0.00  0.00    -0.027 A 
ENDROOT
BRANCH   5  10
ATOM     10  C   LIG    1        3.123  -4.012  -0.047  0.00  0.00    +0.344 C 
ATOM     11  O   LIG    1        2.292  -4.899  -0.043  0.00  0.00    -0.245 OA
BRANCH  10  12
ATOM     12  O   LIG    1        4.436  -4.318  -0.061  0.00  0.00    -0.477 OA
ATOM     13  H   LIG    1        5.077  -3.634  -0.064  0.00  0.00    +0.295 HD
ENDBRANCH  10  12
ENDBRANCH   5  10
BRANCH   9  14
ATOM     14  C   LIG    1        1.100   3.604   0.011  0.00  0.00    +0.157 C 
BRANCH  14  15
ATOM     15  N   LIG    1        1.095   4.085   1.395  0.00  0.00    -0.334 N 
ATOM     16  C   LIG    1       -0.010   4.315   2.170  0.00  0.00    +0.105 A 
ATOM     17  C   LIG    1        0.437   4.743   3.367  0.00  0.00    +0.101 A 
ATOM     18  N   LIG    1        1.777   4.782   3.320  0.00  0.00    -0.352 N 
ATOM     19  H   LIG    1        2.349   5.112   4.200  0.00  0.00    +0.166 HD
ATOM     20  C   LIG    1        2.178   4.389   2.141  0.00  0.00    +0.174 A 
ENDBRANCH  14  15
ENDBRANCH   9  14
TORSDOF 4
