REMARK  Name = ZINC28563821
REMARK                            x       y       z     vdW  Elec       q    Type
REMARK                         _______ _______ _______ _____ _____    ______ ____
ROOT
ATOM      1  C   LIG    1       -4.728   0.188   6.805  0.00  0.00    +0.139 A 
ATOM      2  N   LIG    1       -5.962  -0.367   6.984  0.00  0.00    -0.337 N 
ATOM      3  C   LIG    1       -6.460   0.125   8.169  0.00  0.00    +0.074 A 
ATOM      4  C   LIG    1       -5.496   0.984   8.672  0.00  0.00    +0.097 A 
ATOM      5  H   LIG    1       -6.403  -0.993   6.388  0.00  0.00    +0.167 HD
ATOM      6  N   LIG    1       -4.465   0.990   7.812  0.00  0.00    -0.227 NA
ENDROOT
BRANCH   4   7
ATOM      7  C   LIG    1       -5.587   1.756   9.932  0.00  0.00    +0.003 A 
ATOM      8  C   LIG    1       -6.818   2.260  10.356  0.00  0.00    +0.011 A 
ATOM      9  C   LIG    1       -6.901   2.976  11.526  0.00  0.00    +0.011 A 
ATOM     10  C   LIG    1       -5.751   3.204  12.299  0.00  0.00    +0.003 A 
ATOM     11  C   LIG    1       -4.524   2.700  11.872  0.00  0.00    -0.037 A 
ATOM     12  C   LIG    1       -3.449   3.074  12.865  0.00  0.00    +0.042 C 
ATOM     13  C   LIG    1       -4.144   3.877  13.973  0.00  0.00    +0.064 C 
ATOM     14  C   LIG    1       -5.598   3.934  13.572  0.00  0.00    +0.088 C 
ATOM     15  N   LIG    1       -6.545   4.521  14.231  0.00  0.00    -0.092 NA
ATOM     16  C   LIG    1       -4.444   1.976  10.700  0.00  0.00    +0.014 A 
BRANCH  15  17
ATOM     17  O   LIG    1       -7.872   4.497  13.736  0.00  0.00    -0.409 OA
ATOM     18  H   LIG    1       -8.509   4.961  14.296  0.00  0.00    +0.328 HD
ENDBRANCH  15  17
ENDBRANCH   4   7
BRANCH   1  22
ATOM     19  C   LIG    1       -2.151  -0.548   3.508  0.00  0.00    +0.120 A 
ATOM     20  C   LIG    1       -1.757   0.325   4.513  0.00  0.00    +0.046 A 
ATOM     21  C   LIG    1       -2.590   0.567   5.584  0.00  0.00    +0.015 A 
ATOM     22  C   LIG    1       -3.832  -0.068   5.658  0.00  0.00    +0.018 A 
ATOM     23  C   LIG    1       -4.224  -0.945   4.645  0.00  0.00    +0.015 A 
ATOM     24  C   LIG    1       -3.388  -1.177   3.575  0.00  0.00    +0.046 A 
BRANCH  19  25
ATOM     25  O   LIG    1       -1.328  -0.783   2.454  0.00  0.00    -0.494 OA
BRANCH  25  26
ATOM     26  C   LIG    1       -0.071  -0.103   2.448  0.00  0.00    +0.210 C 
BRANCH  26  27
ATOM     27  C   LIG    1        0.713  -0.491   1.192  0.00  0.00    -0.038 C 
BRANCH  27  29
ATOM     28  C   LIG    1       -0.018   1.465   0.010  0.00  0.00    -0.096 C 
ATOM     29  N   LIG    1        0.002  -0.004   0.002  0.00  0.00    +0.378 N 
ATOM     30  H   LIG    1       -0.945  -0.353   0.009  0.00  0.00    -0.082 HD
ATOM     31  C   LIG    1        0.690  -0.478  -1.207  0.00  0.00    -0.096 C 
ENDBRANCH  27  29
ENDBRANCH  26  27
ENDBRANCH  25  26
ENDBRANCH  19  25
ENDBRANCH   1  22
BRANCH   3  32
ATOM     32  C   LIG    1       -7.764  -0.195   8.779  0.00  0.00    +0.003 A 
ATOM     33  C   LIG    1       -7.870  -0.472  10.149  0.00  0.00    +0.030 A 
ATOM     34  C   LIG    1       -9.109  -0.766  10.677  0.00  0.00    +0.111 A 
ATOM     35  N   LIG    1      -10.184  -0.789   9.912  0.00  0.00    -0.263 NA
ATOM     36  C   LIG    1      -10.130  -0.535   8.617  0.00  0.00    +0.111 A 
ATOM     37  C   LIG    1       -8.934  -0.225   8.007  0.00  0.00    +0.030 A 
ENDBRANCH   3  32
TORSDOF 8
