REMARK  Name = ZINC34778317
REMARK                            x       y       z     vdW  Elec       q    Type
REMARK                         _______ _______ _______ _____ _____    ______ ____
ROOT
ATOM      1  C   LIG    1        0.373   1.450   0.233  0.00  0.00    +0.061 C 
ATOM      2  C   LIG    1        0.179  -0.038   0.103  0.00  0.00    +0.018 C 
ATOM      3  C   LIG    1       -1.069  -0.556   0.170  0.00  0.00    +0.041 C 
ATOM      4  C   LIG    1       -1.218  -2.058   0.035  0.00  0.00    +0.138 C 
ATOM      5  N   LIG    1        0.018  -2.835  -0.160  0.00  0.00    -0.315 N 
ATOM      6  H   LIG    1       -0.012  -3.800  -0.252  0.00  0.00    +0.149 HD
ATOM      7  C   LIG    1        1.191  -2.174  -0.205  0.00  0.00    +0.137 C 
ATOM      8  S   LIG    1        2.635  -3.066  -0.430  0.00  0.00    -0.018 S 
ATOM      9  N   LIG    1        1.265  -0.843  -0.085  0.00  0.00    -0.289 N 
ATOM     10  C   LIG    1        2.586  -0.214  -0.154  0.00  0.00    +0.137 C 
ENDROOT
BRANCH   4  11
ATOM     11  C   LIG    1       -2.127  -2.331  -1.136  0.00  0.00    -0.019 A 
ATOM     12  C   LIG    1       -1.612  -2.359  -2.419  0.00  0.00    +0.006 A 
ATOM     13  C   LIG    1       -2.443  -2.609  -3.494  0.00  0.00    +0.004 A 
ATOM     14  C   LIG    1       -3.791  -2.833  -3.290  0.00  0.00    +0.045 A 
ATOM     15  C   LIG    1       -4.310  -2.806  -2.004  0.00  0.00    +0.117 A 
ATOM     16  C   LIG    1       -3.473  -2.560  -0.925  0.00  0.00    +0.051 A 
BRANCH  15  17
ATOM     17  O   LIG    1       -5.636  -3.026  -1.800  0.00  0.00    -0.507 OA
ATOM     18  H   LIG    1       -5.864  -3.955  -1.660  0.00  0.00    +0.292 HD
ENDBRANCH  15  17
ENDBRANCH   4  11
BRANCH   3  19
ATOM     19  C   LIG    1       -2.197   0.277   0.360  0.00  0.00    +0.193 C 
ATOM     20  O   LIG    1       -2.526   1.064  -0.509  0.00  0.00    -0.287 OA
BRANCH  19  21
ATOM     21  C   LIG    1       -2.977   0.191   1.615  0.00  0.00    +0.022 A 
ATOM     22  C   LIG    1       -2.530  -0.613   2.664  0.00  0.00    +0.012 A 
ATOM     23  C   LIG    1       -3.261  -0.688   3.832  0.00  0.00    +0.001 A 
ATOM     24  C   LIG    1       -4.436   0.031   3.963  0.00  0.00    +0.000 A 
ATOM     25  C   LIG    1       -4.885   0.830   2.926  0.00  0.00    +0.001 A 
ATOM     26  C   LIG    1       -4.160   0.918   1.755  0.00  0.00    +0.012 A 
ENDBRANCH  19  21
ENDBRANCH   3  19
TORSDOF 4
