REMARK  Name = ZINC37858692
REMARK                            x       y       z     vdW  Elec       q    Type
REMARK                         _______ _______ _______ _____ _____    ______ ____
ROOT
ATOM      1  C   LIG    1        0.027   1.280  -0.967  0.00  0.00    +0.001 A 
ATOM      2  C   LIG    1        1.211   2.013  -0.969  0.00  0.00    +0.001 A 
ATOM      3  C   LIG    1        2.410   1.406  -0.748  0.00  0.00    +0.012 A 
ATOM      4  C   LIG    1        2.457   0.023  -0.515  0.00  0.00    +0.025 A 
ATOM      5  C   LIG    1        1.253  -0.724  -0.512  0.00  0.00    -0.014 A 
ATOM      6  C   LIG    1        1.290  -2.113  -0.280  0.00  0.00    +0.009 A 
ATOM      7  C   LIG    1        2.473  -2.737  -0.058  0.00  0.00    +0.016 A 
ATOM      8  C   LIG    1        3.680  -2.014  -0.056  0.00  0.00    +0.059 A 
ATOM      9  C   LIG    1        4.961  -2.697   0.185  0.00  0.00    +0.133 A 
ATOM     10  C   LIG    1        6.102  -1.951   0.175  0.00  0.00    +0.111 A 
ATOM     11  C   LIG    1        6.024  -0.561  -0.062  0.00  0.00    +0.201 A 
ATOM     12  N   LIG    1        7.126   0.151  -0.070  0.00  0.00    -0.338 N 
ATOM     13  C   LIG    1        8.446  -0.493   0.016  0.00  0.00    +0.147 C 
ATOM     14  C   LIG    1        9.325   0.052  -1.115  0.00  0.00    +0.181 C 
ATOM     15  O   LIG    1        9.313   1.481  -1.074  0.00  0.00    -0.376 OA
ATOM     16  C   LIG    1        8.024   2.061  -1.288  0.00  0.00    +0.181 C 
ATOM     17  C   LIG    1        7.078   1.619  -0.172  0.00  0.00    +0.147 C 
ATOM     18  O   LIG    1        4.843   0.049  -0.280  0.00  0.00    -0.439 OA
ATOM     19  C   LIG    1        3.681  -0.637  -0.283  0.00  0.00    +0.149 A 
ATOM     20  C   LIG    1        0.035  -0.064  -0.744  0.00  0.00    +0.008 A 
ENDROOT
BRANCH   9  21
ATOM     21  O   LIG    1        5.005  -4.032   0.410  0.00  0.00    -0.506 OA
ATOM     22  H   LIG    1        5.897  -4.377   0.557  0.00  0.00    +0.292 HD
ENDBRANCH   9  21
TORSDOF 1
