REMARK  Name = ZINC00057534
REMARK                            x       y       z     vdW  Elec       q    Type
REMARK                         _______ _______ _______ _____ _____    ______ ____
ROOT
ATOM      1  C   LIG    1       -0.018   1.503   0.010  0.00  0.00    +0.044 C 
ATOM      2  C   LIG    1        0.002  -0.004   0.002  0.00  0.00    -0.046 A 
ATOM      3  C   LIG    1        0.006  -0.689  -1.199  0.00  0.00    +0.007 A 
ATOM      4  C   LIG    1        0.025  -2.071  -1.206  0.00  0.00    -0.041 A 
ATOM      5  C   LIG    1        0.040  -2.768  -0.013  0.00  0.00    +0.007 A 
ATOM      6  C   LIG    1        0.037  -2.084   1.188  0.00  0.00    -0.046 A 
ATOM      7  C   LIG    1        0.054  -2.844   2.489  0.00  0.00    +0.044 C 
ATOM      8  C   LIG    1        0.023  -0.702   1.195  0.00  0.00    -0.030 A 
ENDROOT
BRANCH   4   9
ATOM      9  C   LIG    1        0.027  -2.817  -2.516  0.00  0.00    -0.013 C 
ATOM     10  C   LIG    1       -1.231  -2.460  -3.309  0.00  0.00    +0.015 C 
ATOM     11  C   LIG    1        0.049  -4.323  -2.244  0.00  0.00    +0.015 C 
ATOM     12  C   LIG    1        1.267  -2.426  -3.323  0.00  0.00    +0.015 C 
ENDBRANCH   4   9
BRANCH   8  13
ATOM     13  C   LIG    1        0.025   0.045   2.505  0.00  0.00    +0.159 C 
BRANCH  13  14
ATOM     14  C   LIG    1       -1.395   0.274   2.954  0.00  0.00    +0.243 C 
ATOM     15  N   LIG    1       -2.079   1.341   2.612  0.00  0.00    -0.275 N 
ATOM     16  H   LIG    1       -1.750   2.063   2.055  0.00  0.00    +0.304 HD
ATOM     17  C   LIG    1       -3.423   1.268   3.207  0.00  0.00    +0.276 C 
ATOM     18  C   LIG    1       -3.395  -0.069   3.977  0.00  0.00    +0.268 C 
ATOM     19  N   LIG    1       -2.040  -0.580   3.713  0.00  0.00    -0.237 N 
ATOM     20  H   LIG    1       -1.681  -1.416   4.048  0.00  0.00    +0.291 HD
ENDBRANCH  13  14
ENDBRANCH   8  13
TORSDOF 3
