REMARK  Name = ZINC49032611
REMARK                            x       y       z     vdW  Elec       q    Type
REMARK                         _______ _______ _______ _____ _____    ______ ____
ROOT
ATOM      1  C   LIG    1        3.697  -0.687  -0.038  0.00  0.00    +0.121 C 
ATOM      2  N   LIG    1        4.885  -0.144  -0.042  0.00  0.00    -0.177 NA
ATOM      3  N   LIG    1        5.886  -1.114  -0.059  0.00  0.00    -0.201 N 
ATOM      4  H   LIG    1        6.838  -0.928  -0.065  0.00  0.00    +0.178 HD
ATOM      5  C   LIG    1        5.343  -2.348  -0.067  0.00  0.00    +0.285 C 
ATOM      6  O   LIG    1        5.939  -3.411  -0.082  0.00  0.00    -0.267 OA
ATOM      7  C   LIG    1        3.884  -2.153  -0.048  0.00  0.00    +0.172 C 
ATOM      8  N   LIG    1        2.948  -3.083  -0.043  0.00  0.00    -0.175 NA
ENDROOT
BRANCH   1  12
ATOM      9  C   LIG    1       -0.017   1.379   0.010  0.00  0.00    +0.000 A 
ATOM     10  C   LIG    1        1.169   2.093   0.002  0.00  0.00    +0.001 A 
ATOM     11  C   LIG    1        2.377   1.427  -0.013  0.00  0.00    +0.010 A 
ATOM     12  C   LIG    1        2.403   0.033  -0.021  0.00  0.00    +0.004 A 
ATOM     13  C   LIG    1        1.205  -0.680  -0.013  0.00  0.00    +0.010 A 
ATOM     14  C   LIG    1        0.002  -0.004   0.002  0.00  0.00    +0.001 A 
ENDBRANCH   1  12
BRANCH   8  15
ATOM     15  N   LIG    1        3.278  -4.330  -0.053  0.00  0.00    -0.236 N 
ATOM     16  H   LIG    1        4.214  -4.584  -0.065  0.00  0.00    +0.174 HD
BRANCH  15  17
ATOM     17  C   LIG    1        2.288  -5.314  -0.048  0.00  0.00    +0.067 A 
ATOM     18  C   LIG    1        0.946  -4.952  -0.038  0.00  0.00    +0.026 A 
ATOM     19  C   LIG    1       -0.030  -5.928  -0.033  0.00  0.00    +0.002 A 
ATOM     20  C   LIG    1        0.325  -7.264  -0.038  0.00  0.00    +0.002 A 
ATOM     21  C   LIG    1        1.658  -7.630  -0.048  0.00  0.00    +0.022 A 
ATOM     22  C   LIG    1        2.642  -6.659  -0.059  0.00  0.00    +0.063 A 
ATOM     23 CL   LIG    1        4.316  -7.117  -0.080  0.00  0.00    -0.082 Cl
ENDBRANCH  15  17
ENDBRANCH   8  15
TORSDOF 3
