REMARK  Name = ZINC14949271
REMARK                            x       y       z     vdW  Elec       q    Type
REMARK                         _______ _______ _______ _____ _____    ______ ____
ROOT
ATOM      1  C   LIG    1        6.008   0.841  -0.051  0.00  0.00    +0.116 A 
ATOM      2  C   LIG    1        6.824   1.855  -0.728  0.00  0.00    +0.029 A 
ATOM      3  C   LIG    1        6.522   2.978  -1.504  0.00  0.00    +0.013 A 
ATOM      4  C   LIG    1        7.528   3.747  -2.009  0.00  0.00    +0.011 A 
ATOM      5  C   LIG    1        8.866   3.421  -1.756  0.00  0.00    +0.006 A 
ATOM      6  C   LIG    1        9.184   2.311  -0.989  0.00  0.00    +0.038 A 
ATOM      7  C   LIG    1        8.166   1.519  -0.468  0.00  0.00    +0.067 A 
ATOM      8  N   LIG    1        8.152   0.387   0.308  0.00  0.00    -0.276 N 
ATOM      9  H   LIG    1        8.937  -0.074   0.642  0.00  0.00    +0.189 HD
ATOM     10  N   LIG    1        6.827   0.006   0.545  0.00  0.00    -0.171 NA
ENDROOT
BRANCH   1  16
ATOM     11  C   LIG    1       -0.017   1.384   0.010  0.00  0.00    +0.004 A 
ATOM     12  C   LIG    1        1.159   2.103   0.002  0.00  0.00    +0.026 A 
ATOM     13  C   LIG    1        2.378   1.435  -0.013  0.00  0.00    +0.047 A 
ATOM     14  C   LIG    1        2.393   0.027  -0.021  0.00  0.00    +0.000 A 
ATOM     15  C   LIG    1        3.800  -0.369  -0.037  0.00  0.00    +0.037 A 
ATOM     16  C   LIG    1        4.532   0.774  -0.038  0.00  0.00    +0.068 A 
ATOM     17  C   LIG    1        1.188  -0.682  -0.013  0.00  0.00    +0.011 A 
ATOM     18  N   LIG    1        3.689   1.861  -0.024  0.00  0.00    -0.353 N 
ATOM     19  H   LIG    1        3.974   2.789  -0.022  0.00  0.00    +0.166 HD
ATOM     20  C   LIG    1        0.002  -0.004   0.002  0.00  0.00    -0.063 A 
BRANCH  20  21
ATOM     21  C   LIG    1       -1.296  -0.769   0.010  0.00  0.00    -0.043 C 
BRANCH  21  22
ATOM     22  N   LIG    1       -1.731  -1.010  -1.372  0.00  0.00    +0.382 N 
ATOM     23  H   LIG    1       -0.994  -1.477  -1.879  0.00  0.00    -0.081 HD
ATOM     24  C   LIG    1       -2.031   0.272  -2.020  0.00  0.00    -0.078 C 
ATOM     25  C   LIG    1       -2.407   0.033  -3.484  0.00  0.00    -0.019 C 
ATOM     26  C   LIG    1       -3.640  -0.873  -3.547  0.00  0.00    -0.004 C 
ATOM     27  C   LIG    1       -3.341  -2.178  -2.804  0.00  0.00    -0.019 C 
ATOM     28  C   LIG    1       -2.930  -1.857  -1.365  0.00  0.00    -0.078 C 
ENDBRANCH  21  22
ENDBRANCH  20  21
ENDBRANCH   1  16
BRANCH   5  29
ATOM     29  C   LIG    1        9.950   4.269  -2.314  0.00  0.00    +0.118 A 
ATOM     30  N   LIG    1       11.109   4.558  -1.749  0.00  0.00    -0.154 NA
ATOM     31  N   LIG    1       11.775   5.316  -2.545  0.00  0.00    -0.196 N 
ATOM     32  H   LIG    1       12.662   5.663  -2.359  0.00  0.00    +0.213 HD
ATOM     33  N   LIG    1       11.110   5.556  -3.618  0.00  0.00    -0.157 NA
ATOM     34  C   LIG    1        9.955   4.937  -3.552  0.00  0.00    +0.116 A 
BRANCH  34  35
ATOM     35  C   LIG    1        8.861   4.941  -4.588  0.00  0.00    +0.215 C 
BRANCH  35  36
ATOM     36  O   LIG    1        7.967   6.026  -4.333  0.00  0.00    -0.389 OA
ATOM     37  H   LIG    1        7.236   6.090  -4.962  0.00  0.00    +0.210 HD
ENDBRANCH  35  36
ENDBRANCH  34  35
ENDBRANCH   5  29
TORSDOF 6
