REMARK  Name = ZINC17087339
REMARK                            x       y       z     vdW  Elec       q    Type
REMARK                         _______ _______ _______ _____ _____    ______ ____
ROOT
ATOM      1  C   LIG    1        5.412   1.131  -0.113  0.00  0.00    +0.247 C 
ATOM      2  N   LIG    1        4.080   1.324  -0.031  0.00  0.00    -0.295 N 
ATOM      3  C   LIG    1        3.429   1.554   1.268  0.00  0.00    +0.123 C 
ATOM      4  C   LIG    1        2.252   0.581   1.400  0.00  0.00    +0.104 C 
ATOM      5  N   LIG    1        1.373   0.719   0.232  0.00  0.00    -0.289 NA
ATOM      6  C   LIG    1        2.071   0.347  -1.007  0.00  0.00    +0.104 C 
ATOM      7  C   LIG    1        3.240   1.310  -1.238  0.00  0.00    +0.123 C 
ATOM      8  O   LIG    1        6.100   1.215   0.886  0.00  0.00    -0.270 OA
ENDROOT
BRANCH   1  13
ATOM      9  C   LIG    1        7.839  -0.086  -5.186  0.00  0.00    +0.044 C 
ATOM     10  C   LIG    1        7.204   0.233  -3.858  0.00  0.00    -0.050 A 
ATOM     11  C   LIG    1        6.331   1.301  -3.750  0.00  0.00    +0.004 A 
ATOM     12  C   LIG    1        5.745   1.598  -2.537  0.00  0.00    +0.013 A 
ATOM     13  C   LIG    1        6.035   0.818  -1.416  0.00  0.00    +0.037 A 
ATOM     14  C   LIG    1        6.920  -0.255  -1.530  0.00  0.00    +0.013 A 
ATOM     15  C   LIG    1        7.495  -0.544  -2.751  0.00  0.00    +0.004 A 
ENDBRANCH   1  13
BRANCH   5  16
ATOM     16  C   LIG    1        0.145  -0.070   0.401  0.00  0.00    +0.117 C 
BRANCH  16  17
ATOM     17  C   LIG    1       -0.596   0.410   1.622  0.00  0.00    -0.026 A 
ATOM     18  C   LIG    1       -0.662   1.762   1.902  0.00  0.00    +0.008 A 
ATOM     19  C   LIG    1       -1.346   2.204   3.019  0.00  0.00    +0.038 A 
ATOM     20  C   LIG    1       -1.955   1.291   3.863  0.00  0.00    +0.123 A 
ATOM     21  F   LIG    1       -2.620   1.722   4.958  0.00  0.00    -0.205 F 
ATOM     22  C   LIG    1       -1.884  -0.063   3.584  0.00  0.00    +0.038 A 
ATOM     23  C   LIG    1       -1.204  -0.502   2.463  0.00  0.00    +0.008 A 
ENDBRANCH  16  17
BRANCH  16  24
ATOM     24  C   LIG    1       -0.729   0.096  -0.815  0.00  0.00    -0.026 A 
ATOM     25  C   LIG    1       -0.853   1.336  -1.414  0.00  0.00    +0.008 A 
ATOM     26  C   LIG    1       -1.651   1.488  -2.532  0.00  0.00    +0.038 A 
ATOM     27  C   LIG    1       -2.335   0.400  -3.046  0.00  0.00    +0.123 A 
ATOM     28  F   LIG    1       -3.119   0.548  -4.136  0.00  0.00    -0.205 F 
ATOM     29  C   LIG    1       -2.215  -0.841  -2.443  0.00  0.00    +0.038 A 
ATOM     30  C   LIG    1       -1.412  -0.992  -1.328  0.00  0.00    +0.008 A 
ENDBRANCH  16  24
ENDBRANCH   5  16
TORSDOF 4
