REMARK  Name = ZINC28571311
REMARK                            x       y       z     vdW  Elec       q    Type
REMARK                         _______ _______ _______ _____ _____    ______ ____
ROOT
ATOM      1  S   LIG    1       -3.151   1.010   1.472  0.00  0.00    +0.062 S 
ATOM      2  O   LIG    1       -3.114   1.579   0.170  0.00  0.00    -0.153 OA
ATOM      3  O   LIG    1       -3.035   1.795   2.650  0.00  0.00    -0.153 OA
ENDROOT
BRANCH   1   8
ATOM      4  C   LIG    1        0.071   1.228  -0.126  0.00  0.00    +0.024 C 
ATOM      5  C   LIG    1        0.005  -0.290   0.051  0.00  0.00    +0.037 C 
ATOM      6  C   LIG    1        0.546  -0.978  -1.204  0.00  0.00    +0.024 C 
ATOM      7  C   LIG    1       -1.448  -0.717   0.290  0.00  0.00    +0.183 C 
ATOM      8  N   LIG    1       -1.936  -0.114   1.531  0.00  0.00    -0.163 NA
ATOM      9  C   LIG    1       -1.364  -0.493   2.824  0.00  0.00    +0.121 C 
ATOM     10  C   LIG    1        0.099  -0.039   2.888  0.00  0.00    +0.087 C 
ATOM     11  S   LIG    1        0.999  -0.780   1.493  0.00  0.00    -0.151 S 
BRANCH   7  12
ATOM     12  C   LIG    1       -2.303  -0.257  -0.863  0.00  0.00    +0.256 C 
ATOM     13  N   LIG    1       -3.421  -0.936  -1.186  0.00  0.00    -0.196 N 
ATOM     14  H   LIG    1       -3.675  -1.722  -0.677  0.00  0.00    +0.182 HD
ATOM     15  O   LIG    1       -1.984   0.726  -1.499  0.00  0.00    -0.272 OA
BRANCH  13  16
ATOM     16  O   LIG    1       -4.224  -0.503  -2.269  0.00  0.00    -0.295 OA
ATOM     17  H   LIG    1       -5.004  -1.053  -2.425  0.00  0.00    +0.241 HD
ENDBRANCH  13  16
ENDBRANCH   7  12
ENDBRANCH   1   8
BRANCH   1  18
ATOM     18  C   LIG    1       -4.676   0.137   1.596  0.00  0.00    +0.106 A 
ATOM     19  C   LIG    1       -5.395  -0.162   0.454  0.00  0.00    +0.032 A 
ATOM     20  C   LIG    1       -6.592  -0.846   0.549  0.00  0.00    +0.047 A 
ATOM     21  C   LIG    1       -7.071  -1.234   1.792  0.00  0.00    +0.122 A 
ATOM     22  C   LIG    1       -6.346  -0.934   2.937  0.00  0.00    +0.047 A 
ATOM     23  C   LIG    1       -5.148  -0.254   2.836  0.00  0.00    +0.032 A 
BRANCH  21  24
ATOM     24  O   LIG    1       -8.247  -1.907   1.888  0.00  0.00    -0.480 OA
BRANCH  24  25
ATOM     25  C   LIG    1       -8.679  -2.275   3.200  0.00  0.00    +0.317 C 
BRANCH  25  26
ATOM     26  C   LIG    1       -9.962  -2.991   3.112  0.00  0.00    -0.059 C 
ATOM     27  C   LIG    1      -10.986  -3.561   3.041  0.00  0.00    -0.071 C 
BRANCH  27  28
ATOM     28  C   LIG    1      -12.269  -4.277   2.953  0.00  0.00    +0.244 C 
BRANCH  28  29
ATOM     29  O   LIG    1      -12.701  -4.645   4.264  0.00  0.00    -0.383 OA
ATOM     30  H   LIG    1      -13.542  -5.121   4.282  0.00  0.00    +0.211 HD
ENDBRANCH  28  29
ENDBRANCH  27  28
ENDBRANCH  25  26
ENDBRANCH  24  25
ENDBRANCH  21  24
ENDBRANCH   1  18
TORSDOF 9
