REMARK  Name = ZINC00006165
REMARK                            x       y       z     vdW  Elec       q    Type
REMARK                         _______ _______ _______ _____ _____    ______ ____
ROOT
ATOM      1  C   LIG    1       -0.070   5.326   0.032  0.00  0.00    +0.008 A 
ATOM      2  C   LIG    1        0.692   6.029   0.947  0.00  0.00    +0.014 A 
ATOM      3  C   LIG    1        0.685   7.419   0.960  0.00  0.00    -0.042 A 
ATOM      4  C   LIG    1       -0.080   8.125   0.081  0.00  0.00    +0.014 A 
ATOM      5  C   LIG    1       -0.873   7.450  -0.861  0.00  0.00    +0.001 A 
ATOM      6  C   LIG    1       -1.673   8.154  -1.781  0.00  0.00    +0.011 A 
ATOM      7  C   LIG    1       -2.420   7.433  -2.669  0.00  0.00    +0.020 A 
ATOM      8  C   LIG    1       -2.374   6.041  -2.646  0.00  0.00    +0.111 A 
ATOM      9  N   LIG    1       -1.627   5.390  -1.786  0.00  0.00    -0.254 NA
ATOM     10  C   LIG    1       -0.874   6.035  -0.893  0.00  0.00    +0.079 A 
ENDROOT
BRANCH   1  13
ATOM     11  C   LIG    1       -1.221   1.748   0.017  0.00  0.00    +0.003 A 
ATOM     12  C   LIG    1       -1.246   3.128   0.031  0.00  0.00    +0.009 A 
ATOM     13  C   LIG    1       -0.050   3.844   0.023  0.00  0.00    -0.014 A 
ATOM     14  C   LIG    1        1.165   3.161   0.008  0.00  0.00    +0.041 A 
ATOM     15  C   LIG    1        1.178   1.781   0.000  0.00  0.00    +0.122 A 
ATOM     16  C   LIG    1       -0.013   1.076   0.008  0.00  0.00    +0.032 A 
BRANCH  15  17
ATOM     17  N   LIG    1        2.467   1.054  -0.015  0.00  0.00    +0.006 N 
ATOM     18  O   LIG    1        2.479  -0.164  -0.022  0.00  0.00    -0.130 OA
BRANCH  17  19
ATOM     19  O   LIG    1        3.516   1.674  -0.022  0.00  0.00    -0.396 OA
ATOM     20  H   LIG    1        3.506   2.611  -0.017  0.00  0.00    +0.329 HD
ENDBRANCH  17  19
ENDBRANCH  15  17
ENDBRANCH   1  13
BRANCH   3  21
ATOM     21  C   LIG    1        1.532   8.156   1.965  0.00  0.00    +0.070 C 
BRANCH  21  22
ATOM     22  C   LIG    1        0.735   8.381   3.224  0.00  0.00    -0.040 A 
ATOM     23  C   LIG    1       -0.025   9.529   3.386  0.00  0.00    +0.023 A 
ATOM     24  C   LIG    1       -0.747   9.700   4.553  0.00  0.00    +0.111 A 
ATOM     25  N   LIG    1       -0.709   8.791   5.508  0.00  0.00    -0.263 NA
ATOM     26  C   LIG    1        0.006   7.690   5.390  0.00  0.00    +0.111 A 
ATOM     27  C   LIG    1        0.750   7.449   4.250  0.00  0.00    +0.023 A 
ENDBRANCH  21  22
ENDBRANCH   3  21
TORSDOF 5
