REMARK  Name = ZINC21981375
REMARK                            x       y       z     vdW  Elec       q    Type
REMARK                         _______ _______ _______ _____ _____    ______ ____
ROOT
ATOM      1  C   LIG    1       -3.387  -3.387   3.659  0.00  0.00    +0.061 A 
ATOM      2  C   LIG    1       -3.787  -2.067   3.882  0.00  0.00    +0.043 A 
ATOM      3  C   LIG    1       -4.957  -1.809   4.564  0.00  0.00    +0.106 A 
ATOM      4  C   LIG    1       -5.739  -2.854   5.030  0.00  0.00    +0.032 A 
ATOM      5  C   LIG    1       -5.355  -4.163   4.817  0.00  0.00    +0.048 A 
ATOM      6  C   LIG    1       -4.184  -4.441   4.127  0.00  0.00    +0.131 A 
ENDROOT
BRANCH   1  14
ATOM      7  C   LIG    1        0.762  -2.018   1.233  0.00  0.00    +0.087 A 
ATOM      8  C   LIG    1       -0.209  -2.849   1.802  0.00  0.00    +0.095 A 
ATOM      9  C   LIG    1        0.188  -4.165   1.573  0.00  0.00    +0.151 A 
ATOM     10  N   LIG    1        1.366  -4.114   0.886  0.00  0.00    -0.260 N 
ATOM     11  C   LIG    1        2.151  -5.265   0.432  0.00  0.00    +0.173 C 
ATOM     12  C   LIG    1       -0.664  -5.244   2.074  0.00  0.00    +0.299 A 
ATOM     13  N   LIG    1       -1.791  -4.924   2.731  0.00  0.00    -0.189 NA
ATOM     14  C   LIG    1       -2.137  -3.670   2.930  0.00  0.00    +0.146 A 
ATOM     15  O   LIG    1       -0.357  -6.413   1.898  0.00  0.00    -0.263 OA
ATOM     16  N   LIG    1       -1.387  -2.624   2.489  0.00  0.00    -0.336 N 
ATOM     17  H   LIG    1       -1.680  -1.716   2.658  0.00  0.00    +0.167 HD
ATOM     18  N   LIG    1        1.688  -2.764   0.688  0.00  0.00    -0.174 NA
BRANCH   7  19
ATOM     19  C   LIG    1        0.742  -0.511   1.242  0.00  0.00    +0.059 C 
BRANCH  19  21
ATOM     20  C   LIG    1       -0.019   1.526   0.010  0.00  0.00    +0.004 C 
ATOM     21  C   LIG    1        0.002  -0.004   0.002  0.00  0.00    +0.003 C 
ENDBRANCH  19  21
ENDBRANCH   7  19
ENDBRANCH   1  14
BRANCH   3  22
ATOM     22  S   LIG    1       -5.460  -0.144   4.845  0.00  0.00    +0.061 S 
ATOM     23  O   LIG    1       -4.283   0.650   4.789  0.00  0.00    -0.153 OA
ATOM     24  O   LIG    1       -6.312  -0.164   5.982  0.00  0.00    -0.153 OA
BRANCH  22  25
ATOM     25  N   LIG    1       -6.398   0.308   3.558  0.00  0.00    -0.174 NA
ATOM     26  C   LIG    1       -5.796   0.921   2.364  0.00  0.00    +0.125 C 
ATOM     27  C   LIG    1       -6.286   0.160   1.127  0.00  0.00    +0.101 C 
ATOM     28  N   LIG    1       -7.754   0.119   1.131  0.00  0.00    -0.298 NA
ATOM     29  C   LIG    1       -8.263  -0.622   2.293  0.00  0.00    +0.101 C 
ATOM     30  C   LIG    1       -7.854   0.101   3.575  0.00  0.00    +0.125 C 
BRANCH  28  31
ATOM     31  C   LIG    1       -8.268  -0.450  -0.122  0.00  0.00    +0.112 C 
BRANCH  31  32
ATOM     32  C   LIG    1       -9.784  -0.251  -0.189  0.00  0.00    +0.171 C 
BRANCH  32  33
ATOM     33  O   LIG    1      -10.078   1.146  -0.260  0.00  0.00    -0.394 OA
ATOM     34  H   LIG    1      -11.022   1.348  -0.304  0.00  0.00    +0.209 HD
ENDBRANCH  32  33
ENDBRANCH  31  32
ENDBRANCH  28  31
ENDBRANCH  22  25
ENDBRANCH   3  22
BRANCH   6  35
ATOM     35  O   LIG    1       -3.809  -5.726   3.911  0.00  0.00    -0.492 OA
BRANCH  35  36
ATOM     36  C   LIG    1       -4.671  -6.748   4.417  0.00  0.00    +0.226 C 
ATOM     37  C   LIG    1       -4.088  -8.121   4.080  0.00  0.00    +0.048 C 
ENDBRANCH  35  36
ENDBRANCH   6  35
TORSDOF 10
