REMARK  Name = ZINC25758156
REMARK                            x       y       z     vdW  Elec       q    Type
REMARK                         _______ _______ _______ _____ _____    ______ ____
ROOT
ATOM      1  C   LIG    1       -0.004   1.385   0.240  0.00  0.00    +0.013 A 
ATOM      2  C   LIG    1        1.187   2.048   0.229  0.00  0.00    +0.044 A 
ATOM      3  C   LIG    1        2.375   1.344  -0.013  0.00  0.00    +0.122 A 
ATOM      4  N   LIG    1        2.374   0.046  -0.234  0.00  0.00    -0.232 NA
ATOM      5  C   LIG    1        1.236  -0.657  -0.236  0.00  0.00    +0.073 A 
ATOM      6  C   LIG    1        1.242  -2.042  -0.473  0.00  0.00    +0.030 A 
ATOM      7  C   LIG    1        0.069  -2.733  -0.469  0.00  0.00    +0.034 A 
ATOM      8  C   LIG    1       -1.144  -2.089  -0.234  0.00  0.00    +0.122 A 
ATOM      9  C   LIG    1       -1.188  -0.748  -0.001  0.00  0.00    +0.042 A 
ATOM     10  C   LIG    1        0.002  -0.004   0.003  0.00  0.00    +0.003 A 
ENDROOT
BRANCH   3  11
ATOM     11  N   LIG    1        3.579   2.032  -0.021  0.00  0.00    -0.319 N 
ATOM     12  C   LIG    1        4.862   1.311  -0.043  0.00  0.00    +0.087 C 
ATOM     13  C   LIG    1        5.725   1.891  -1.169  0.00  0.00    -0.063 C 
ATOM     14  N   LIG    1        5.849   3.343  -0.991  0.00  0.00    +0.381 N 
ATOM     15  H   LIG    1        6.478   3.714  -1.687  0.00  0.00    -0.086 HD
ATOM     16  H   LIG    1        6.216   3.538  -0.071  0.00  0.00    -0.086 HD
ATOM     17  C   LIG    1        4.533   3.979  -1.135  0.00  0.00    -0.063 C 
ATOM     18  C   LIG    1        3.611   3.503  -0.014  0.00  0.00    +0.087 C 
ENDBRANCH   3  11
BRANCH   8  19
ATOM     19  N   LIG    1       -2.400  -2.872  -0.237  0.00  0.00    +0.006 N 
ATOM     20  O   LIG    1       -3.456  -2.321  -0.033  0.00  0.00    -0.130 OA
BRANCH  19  21
ATOM     21  O   LIG    1       -2.369  -4.063  -0.443  0.00  0.00    -0.396 OA
ATOM     22  H   LIG    1       -1.551  -4.490  -0.601  0.00  0.00    +0.329 HD
ENDBRANCH  19  21
ENDBRANCH   8  19
TORSDOF 3
