REMARK  Name = ZINC27088632
REMARK                            x       y       z     vdW  Elec       q    Type
REMARK                         _______ _______ _______ _____ _____    ______ ____
ROOT
ATOM      1  N   LIG    1       -4.347  -4.837   2.836  0.00  0.00    -0.269 N 
ATOM      2  H   LIG    1       -4.889  -5.128   2.086  0.00  0.00    +0.156 HD
ATOM      3  C   LIG    1       -4.679  -5.203   4.090  0.00  0.00    +0.304 C 
ATOM      4  N   LIG    1       -5.813  -5.896   4.311  0.00  0.00    -0.299 N 
ATOM      5  H   LIG    1       -6.391  -6.132   3.568  0.00  0.00    +0.150 HD
ATOM      6  O   LIG    1       -3.955  -4.908   5.021  0.00  0.00    -0.253 OA
ENDROOT
BRANCH   1  11
ATOM      7  C   LIG    1       -0.982  -3.397   3.192  0.00  0.00    -0.033 A 
ATOM      8  C   LIG    1       -0.993  -2.453   2.180  0.00  0.00    +0.005 A 
ATOM      9  C   LIG    1       -2.114  -2.300   1.386  0.00  0.00    +0.002 A 
ATOM     10  C   LIG    1       -3.228  -3.088   1.601  0.00  0.00    +0.023 A 
ATOM     11  C   LIG    1       -3.220  -4.036   2.616  0.00  0.00    +0.035 A 
ATOM     12  C   LIG    1       -2.090  -4.192   3.408  0.00  0.00    +0.028 A 
BRANCH   7  16
ATOM     13  C   LIG    1        3.515  -3.447   1.996  0.00  0.00    +0.061 C 
ATOM     14  C   LIG    1        2.364  -3.034   2.876  0.00  0.00    +0.016 C 
ATOM     15  C   LIG    1        1.412  -3.930   3.189  0.00  0.00    +0.065 C 
ATOM     16  C   LIG    1        0.242  -3.561   4.055  0.00  0.00    +0.096 C 
ATOM     17  C   LIG    1        0.507  -2.276   4.787  0.00  0.00    +0.065 C 
ATOM     18  C   LIG    1        1.494  -1.445   4.410  0.00  0.00    +0.016 C 
ATOM     19  C   LIG    1        1.718  -0.162   5.168  0.00  0.00    +0.061 C 
ATOM     20  N   LIG    1        2.302  -1.752   3.351  0.00  0.00    -0.321 N 
ATOM     21  H   LIG    1        2.832  -1.056   2.932  0.00  0.00    +0.152 HD
BRANCH  15  22
ATOM     22  C   LIG    1        1.515  -5.250   2.691  0.00  0.00    +0.337 C 
ATOM     23  O   LIG    1        2.457  -5.563   1.988  0.00  0.00    -0.245 OA
BRANCH  22  24
ATOM     24  O   LIG    1        0.568  -6.162   2.996  0.00  0.00    -0.465 OA
ATOM     25  C   LIG    1        0.735  -7.475   2.459  0.00  0.00    +0.280 C 
ENDBRANCH  22  24
ENDBRANCH  15  22
BRANCH  17  26
ATOM     26  C   LIG    1       -0.300  -1.932   5.896  0.00  0.00    +0.337 C 
ATOM     27  O   LIG    1       -0.143  -2.498   6.962  0.00  0.00    -0.245 OA
BRANCH  26  28
ATOM     28  O   LIG    1       -1.246  -0.977   5.773  0.00  0.00    -0.465 OA
ATOM     29  C   LIG    1       -2.024  -0.681   6.934  0.00  0.00    +0.280 C 
ENDBRANCH  26  28
ENDBRANCH  17  26
ENDBRANCH   7  16
ENDBRANCH   1  11
BRANCH   4  30
ATOM     30  C   LIG    1       -6.174  -6.294   5.674  0.00  0.00    +0.104 C 
BRANCH  30  31
ATOM     31  C   LIG    1       -7.497  -7.063   5.647  0.00  0.00    +0.000 C 
BRANCH  31  32
ATOM     32  C   LIG    1       -7.873  -7.479   7.071  0.00  0.00    -0.077 C 
BRANCH  32  33
ATOM     33  N   LIG    1       -9.143  -8.217   7.045  0.00  0.00    +0.380 N 
ATOM     34  H   LIG    1       -9.848  -7.656   6.591  0.00  0.00    -0.082 HD
ATOM     35  C   LIG    1       -8.964  -9.469   6.301  0.00  0.00    -0.078 C 
ATOM     36  C   LIG    1      -10.303 -10.204   6.202  0.00  0.00    -0.011 C 
ATOM     37  C   LIG    1      -10.814 -10.515   7.611  0.00  0.00    +0.016 C 
ATOM     38  C   LIG    1      -10.926  -9.209   8.403  0.00  0.00    -0.011 C 
ATOM     39  C   LIG    1       -9.564  -8.511   8.421  0.00  0.00    -0.078 C 
BRANCH  37  40
ATOM     40  C   LIG    1      -12.169 -11.169   7.523  0.00  0.00    -0.041 A 
ATOM     41  C   LIG    1      -13.220 -10.501   6.922  0.00  0.00    +0.004 A 
ATOM     42  C   LIG    1      -14.465 -11.098   6.840  0.00  0.00    +0.004 A 
ATOM     43  C   LIG    1      -14.661 -12.363   7.359  0.00  0.00    +0.045 A 
ATOM     44  C   LIG    1      -13.608 -13.035   7.962  0.00  0.00    +0.120 A 
ATOM     45  C   LIG    1      -12.358 -12.436   8.038  0.00  0.00    +0.049 A 
BRANCH  44  46
ATOM     46  O   LIG    1      -13.798 -14.280   8.473  0.00  0.00    -0.495 OA
ATOM     47  C   LIG    1      -15.109 -14.836   8.354  0.00  0.00    +0.277 C 
ENDBRANCH  44  46
ENDBRANCH  37  40
ENDBRANCH  32  33
ENDBRANCH  31  32
ENDBRANCH  30  31
ENDBRANCH   4  30
TORSDOF 12
