REMARK  Name = ZINC00002009
REMARK                            x       y       z     vdW  Elec       q    Type
REMARK                         _______ _______ _______ _____ _____    ______ ____
ROOT
ATOM      1  C   LIG    1        0.203   1.424  -0.051  0.00  0.00    +0.105 C 
ATOM      2  N   LIG    1        0.101  -0.038  -0.036  0.00  0.00    -0.302 NA
ATOM      3  C   LIG    1       -0.010  -0.685  -1.180  0.00  0.00    +0.084 C 
ATOM      4  C   LIG    1       -0.109  -2.063  -1.208  0.00  0.00    +0.019 C 
ATOM      5  C   LIG    1       -0.090  -2.768  -0.015  0.00  0.00    +0.047 C 
ATOM      6  C   LIG    1        0.028  -2.054   1.172  0.00  0.00    +0.192 C 
ATOM      7  C   LIG    1        0.128  -0.671   1.120  0.00  0.00    +0.128 C 
ENDROOT
BRANCH   6   8
ATOM      8  O   LIG    1        0.051  -2.702   2.367  0.00  0.00    -0.446 OA
BRANCH   8   9
ATOM      9  C   LIG    1        1.141  -3.434   2.668  0.00  0.00    +0.403 C 
ATOM     10  N   LIG    1        1.158  -4.188   3.785  0.00  0.00    -0.274 N 
ATOM     11  C   LIG    1       -0.008  -4.211   4.672  0.00  0.00    +0.135 C 
ATOM     12  C   LIG    1        2.343  -4.984   4.113  0.00  0.00    +0.135 C 
ATOM     13  O   LIG    1        2.108  -3.415   1.933  0.00  0.00    -0.226 OA
ENDBRANCH   8   9
ENDBRANCH   6   8
TORSDOF 2
