REMARK  Name = ZINC13881360
REMARK                            x       y       z     vdW  Elec       q    Type
REMARK                         _______ _______ _______ _____ _____    ______ ____
ROOT
ATOM      1  C   LIG    1        4.960   2.037  -0.226  0.00  0.00    +0.131 A 
ATOM      2  C   LIG    1        6.015   2.927  -0.320  0.00  0.00    +0.095 A 
ATOM      3  C   LIG    1        5.780   4.293  -0.304  0.00  0.00    +0.170 A 
ATOM      4  C   LIG    1        4.474   4.780  -0.193  0.00  0.00    +0.167 A 
ATOM      5  O   LIG    1        4.518   6.146  -0.201  0.00  0.00    -0.453 OA
ATOM      6  C   LIG    1        5.813   6.485  -0.730  0.00  0.00    +0.466 C 
ATOM      7  C   LIG    1        3.414   3.903  -0.104  0.00  0.00    +0.061 A 
ATOM      8  O   LIG    1        6.633   5.355  -0.381  0.00  0.00    -0.452 OA
ATOM      9  C   LIG    1        3.646   2.521  -0.114  0.00  0.00    +0.022 A 
ENDROOT
BRANCH   9  10
ATOM     10  C   LIG    1        2.522   1.585  -0.014  0.00  0.00    +0.032 C 
ATOM     11  C   LIG    1        1.259   2.008  -0.281  0.00  0.00    +0.080 C 
ATOM     12  C   LIG    1       -0.024   1.304  -0.108  0.00  0.00    +0.258 C 
ATOM     13  N   LIG    1       -1.116   1.963  -0.460  0.00  0.00    -0.243 N 
ATOM     14  H   LIG    1       -1.980   1.533  -0.365  0.00  0.00    +0.159 HD
ATOM     15  C   LIG    1       -1.054   3.221  -0.942  0.00  0.00    +0.283 C 
ATOM     16  O   LIG    1       -1.968   3.940  -1.298  0.00  0.00    -0.262 OA
ATOM     17  O   LIG    1       -0.077   0.170   0.331  0.00  0.00    -0.269 OA
ATOM     18  S   LIG    1        0.697   3.572  -0.939  0.00  0.00    -0.026 S 
ENDBRANCH   9  10
BRANCH   1  19
ATOM     19  O   LIG    1        5.194   0.700  -0.242  0.00  0.00    -0.492 OA
BRANCH  19  21
ATOM     20  C   LIG    1        6.620  -1.248  -0.359  0.00  0.00    +0.048 C 
ATOM     21  C   LIG    1        6.555   0.280  -0.358  0.00  0.00    +0.226 C 
ENDBRANCH  19  21
ENDBRANCH   1  19
TORSDOF 3
