REMARK  Name = ZINC28651405
REMARK                            x       y       z     vdW  Elec       q    Type
REMARK                         _______ _______ _______ _____ _____    ______ ____
ROOT
ATOM      1  C   LIG    1       -0.208  -3.116  -2.870  0.00  0.00    +0.008 A 
ATOM      2  C   LIG    1       -1.251  -2.344  -3.366  0.00  0.00    +0.015 A 
ATOM      3  C   LIG    1       -1.220  -0.971  -3.224  0.00  0.00    +0.004 A 
ATOM      4  C   LIG    1       -0.151  -0.364  -2.589  0.00  0.00    -0.049 A 
ATOM      5  C   LIG    1        0.892  -1.129  -2.099  0.00  0.00    +0.004 A 
ATOM      6  C   LIG    1        0.864  -2.503  -2.232  0.00  0.00    +0.015 A 
ENDROOT
BRANCH   1   7
ATOM      7  S   LIG    1       -0.243  -4.869  -3.050  0.00  0.00    -0.125 S 
BRANCH   7   8
ATOM      8  C   LIG    1        1.296  -5.422  -2.265  0.00  0.00    +0.074 C 
BRANCH   8  10
ATOM      9  C   LIG    1        2.691  -7.413  -1.689  0.00  0.00    +0.004 C 
ATOM     10  C   LIG    1        1.393  -6.947  -2.351  0.00  0.00    +0.008 C 
ENDBRANCH   8  10
ENDBRANCH   7   8
ENDBRANCH   1   7
BRANCH   4  11
ATOM     11  C   LIG    1       -0.120   1.135  -2.436  0.00  0.00    +0.018 C 
BRANCH  11  12
ATOM     12  C   LIG    1       -0.795   1.527  -1.120  0.00  0.00    -0.074 C 
ATOM     13  C   LIG    1       -0.876   3.052  -1.022  0.00  0.00    -0.014 C 
BRANCH  12  14
ATOM     14  N   LIG    1       -0.012   1.005   0.008  0.00  0.00    +0.380 N 
ATOM     15  H   LIG    1        0.046  -0.091  -0.062  0.00  0.00    -0.090 HD
ATOM     16  H   LIG    1        1.003   1.428  -0.024  0.00  0.00    -0.090 HD
ATOM     17  H   LIG    1       -0.497   1.287   0.954  0.00  0.00    -0.090 HD
ENDBRANCH  12  14
ENDBRANCH  11  12
ENDBRANCH   4  11
TORSDOF 6
