REMARK  Name = ZINC20114379
REMARK                            x       y       z     vdW  Elec       q    Type
REMARK                         _______ _______ _______ _____ _____    ______ ____
ROOT
ATOM      1  C   LIG    1       -0.022   1.394   0.003  0.00  0.00    +0.034 A 
ATOM      2  C   LIG    1       -1.249   2.067   0.001  0.00  0.00    +0.025 A 
ATOM      3  C   LIG    1       -1.302   3.426   0.007  0.00  0.00    +0.030 A 
ATOM      4  C   LIG    1       -0.113   4.176   0.004  0.00  0.00    +0.073 A 
ATOM      5  C   LIG    1        1.133   3.501  -0.001  0.00  0.00    +0.005 A 
ATOM      6  C   LIG    1        2.323   4.256  -0.004  0.00  0.00    -0.038 A 
ATOM      7  C   LIG    1        3.669   3.578  -0.009  0.00  0.00    +0.044 C 
ATOM      8  C   LIG    1        2.226   5.615  -0.003  0.00  0.00    +0.047 A 
ATOM      9  C   LIG    1        0.963   6.225   0.002  0.00  0.00    +0.122 A 
ATOM     10  N   LIG    1       -0.145   5.514   0.005  0.00  0.00    -0.232 NA
ATOM     11  C   LIG    1        1.163   2.098  -0.001  0.00  0.00    +0.033 A 
ENDROOT
BRANCH   9  12
ATOM     12  N   LIG    1        0.879   7.610   0.003  0.00  0.00    -0.319 N 
ATOM     13  C   LIG    1        1.613   8.181   1.141  0.00  0.00    +0.088 C 
ATOM     14  C   LIG    1        1.563   9.709   1.062  0.00  0.00    -0.060 C 
ATOM     15  N   LIG    1        0.162  10.152   1.067  0.00  0.00    +0.380 N 
ATOM     16  H   LIG    1       -0.307   9.785   1.991  0.00  0.00    -0.082 HD
ATOM     17  C   LIG    1        0.074  11.618   1.068  0.00  0.00    -0.096 C 
ATOM     18  C   LIG    1       -0.571   9.581  -0.072  0.00  0.00    -0.060 C 
ATOM     19  C   LIG    1       -0.522   8.053   0.007  0.00  0.00    +0.088 C 
ENDBRANCH   9  12
BRANCH   1  21
ATOM     20  C   LIG    1       -0.938  -0.695   0.677  0.00  0.00    +0.241 C 
ATOM     21  N   LIG    1        0.002  -0.004   0.002  0.00  0.00    -0.282 N 
ATOM     22  H   LIG    1        0.789  -0.540  -0.549  0.00  0.00    +0.155 HD
ATOM     23  O   LIG    1       -1.856  -0.105   1.217  0.00  0.00    -0.270 OA
BRANCH  20  25
ATOM     24  C   LIG    1       -1.797  -2.844   1.435  0.00  0.00    +0.013 C 
ATOM     25  C   LIG    1       -0.856  -2.154   0.760  0.00  0.00    +0.068 C 
BRANCH  24  30
ATOM     26  C   LIG    1       -1.476  -8.575   1.761  0.00  0.00    +0.044 C 
ATOM     27  C   LIG    1       -1.560  -7.073   1.676  0.00  0.00    -0.050 A 
ATOM     28  C   LIG    1       -2.604  -6.406   2.292  0.00  0.00    +0.004 A 
ATOM     29  C   LIG    1       -2.688  -5.032   2.218  0.00  0.00    +0.008 A 
ATOM     30  C   LIG    1       -1.715  -4.312   1.519  0.00  0.00    -0.025 A 
ATOM     31  C   LIG    1       -0.665  -4.993   0.895  0.00  0.00    +0.008 A 
ATOM     32  C   LIG    1       -0.592  -6.368   0.981  0.00  0.00    +0.004 A 
ENDBRANCH  24  30
ENDBRANCH  20  25
ENDBRANCH   1  21
TORSDOF 4
