REMARK  Name = ZINC00013635
REMARK                            x       y       z     vdW  Elec       q    Type
REMARK                         _______ _______ _______ _____ _____    ______ ____
ROOT
ATOM      1  N   LIG    1       -0.751   1.613  -3.678  0.00  0.00    +0.382 N 
ATOM      2  H   LIG    1       -0.871   2.629  -3.582  0.00  0.00    -0.082 HD
ATOM      3  C   LIG    1        0.035   1.336  -4.899  0.00  0.00    -0.060 C 
ATOM      4  C   LIG    1       -0.701   1.927  -6.104  0.00  0.00    +0.089 C 
ATOM      5  N   LIG    1       -2.036   1.321  -6.205  0.00  0.00    -0.303 N 
ATOM      6  C   LIG    1       -2.818   1.571  -4.986  0.00  0.00    +0.089 C 
ATOM      7  C   LIG    1       -2.082   0.980  -3.781  0.00  0.00    -0.060 C 
ENDROOT
BRANCH   5   8
ATOM      8  C   LIG    1       -2.706   1.780  -7.327  0.00  0.00    +0.218 A 
ATOM      9  N   LIG    1       -2.110   2.656  -8.123  0.00  0.00    -0.220 NA
ATOM     10  C   LIG    1       -2.719   3.111  -9.205  0.00  0.00    +0.154 A 
ATOM     11  C   LIG    1       -4.002   2.668  -9.496  0.00  0.00    +0.160 A 
ATOM     12  F   LIG    1       -4.655   3.116 -10.591  0.00  0.00    -0.202 F 
ATOM     13  C   LIG    1       -4.597   1.754  -8.639  0.00  0.00    +0.154 A 
ATOM     14  N   LIG    1       -3.929   1.336  -7.576  0.00  0.00    -0.220 NA
ENDBRANCH   5   8
BRANCH   1  15
ATOM     15  C   LIG    1       -0.037   1.099  -2.490  0.00  0.00    -0.079 C 
BRANCH  15  16
ATOM     16  C   LIG    1       -0.753   1.593  -1.232  0.00  0.00    -0.016 C 
BRANCH  16  17
ATOM     17  C   LIG    1       -0.013   1.086   0.008  0.00  0.00    +0.034 C 
BRANCH  17  18
ATOM     18  C   LIG    1       -0.729   1.579   1.267  0.00  0.00    +0.144 C 
BRANCH  18  25
ATOM     19  C   LIG    1        1.041   1.584   3.036  0.00  0.00    +0.009 A 
ATOM     20  C   LIG    1        1.639   1.039   4.157  0.00  0.00    +0.039 A 
ATOM     21  C   LIG    1        1.129  -0.119   4.720  0.00  0.00    +0.123 A 
ATOM     22  F   LIG    1        1.716  -0.656   5.811  0.00  0.00    -0.205 F 
ATOM     23  C   LIG    1        0.015  -0.725   4.163  0.00  0.00    +0.039 A 
ATOM     24  C   LIG    1       -0.585  -0.175   3.046  0.00  0.00    +0.009 A 
ATOM     25  C   LIG    1       -0.074   0.981   2.485  0.00  0.00    -0.019 A 
ENDBRANCH  18  25
BRANCH  18  26
ATOM     26  O   LIG    1       -0.647   3.004   1.334  0.00  0.00    -0.387 OA
ATOM     27  H   LIG    1        0.258   3.345   1.368  0.00  0.00    +0.210 HD
ENDBRANCH  18  26
ENDBRANCH  17  18
ENDBRANCH  16  17
ENDBRANCH  15  16
ENDBRANCH   1  15
TORSDOF 7
