REMARK  Name = ZINC36159902
REMARK                            x       y       z     vdW  Elec       q    Type
REMARK                         _______ _______ _______ _____ _____    ______ ____
ROOT
ATOM      1  C   LIG    1       -1.261  -0.758  -0.037  0.00  0.00    +0.008 C 
ATOM      2  C   LIG    1       -1.244  -2.099  -0.098  0.00  0.00    +0.008 C 
ENDROOT
BRANCH   2   3
ATOM      3  C   LIG    1        0.042  -2.820  -0.115  0.00  0.00    -0.022 A 
ATOM      4  C   LIG    1        1.113  -2.363   0.658  0.00  0.00    +0.028 A 
ATOM      5  C   LIG    1        2.314  -3.043   0.638  0.00  0.00    +0.043 A 
ATOM      6 CL   LIG    1        3.645  -2.477   1.597  0.00  0.00    -0.083 Cl
ATOM      7  C   LIG    1        2.459  -4.175  -0.146  0.00  0.00    +0.040 A 
ATOM      8  C   LIG    1        1.402  -4.633  -0.915  0.00  0.00    +0.043 A 
ATOM      9 CL   LIG    1        1.595  -6.053  -1.894  0.00  0.00    -0.083 Cl
ATOM     10  C   LIG    1        0.194  -3.966  -0.899  0.00  0.00    +0.028 A 
ENDBRANCH   2   3
BRANCH   1  17
ATOM     11  C   LIG    1        0.971  -0.438  -1.091  0.00  0.00    +0.009 A 
ATOM     12  C   LIG    1        2.139   0.279  -1.236  0.00  0.00    +0.020 A 
ATOM     13  C   LIG    1        2.344   1.433  -0.499  0.00  0.00    +0.041 A 
ATOM     14 CL   LIG    1        3.818   2.330  -0.687  0.00  0.00    -0.084 Cl
ATOM     15  C   LIG    1        1.377   1.876   0.389  0.00  0.00    +0.020 A 
ATOM     16  C   LIG    1        0.203   1.169   0.543  0.00  0.00    +0.009 A 
ATOM     17  C   LIG    1       -0.009   0.003  -0.198  0.00  0.00    -0.025 A 
ENDBRANCH   1  17
TORSDOF 2
