REMARK  Name = ZINC18118278
REMARK                            x       y       z     vdW  Elec       q    Type
REMARK                         _______ _______ _______ _____ _____    ______ ____
ROOT
ATOM      1  C   LIG    1        0.050   1.106   0.634  0.00  0.00    +0.062 A 
ATOM      2  C   LIG    1        0.829   1.986  -0.161  0.00  0.00    +0.068 A 
ATOM      3  N   LIG    1        0.460   3.236  -0.349  0.00  0.00    -0.316 N 
ATOM      4  H   LIG    1       -0.356   3.567   0.058  0.00  0.00    +0.169 HD
ATOM      5  C   LIG    1        1.217   4.053  -1.109  0.00  0.00    +0.314 A 
ATOM      6  C   LIG    1        2.473   3.529  -1.731  0.00  0.00    +0.314 A 
ATOM      7  N   LIG    1        2.831   2.245  -1.524  0.00  0.00    -0.316 N 
ATOM      8  H   LIG    1        3.643   1.897  -1.924  0.00  0.00    +0.169 HD
ATOM      9  O   LIG    1        3.164   4.254  -2.416  0.00  0.00    -0.262 OA
ATOM     10  O   LIG    1        0.883   5.207  -1.286  0.00  0.00    -0.262 OA
ATOM     11  C   LIG    1        2.076   1.465  -0.779  0.00  0.00    +0.068 A 
ATOM     12  C   LIG    1        2.432   0.111  -0.546  0.00  0.00    +0.062 A 
ATOM     13  C   LIG    1        1.637  -0.665   0.224  0.00  0.00    +0.154 A 
ATOM     14  C   LIG    1        0.455  -0.172   0.810  0.00  0.00    +0.154 A 
ENDROOT
BRANCH  13  15
ATOM     15  N   LIG    1        2.021  -2.076   0.458  0.00  0.00    +0.008 N 
ATOM     16  O   LIG    1        3.183  -2.367   0.623  0.00  0.00    -0.130 OA
BRANCH  15  17
ATOM     17  O   LIG    1        1.172  -2.937   0.484  0.00  0.00    -0.396 OA
ATOM     18  H   LIG    1        0.272  -2.711   0.356  0.00  0.00    +0.329 HD
ENDBRANCH  15  17
ENDBRANCH  13  15
BRANCH  14  19
ATOM     19  N   LIG    1       -0.368  -1.079   1.642  0.00  0.00    +0.008 N 
ATOM     20  O   LIG    1       -1.574  -1.022   1.586  0.00  0.00    -0.130 OA
BRANCH  19  21
ATOM     21  O   LIG    1        0.167  -1.875   2.377  0.00  0.00    -0.396 OA
ATOM     22  H   LIG    1        1.102  -1.919   2.420  0.00  0.00    +0.329 HD
ENDBRANCH  19  21
ENDBRANCH  14  19
TORSDOF 4
