REMARK  Name = ZINC26850611
REMARK                            x       y       z     vdW  Elec       q    Type
REMARK                         _______ _______ _______ _____ _____    ______ ____
ROOT
ATOM      1  C   LIG    1       -1.163   4.473  -1.069  0.00  0.00    +0.032 C 
ATOM      2  C   LIG    1       -0.672   3.665   0.134  0.00  0.00    +0.132 C 
ATOM      3  C   LIG    1        0.839   3.569   0.127  0.00  0.00    +0.247 C 
ATOM      4  N   LIG    1        1.139   2.262   0.003  0.00  0.00    -0.216 N 
ATOM      5  C   LIG    1        2.501   1.718  -0.144  0.00  0.00    +0.131 C 
ATOM      6  C   LIG    1        2.476   0.236   0.243  0.00  0.00    +0.023 C 
ATOM      7  C   LIG    1        1.360  -0.468  -0.535  0.00  0.00    +0.037 C 
ATOM      8  C   LIG    1        0.002  -0.004   0.002  0.00  0.00    +0.205 C 
ATOM      9  N   LIG    1       -0.018   1.469   0.010  0.00  0.00    -0.203 N 
ATOM     10  O   LIG    1        1.625   4.489   0.215  0.00  0.00    -0.273 OA
ATOM     11  C   LIG    1       -1.131   2.227   0.031  0.00  0.00    +0.248 C 
ATOM     12  O   LIG    1       -2.277   1.833  -0.022  0.00  0.00    -0.273 OA
ENDROOT
BRANCH   8  13
ATOM     13  C   LIG    1       -1.098  -0.521  -0.888  0.00  0.00    +0.327 C 
ATOM     14  O   LIG    1       -1.827   0.255  -1.460  0.00  0.00    -0.249 OA
BRANCH  13  15
ATOM     15  O   LIG    1       -1.269  -1.843  -1.047  0.00  0.00    -0.479 OA
ATOM     16  H   LIG    1       -0.704  -2.444  -0.604  0.00  0.00    +0.295 HD
ENDBRANCH  13  15
ENDBRANCH   8  13
BRANCH   2  17
ATOM     17  C   LIG    1       -1.163   4.293   1.440  0.00  0.00    +0.091 C 
BRANCH  17  18
ATOM     18  S   LIG    1       -0.501   5.975   1.589  0.00  0.00    -0.177 S 
ATOM     19  H   LIG    1       -0.748   6.588   2.469  0.00  0.00    +0.102 HD
ENDBRANCH  17  18
ENDBRANCH   2  17
TORSDOF 4
