REMARK  Name = ZINC26479960
REMARK                            x       y       z     vdW  Elec       q    Type
REMARK                         _______ _______ _______ _____ _____    ______ ____
ROOT
ATOM      1  C   LIG    1       -1.673   5.760  -0.871  0.00  0.00    +0.023 A 
ATOM      2  C   LIG    1       -1.329   5.040   0.255  0.00  0.00    +0.047 A 
ATOM      3  C   LIG    1       -1.026   3.687   0.157  0.00  0.00    +0.128 A 
ATOM      4  C   LIG    1       -1.076   3.060  -1.078  0.00  0.00    +0.048 A 
ATOM      5  C   LIG    1       -0.762   1.597  -1.219  0.00  0.00    +0.222 C 
ATOM      6  C   LIG    1        0.049   1.351  -2.471  0.00  0.00    +0.271 C 
ATOM      7  N   LIG    1       -0.707   0.532  -3.232  0.00  0.00    -0.218 N 
ATOM      8  H   LIG    1       -0.338   0.197  -4.213  0.00  0.00    +0.161 HD
ATOM      9  C   LIG    1       -1.866   0.239  -2.628  0.00  0.00    +0.408 C 
ATOM     10  O   LIG    1       -2.717  -0.480  -3.112  0.00  0.00    -0.226 OA
ATOM     11  O   LIG    1        1.145   1.795  -2.735  0.00  0.00    -0.271 OA
ATOM     12  C   LIG    1       -0.013   1.086   0.008  0.00  0.00    +0.104 C 
ATOM     13  C   LIG    1       -0.742   1.586   1.262  0.00  0.00    +0.234 C 
ATOM     14  O   LIG    1       -1.981   0.831  -1.427  0.00  0.00    -0.429 OA
ATOM     15  C   LIG    1       -1.421   3.787  -2.205  0.00  0.00    +0.031 A 
ATOM     16  O   LIG    1       -0.679   3.013   1.284  0.00  0.00    -0.491 OA
ATOM     17  C   LIG    1       -1.718   5.133  -2.103  0.00  0.00    +0.042 A 
ATOM     18 CL   LIG    1       -2.149   6.036  -3.522  0.00  0.00    -0.084 Cl
ENDROOT
TORSDOF 0
