REMARK  Name = ZINC39124353
REMARK                            x       y       z     vdW  Elec       q    Type
REMARK                         _______ _______ _______ _____ _____    ______ ____
ROOT
ATOM      1  C   LIG    1        0.515   0.052   2.538  0.00  0.00    +0.018 A 
ATOM      2  C   LIG    1        0.303   1.430   2.618  0.00  0.00    +0.015 A 
ATOM      3  C   LIG    1        0.060   2.018   3.840  0.00  0.00    +0.046 A 
ATOM      4  C   LIG    1        0.026   1.242   4.992  0.00  0.00    +0.121 A 
ATOM      5  C   LIG    1        0.238  -0.129   4.917  0.00  0.00    +0.046 A 
ATOM      6  C   LIG    1        0.475  -0.726   3.698  0.00  0.00    +0.015 A 
ENDROOT
BRANCH   1  18
ATOM      7  C   LIG    1        2.503  -1.914   2.352  0.00  0.00    +0.154 C 
ATOM      8  N   LIG    1        1.750  -1.542   1.152  0.00  0.00    -0.295 N 
ATOM      9  C   LIG    1        2.017  -2.152  -0.026  0.00  0.00    +0.262 A 
ATOM     10  C   LIG    1        1.230  -1.739  -1.198  0.00  0.00    +0.068 A 
ATOM     11  C   LIG    1        1.431  -2.309  -2.454  0.00  0.00    +0.015 A 
ATOM     12  C   LIG    1        0.669  -1.891  -3.522  0.00  0.00    +0.004 A 
ATOM     13  C   LIG    1       -0.297  -0.906  -3.360  0.00  0.00    +0.048 A 
ATOM     14  C   LIG    1       -0.515  -0.327  -2.126  0.00  0.00    +0.146 A 
ATOM     15  C   LIG    1        0.249  -0.738  -1.023  0.00  0.00    +0.120 A 
ATOM     16  N   LIG    1        0.069  -0.198   0.198  0.00  0.00    -0.225 NA
ATOM     17  O   LIG    1        2.876  -3.010  -0.112  0.00  0.00    -0.267 OA
ATOM     18  C   LIG    1        0.776  -0.583   1.230  0.00  0.00    +0.144 A 
BRANCH  14  19
ATOM     19  O   LIG    1       -1.463   0.636  -1.980  0.00  0.00    -0.493 OA
ATOM     20  C   LIG    1       -2.201   1.002  -3.148  0.00  0.00    +0.277 C 
ENDBRANCH  14  19
ENDBRANCH   1  18
BRANCH   4  21
ATOM     21  O   LIG    1       -0.213   1.825   6.194  0.00  0.00    -0.489 OA
BRANCH  21  22
ATOM     22  C   LIG    1       -0.541   3.216   6.187  0.00  0.00    +0.170 C 
ATOM     23  C   LIG    1        0.746   4.046   6.201  0.00  0.00    +0.026 C 
ATOM     24  C   LIG    1        0.388   5.532   6.273  0.00  0.00    -0.075 C 
ATOM     25  N   LIG    1       -0.379   5.795   7.497  0.00  0.00    +0.382 N 
ATOM     26  H   LIG    1        0.157   5.498   8.298  0.00  0.00    -0.081 HD
ATOM     27  C   LIG    1       -1.648   5.058   7.457  0.00  0.00    -0.075 C 
ATOM     28  C   LIG    1       -1.368   3.554   7.431  0.00  0.00    +0.026 C 
BRANCH  25  29
ATOM     29  C   LIG    1       -0.653   7.234   7.601  0.00  0.00    -0.069 C 
ATOM     30  C   LIG    1        0.513   8.043   8.195  0.00  0.00    -0.015 C 
ATOM     31  C   LIG    1       -0.544   8.853   8.963  0.00  0.00    -0.003 C 
ATOM     32  C   LIG    1       -1.456   7.620   8.854  0.00  0.00    -0.015 C 
ENDBRANCH  25  29
ENDBRANCH  21  22
ENDBRANCH   4  21
TORSDOF 5
