REMARK  Name = ZINC28826085
REMARK                            x       y       z     vdW  Elec       q    Type
REMARK                         _______ _______ _______ _____ _____    ______ ____
ROOT
ATOM      1  C   LIG    1       -7.098  -4.784   0.999  0.00  0.00    +0.024 A 
ATOM      2  C   LIG    1       -7.049  -6.098   0.628  0.00  0.00    -0.015 A 
ATOM      3  C   LIG    1       -8.242  -6.777   0.418  0.00  0.00    -0.005 A 
ATOM      4  C   LIG    1       -9.420  -6.102   0.591  0.00  0.00    +0.054 A 
ATOM      5  S   LIG    1       -8.855  -4.477   1.067  0.00  0.00    -0.096 S 
ENDROOT
BRANCH   3   6
ATOM      6  C   LIG    1       -8.239  -8.204   0.014  0.00  0.00    +0.001 A 
ATOM      7  C   LIG    1       -8.736  -9.177   0.879  0.00  0.00    +0.010 A 
ATOM      8  C   LIG    1       -8.732 -10.504   0.499  0.00  0.00    +0.001 A 
ATOM      9  C   LIG    1       -8.235 -10.869  -0.740  0.00  0.00    +0.001 A 
ATOM     10  C   LIG    1       -7.741  -9.909  -1.603  0.00  0.00    +0.020 A 
ATOM     11  C   LIG    1       -7.745  -8.577  -1.235  0.00  0.00    +0.049 A 
ATOM     12 CL   LIG    1       -7.132  -7.372  -2.323  0.00  0.00    -0.083 Cl
ENDBRANCH   3   6
BRANCH   1  16
ATOM     13  C   LIG    1       -3.889  -2.116   1.800  0.00  0.00    +0.121 A 
ATOM     14  C   LIG    1       -3.883  -2.877   0.639  0.00  0.00    +0.046 A 
ATOM     15  C   LIG    1       -4.922  -3.744   0.375  0.00  0.00    +0.012 A 
ATOM     16  C   LIG    1       -5.981  -3.856   1.278  0.00  0.00    -0.011 A 
ATOM     17  C   LIG    1       -5.983  -3.089   2.444  0.00  0.00    +0.012 A 
ATOM     18  C   LIG    1       -4.938  -2.229   2.703  0.00  0.00    +0.046 A 
BRANCH  13  19
ATOM     19  O   LIG    1       -2.863  -1.262   2.056  0.00  0.00    -0.492 OA
BRANCH  19  20
ATOM     20  C   LIG    1       -1.817  -1.196   1.085  0.00  0.00    +0.229 C 
BRANCH  20  22
ATOM     21  C   LIG    1        0.361  -0.118   0.503  0.00  0.00    +0.007 C 
ATOM     22  C   LIG    1       -0.759  -0.189   1.543  0.00  0.00    +0.038 C 
ENDBRANCH  20  22
ENDBRANCH  19  20
ENDBRANCH  13  19
ENDBRANCH   1  16
BRANCH   2  23
ATOM     23  C   LIG    1       -5.726  -6.797   0.449  0.00  0.00    +0.154 C 
BRANCH  23  24
ATOM     24  C   LIG    1       -5.326  -7.454   1.746  0.00  0.00    +0.314 C 
ATOM     25  O   LIG    1       -6.002  -7.292   2.743  0.00  0.00    -0.254 OA
BRANCH  24  26
ATOM     26  N   LIG    1       -4.232  -8.211   1.798  0.00  0.00    -0.005 NA
ATOM     27  C   LIG    1       -3.308  -7.977   2.721  0.00  0.00    +0.377 C 
BRANCH  27  28
ATOM     28  N   LIG    1       -2.255  -8.830   2.862  0.00  0.00    -0.291 N 
ATOM     29  H   LIG    1       -1.579  -8.659   3.536  0.00  0.00    +0.254 HD
ATOM     30  H   LIG    1       -2.181  -9.608   2.287  0.00  0.00    +0.254 HD
ENDBRANCH  27  28
BRANCH  27  31
ATOM     31  N   LIG    1       -3.411  -6.884   3.527  0.00  0.00    -0.277 N 
ATOM     32  H   LIG    1       -4.177  -6.294   3.449  0.00  0.00    +0.258 HD
BRANCH  31  33
ATOM     33  C   LIG    1       -2.366  -6.600   4.514  0.00  0.00    +0.198 C 
BRANCH  33  34
ATOM     34  C   LIG    1       -2.723  -5.326   5.283  0.00  0.00    +0.065 C 
BRANCH  34  35
ATOM     35  C   LIG    1       -1.631  -5.030   6.313  0.00  0.00    +0.159 C 
BRANCH  35  36
ATOM     36  O   LIG    1       -1.964  -3.840   7.031  0.00  0.00    -0.395 OA
ATOM     37  H   LIG    1       -1.315  -3.591   7.703  0.00  0.00    +0.209 HD
ENDBRANCH  35  36
ENDBRANCH  34  35
ENDBRANCH  33  34
ENDBRANCH  31  33
ENDBRANCH  27  31
ENDBRANCH  24  26
ENDBRANCH  23  24
ENDBRANCH   2  23
TORSDOF 14
