REMARK  Name = ZINC29050809
REMARK                            x       y       z     vdW  Elec       q    Type
REMARK                         _______ _______ _______ _____ _____    ______ ____
ROOT
ATOM      1  C   LIG    1       -1.397  -0.434   0.013  0.00  0.00    +0.031 A 
ATOM      2  C   LIG    1       -2.146   0.680   0.026  0.00  0.00    +0.085 A 
ATOM      3  N   LIG    1       -1.336   1.785   0.030  0.00  0.00    -0.346 N 
ATOM      4  C   LIG    1       -0.017   1.401   0.010  0.00  0.00    +0.140 A 
ATOM      5  N   LIG    1        1.126   2.078   0.003  0.00  0.00    -0.237 NA
ATOM      6  C   LIG    1        2.294   1.470  -0.011  0.00  0.00    +0.115 A 
ATOM      7  C   LIG    1        2.395   0.091  -0.019  0.00  0.00    +0.043 A 
ATOM      8  C   LIG    1        1.234  -0.676  -0.013  0.00  0.00    +0.042 A 
ATOM      9  H   LIG    1       -1.779   2.792   0.047  0.00  0.00    +0.167 HD
ATOM     10  C   LIG    1        0.002  -0.004   0.002  0.00  0.00    +0.040 A 
ENDROOT
BRANCH   8  11
ATOM     11  N   LIG    1        1.293  -2.065  -0.021  0.00  0.00    -0.329 N 
ATOM     12  C   LIG    1       -0.050  -2.650   0.088  0.00  0.00    +0.103 C 
ATOM     13  C   LIG    1        0.063  -4.170   0.222  0.00  0.00    +0.003 C 
ATOM     14  C   LIG    1        0.787  -4.733  -1.004  0.00  0.00    -0.072 C 
ATOM     15  C   LIG    1        2.163  -4.073  -1.123  0.00  0.00    +0.003 C 
ATOM     16  C   LIG    1        1.989  -2.555  -1.218  0.00  0.00    +0.103 C 
BRANCH  14  17
ATOM     17  N   LIG    1        0.950  -6.185  -0.854  0.00  0.00    +0.380 N 
ATOM     18  H   LIG    1        1.542  -6.396   0.049  0.00  0.00    -0.090 HD
ATOM     19  H   LIG    1       -0.039  -6.658  -0.763  0.00  0.00    -0.090 HD
ATOM     20  H   LIG    1        1.470  -6.589  -1.736  0.00  0.00    -0.090 HD
ENDBRANCH  14  17
ENDBRANCH   8  11
TORSDOF 2
