REMARK  Name = ZINC27525791
REMARK                            x       y       z     vdW  Elec       q    Type
REMARK                         _______ _______ _______ _____ _____    ______ ____
ROOT
ATOM      1  C   LIG    1       -3.748   3.565  -1.624  0.00  0.00    +0.012 C 
ATOM      2  C   LIG    1       -3.620   2.077  -1.957  0.00  0.00    -0.026 C 
ATOM      3  C   LIG    1       -3.016   1.905  -3.369  0.00  0.00    +0.010 C 
ATOM      4  C   LIG    1       -2.904   0.413  -3.686  0.00  0.00    +0.032 C 
ATOM      5  C   LIG    1       -4.292  -0.227  -3.629  0.00  0.00    +0.115 C 
ATOM      6  C   LIG    1       -4.880  -0.046  -2.228  0.00  0.00    +0.035 C 
ATOM      7  C   LIG    1       -2.692   1.405  -0.943  0.00  0.00    -0.001 C 
ATOM      8  C   LIG    1       -1.289   1.992  -1.051  0.00  0.00    +0.005 C 
ATOM      9  C   LIG    1       -0.353   1.407   0.020  0.00  0.00    +0.008 C 
ATOM     10  C   LIG    1       -0.978   1.694   1.372  0.00  0.00    -0.022 C 
ATOM     11  C   LIG    1       -1.246   3.194   1.509  0.00  0.00    +0.012 C 
ATOM     12  C   LIG    1       -2.331   0.941   1.445  0.00  0.00    -0.001 C 
ATOM     13  C   LIG    1       -2.696   1.084   2.926  0.00  0.00    +0.005 C 
ATOM     14  C   LIG    1       -1.306   0.820   3.630  0.00  0.00    +0.009 C 
ATOM     15  C   LIG    1       -0.216   1.194   2.595  0.00  0.00    +0.025 C 
ATOM     16  C   LIG    1       -3.280   1.601   0.463  0.00  0.00    -0.004 C 
ATOM     17  C   LIG    1       -4.667   0.958   0.519  0.00  0.00    +0.004 C 
ATOM     18  C   LIG    1       -5.581   1.627  -0.510  0.00  0.00    +0.004 C 
ATOM     19  C   LIG    1       -4.993   1.447  -1.911  0.00  0.00    -0.002 C 
ENDROOT
BRANCH  15  20
ATOM     20  C   LIG    1        0.670   2.284   3.140  0.00  0.00    -0.022 C 
ATOM     21  C   LIG    1        0.440   3.026   4.221  0.00  0.00    +0.094 C 
ATOM     22  C   LIG    1        1.543   3.971   4.410  0.00  0.00    +0.332 C 
ATOM     23  O   LIG    1        2.459   3.808   3.437  0.00  0.00    -0.457 OA
ATOM     24  O   LIG    1        1.620   4.782   5.312  0.00  0.00    -0.246 OA
ATOM     25  C   LIG    1        1.992   2.738   2.568  0.00  0.00    +0.264 C 
ENDBRANCH  15  20
BRANCH   5  26
ATOM     26  O   LIG    1       -5.145   0.399  -4.588  0.00  0.00    -0.392 OA
ATOM     27  H   LIG    1       -6.190   0.070  -4.694  0.00  0.00    +0.210 HD
ENDBRANCH   5  26
TORSDOF 2
