REMARK  Name = ZINC60291636
REMARK                            x       y       z     vdW  Elec       q    Type
REMARK                         _______ _______ _______ _____ _____    ______ ____
ROOT
ATOM      1  CA  LEU A  5       -5.053  -2.445  -3.935  0.00  0.00    +0.159 C 
ATOM      2  C   LEU A  5       -5.293  -3.491  -4.997  0.00  0.00    +0.234 C 
ATOM      3  N   TRP A  1       -5.238  -4.803  -4.643  0.00  0.00    -0.302 N 
ATOM      4  H   TRP A  1       -5.145  -5.077  -3.714  0.00  0.00    +0.150 HD
ATOM      5  CA  TRP A  1       -5.332  -5.793  -5.739  0.00  0.00    +0.163 C 
ATOM      6  C   TRP A  1       -3.972  -6.435  -5.877  0.00  0.00    +0.234 C 
ATOM      7  N   ASP A  2       -3.320  -6.379  -7.075  0.00  0.00    -0.302 N 
ATOM      8  H   ASP A  2       -3.723  -6.006  -7.878  0.00  0.00    +0.150 HD
ATOM      9  CA  ASP A  2       -1.939  -6.935  -7.059  0.00  0.00    +0.170 C 
ATOM     10  C   ASP A  2       -1.017  -5.813  -6.645  0.00  0.00    +0.237 C 
ATOM     11  N   PRO A  3        0.158  -6.040  -6.042  0.00  0.00    -0.288 N 
ATOM     12  CD  PRO A  3        0.921  -7.296  -6.053  0.00  0.00    +0.109 C 
ATOM     13  CG  PRO A  3        2.404  -6.925  -5.938  0.00  0.00    +0.021 C 
ATOM     14  CB  PRO A  3        2.427  -5.415  -5.675  0.00  0.00    +0.033 C 
ATOM     15  CA  PRO A  3        0.975  -5.082  -5.284  0.00  0.00    +0.162 C 
ATOM     16  C   PRO A  3        0.648  -3.673  -5.641  0.00  0.00    +0.234 C 
ATOM     17  N   VAL A  4       -0.509  -3.023  -5.405  0.00  0.00    -0.302 N 
ATOM     18  H   VAL A  4       -0.848  -2.423  -6.137  0.00  0.00    +0.150 HD
ATOM     19  CA  VAL A  4       -1.302  -3.111  -4.174  0.00  0.00    +0.161 C 
ATOM     20  C   VAL A  4       -2.717  -2.682  -4.512  0.00  0.00    +0.234 C 
ATOM     21  O   VAL A  4       -2.996  -2.465  -5.670  0.00  0.00    -0.274 OA
ATOM     22  O   PRO A  3        1.531  -3.022  -6.217  0.00  0.00    -0.274 OA
ATOM     23  O   ASP A  2       -1.366  -4.673  -6.900  0.00  0.00    -0.274 OA
ATOM     24  O   TRP A  1       -3.470  -6.998  -4.926  0.00  0.00    -0.274 OA
ATOM     25  O   LEU A  5       -5.532  -3.162  -6.138  0.00  0.00    -0.274 OA
ATOM     26  N   LEU A  5       -3.635  -2.550  -3.521  0.00  0.00    -0.302 N 
ATOM     27  H   LEU A  5       -3.377  -2.521  -2.581  0.00  0.00    +0.150 HD
ENDROOT
BRANCH  19  28
ATOM     28  CB  VAL A  4       -1.376  -4.509  -3.569  0.00  0.00    +0.012 C 
ATOM     29  CG2 VAL A  4       -2.724  -4.691  -2.868  0.00  0.00    +0.009 C 
ATOM     30  CG1 VAL A  4       -0.245  -4.686  -2.554  0.00  0.00    +0.009 C 
ENDBRANCH  19  28
BRANCH   1  31
ATOM     31  CB  LEU A  5       -5.358  -1.051  -4.479  0.00  0.00    +0.034 C 
BRANCH  31  33
ATOM     32  CD1 LEU A  5       -5.402   1.385  -3.924  0.00  0.00    +0.007 C 
ATOM     33  CG  LEU A  5       -5.220  -0.023  -3.354  0.00  0.00    -0.015 C 
ATOM     34  CD2 LEU A  5       -6.289  -0.285  -2.291  0.00  0.00    +0.007 C 
ENDBRANCH  31  33
ENDBRANCH   1  31
BRANCH   5  35
ATOM     35  CB  TRP A  1       -6.372  -6.860  -5.390  0.00  0.00    +0.069 C 
BRANCH  35  36
ATOM     36  CG  TRP A  1       -7.737  -6.225  -5.315  0.00  0.00    -0.020 A 
ATOM     37  CD1 TRP A  1       -8.346  -5.770  -4.208  0.00  0.00    +0.087 A 
ATOM     38  NE1 TRP A  1       -9.575  -5.261  -4.528  0.00  0.00    -0.360 N 
ATOM     39  CE2 TRP A  1       -9.792  -5.378  -5.883  0.00  0.00    +0.047 A 
ATOM     40  CZ2 TRP A  1      -10.849  -5.030  -6.717  0.00  0.00    +0.026 A 
ATOM     41  CH2 TRP A  1      -10.760  -5.270  -8.071  0.00  0.00    +0.002 A 
ATOM     42  CZ3 TRP A  1       -9.631  -5.869  -8.611  0.00  0.00    +0.001 A 
ATOM     43  CE3 TRP A  1       -8.582  -6.224  -7.809  0.00  0.00    +0.010 A 
ATOM     44  HE1 TRP A  1      -10.200  -4.874  -3.895  0.00  0.00    +0.165 HD
ATOM     45  CD2 TRP A  1       -8.648  -5.982  -6.436  0.00  0.00    +0.003 A 
ENDBRANCH  35  36
ENDBRANCH   5  35
BRANCH   9  46
ATOM     46  CB  ASP A  2       -1.575  -7.415  -8.466  0.00  0.00    +0.152 C 
BRANCH  46  47
ATOM     47  CG  ASP A  2       -2.468  -8.566  -8.850  0.00  0.00    +0.307 C 
ATOM     48  OD1 ASP A  2       -3.317  -8.966  -8.072  0.00  0.00    -0.251 OA
BRANCH  47  49
ATOM     49  OD2 ASP A  2       -2.342  -9.098  -9.940  0.00  0.00    -0.481 OA
ATOM     50  HD2 ASP A  2       -1.690  -8.791 -10.539  0.00  0.00    +0.295 HD
ENDBRANCH  47  49
ENDBRANCH  46  47
ENDBRANCH   9  46
TORSDOF 8
