REMARK  Name = ZINC21524888
REMARK                            x       y       z     vdW  Elec       q    Type
REMARK                         _______ _______ _______ _____ _____    ______ ____
ROOT
ATOM      1  C   LIG    1        2.338  -3.526  -0.461  0.00  0.00    +0.154 C 
ATOM      2  N   LIG    1        2.961  -3.369  -1.778  0.00  0.00    -0.294 N 
ATOM      3  C   LIG    1        3.698  -2.222  -2.105  0.00  0.00    +0.082 A 
ATOM      4  C   LIG    1        4.304  -2.122  -3.457  0.00  0.00    +0.089 A 
ATOM      5  C   LIG    1        4.116  -3.221  -4.409  0.00  0.00    +0.266 A 
ATOM      6  N   LIG    1        3.379  -4.267  -3.953  0.00  0.00    -0.263 N 
ATOM      7  C   LIG    1        3.155  -5.399  -4.856  0.00  0.00    +0.157 C 
ATOM      8  O   LIG    1        4.586  -3.198  -5.530  0.00  0.00    -0.267 OA
ATOM      9  C   LIG    1        4.960  -0.917  -3.503  0.00  0.00    +0.069 A 
ATOM     10  N   LIG    1        4.795  -0.314  -2.295  0.00  0.00    -0.306 N 
ATOM     11  C   LIG    1        5.306   0.917  -1.856  0.00  0.00    +0.068 A 
ATOM     12  C   LIG    1        5.874   1.819  -2.735  0.00  0.00    +0.028 A 
ATOM     13  C   LIG    1        6.338   3.035  -2.264  0.00  0.00    +0.002 A 
ATOM     14  C   LIG    1        6.234   3.346  -0.921  0.00  0.00    +0.002 A 
ATOM     15  C   LIG    1        5.674   2.444  -0.035  0.00  0.00    +0.025 A 
ATOM     16  C   LIG    1        5.213   1.220  -0.494  0.00  0.00    +0.052 A 
ATOM     17  N   LIG    1        4.660   0.291   0.394  0.00  0.00    -0.330 N 
ATOM     18  H   LIG    1        4.995   0.271   1.442  0.00  0.00    +0.147 HD
ATOM     19  C   LIG    1        3.637  -0.658  -0.069  0.00  0.00    +0.153 C 
ATOM     20  C   LIG    1        4.013  -1.105  -1.465  0.00  0.00    +0.073 A 
ATOM     21  C   LIG    1        2.848  -4.324  -2.728  0.00  0.00    +0.332 A 
ATOM     22  O   LIG    1        2.210  -5.319  -2.444  0.00  0.00    -0.246 OA
ENDROOT
BRANCH  19  23
ATOM     23  C   LIG    1        2.290   0.018  -0.097  0.00  0.00    +0.017 A 
ATOM     24  C   LIG    1        1.742   0.419  -1.301  0.00  0.00    +0.009 A 
ATOM     25  C   LIG    1        0.507   1.039  -1.328  0.00  0.00    +0.003 A 
ATOM     26  C   LIG    1       -0.183   1.259  -0.150  0.00  0.00    +0.041 A 
ATOM     27  C   LIG    1        0.363   0.859   1.057  0.00  0.00    +0.159 A 
ATOM     28  F   LIG    1       -0.311   1.073   2.208  0.00  0.00    -0.202 F 
ATOM     29  C   LIG    1        1.602   0.237   1.084  0.00  0.00    +0.164 A 
ATOM     30  F   LIG    1        2.136  -0.155   2.261  0.00  0.00    -0.202 F 
ENDBRANCH  19  23
BRANCH   9  31
ATOM     31  C   LIG    1        5.709  -0.375  -4.653  0.00  0.00    -0.000 A 
ATOM     32  C   LIG    1        5.073  -0.197  -5.884  0.00  0.00    +0.010 A 
ATOM     33  C   LIG    1        5.777   0.314  -6.954  0.00  0.00    +0.001 A 
ATOM     34  C   LIG    1        7.115   0.641  -6.813  0.00  0.00    +0.000 A 
ATOM     35  C   LIG    1        7.753   0.463  -5.598  0.00  0.00    +0.001 A 
ATOM     36  C   LIG    1        7.059  -0.043  -4.518  0.00  0.00    +0.010 A 
ENDBRANCH   9  31
TORSDOF 2
