REMARK  Name = ZINC17196692
REMARK                            x       y       z     vdW  Elec       q    Type
REMARK                         _______ _______ _______ _____ _____    ______ ____
ROOT
ATOM      1  C   LIG    1       -0.295   0.258   0.731  0.00  0.00    +0.136 A 
ATOM      2  C   LIG    1        0.934  -0.335   0.519  0.00  0.00    +0.050 A 
ATOM      3  C   LIG    1        1.832   0.684   0.214  0.00  0.00    +0.050 A 
ATOM      4  C   LIG    1        1.116   1.875   0.250  0.00  0.00    +0.129 A 
ATOM      5  O   LIG    1       -0.165   1.585   0.565  0.00  0.00    -0.455 OA
ENDROOT
BRANCH   4   6
ATOM      6  C   LIG    1        1.633   3.153   0.003  0.00  0.00    +0.064 C 
ATOM      7  C   LIG    1        0.865   4.096  -0.676  0.00  0.00    +0.099 C 
ATOM      8  C   LIG    1       -0.407   3.729  -1.322  0.00  0.00    +0.216 C 
ATOM      9  N   LIG    1       -1.101   4.695  -1.957  0.00  0.00    -0.158 NA
ATOM     10  C   LIG    1       -0.652   5.957  -2.017  0.00  0.00    +0.164 C 
ATOM     11  N   LIG    1        0.498   6.359  -1.458  0.00  0.00    -0.262 N 
ATOM     12  H   LIG    1        0.813   7.409  -1.542  0.00  0.00    +0.157 HD
ATOM     13  S   LIG    1       -1.596   7.115  -2.852  0.00  0.00    -0.016 S 
ATOM     14  C   LIG    1        1.292   5.501  -0.785  0.00  0.00    +0.255 C 
ATOM     15  O   LIG    1        2.334   5.878  -0.281  0.00  0.00    -0.270 OA
BRANCH   8  16
ATOM     16  O   LIG    1       -0.822   2.586  -1.279  0.00  0.00    -0.494 OA
ATOM     17  H   LIG    1       -0.330   1.924  -0.834  0.00  0.00    +0.294 HD
ENDBRANCH   8  16
ENDBRANCH   4   6
BRANCH   1  24
ATOM     18  C   LIG    1       -1.546  -1.839   1.218  0.00  0.00    +0.013 A 
ATOM     19  C   LIG    1       -2.714  -2.493   1.549  0.00  0.00    +0.021 A 
ATOM     20  C   LIG    1       -3.884  -1.775   1.735  0.00  0.00    +0.041 A 
ATOM     21 CL   LIG    1       -5.351  -2.606   2.146  0.00  0.00    -0.084 Cl
ATOM     22  C   LIG    1       -3.888  -0.396   1.595  0.00  0.00    +0.021 A 
ATOM     23  C   LIG    1       -2.725   0.270   1.269  0.00  0.00    +0.013 A 
ATOM     24  C   LIG    1       -1.542  -0.448   1.080  0.00  0.00    +0.017 A 
ENDBRANCH   1  24
TORSDOF 3
