REMARK  Name = ZINC17653605
REMARK                            x       y       z     vdW  Elec       q    Type
REMARK                         _______ _______ _______ _____ _____    ______ ____
ROOT
ATOM      1  C   LIG    1        3.815 -10.219   6.087  0.00  0.00    +0.180 C 
ENDROOT
BRANCH   1   2
ATOM      2  C   LIG    1        4.622 -10.645   7.315  0.00  0.00    +0.090 C 
BRANCH   2   3
ATOM      3  C   LIG    1        4.731 -12.170   7.351  0.00  0.00    +0.194 C 
ATOM      4  C   LIG    1        5.441 -12.703   8.602  0.00  0.00    +0.138 C 
ATOM      5  C   LIG    1        6.006 -13.609   7.533  0.00  0.00    +0.314 C 
ATOM      6  O   LIG    1        6.453 -14.732   7.538  0.00  0.00    -0.250 OA
ATOM      7  O   LIG    1        5.818 -12.683   6.569  0.00  0.00    -0.460 OA
BRANCH   4   8
ATOM      8  C   LIG    1        4.529 -13.391   9.619  0.00  0.00    +0.018 C 
BRANCH   8   9
ATOM      9  C   LIG    1        5.339 -13.760  10.863  0.00  0.00    +0.001 C 
BRANCH   9  10
ATOM     10  C   LIG    1        4.427 -14.448  11.880  0.00  0.00    +0.000 C 
BRANCH  10  11
ATOM     11  C   LIG    1        5.237 -14.817  13.125  0.00  0.00    -0.000 C 
BRANCH  11  12
ATOM     12  C   LIG    1        4.325 -15.506  14.142  0.00  0.00    -0.003 C 
ATOM     13  C   LIG    1        5.135 -15.874  15.386  0.00  0.00    +0.004 C 
ENDBRANCH  11  12
ENDBRANCH  10  11
ENDBRANCH   9  10
ENDBRANCH   8   9
ENDBRANCH   4   8
ENDBRANCH   2   3
ENDBRANCH   1   2
BRANCH   1  14
ATOM     14  O   LIG    1        2.472 -10.691   6.213  0.00  0.00    -0.460 OA
BRANCH  14  15
ATOM     15  C   LIG    1        2.204 -11.908   5.714  0.00  0.00    +0.328 C 
ATOM     16  O   LIG    1        3.081 -12.552   5.188  0.00  0.00    -0.249 OA
BRANCH  15  17
ATOM     17  C   LIG    1        0.810 -12.472   5.810  0.00  0.00    +0.182 C 
BRANCH  17  18
ATOM     18  N   LIG    1        0.860 -13.928   5.653  0.00  0.00    -0.305 N 
ATOM     19  H   LIG    1        0.539 -14.504   6.365  0.00  0.00    +0.149 HD
ATOM     20  C   LIG    1        1.352 -14.467   4.521  0.00  0.00    +0.326 C 
ATOM     21  O   LIG    1        1.754 -13.748   3.631  0.00  0.00    -0.280 OA
ENDBRANCH  17  18
BRANCH  17  22
ATOM     22  C   LIG    1       -0.061 -11.870   4.705  0.00  0.00    +0.036 C 
BRANCH  22  23
ATOM     23  C   LIG    1       -1.498 -12.371   4.859  0.00  0.00    -0.015 C 
ATOM     24  C   LIG    1       -2.336 -11.887   3.674  0.00  0.00    +0.007 C 
ATOM     25  C   LIG    1       -2.092 -11.826   6.160  0.00  0.00    +0.007 C 
ENDBRANCH  22  23
ENDBRANCH  17  22
ENDBRANCH  15  17
ENDBRANCH  14  15
ENDBRANCH   1  14
BRANCH   1  26
ATOM     26  C   LIG    1        3.811  -8.693   5.983  0.00  0.00    +0.045 C 
BRANCH  26  27
ATOM     27  C   LIG    1        3.111  -8.272   4.689  0.00  0.00    +0.004 C 
BRANCH  27  28
ATOM     28  C   LIG    1        3.108  -6.745   4.584  0.00  0.00    +0.000 C 
BRANCH  28  29
ATOM     29  C   LIG    1        2.408  -6.324   3.291  0.00  0.00    +0.000 C 
BRANCH  29  30
ATOM     30  C   LIG    1        2.405  -4.798   3.186  0.00  0.00    +0.000 C 
BRANCH  30  31
ATOM     31  C   LIG    1        1.705  -4.377   1.892  0.00  0.00    -0.000 C 
BRANCH  31  32
ATOM     32  C   LIG    1        1.702  -2.850   1.788  0.00  0.00    -0.000 C 
BRANCH  32  33
ATOM     33  C   LIG    1        1.002  -2.429   0.494  0.00  0.00    -0.000 C 
BRANCH  33  34
ATOM     34  C   LIG    1        0.999  -0.903   0.390  0.00  0.00    -0.000 C 
BRANCH  34  36
ATOM     35  C   LIG    1        0.295   1.045  -1.009  0.00  0.00    +0.004 C 
ATOM     36  C   LIG    1        0.299  -0.482  -0.904  0.00  0.00    -0.003 C 
ENDBRANCH  34  36
ENDBRANCH  33  34
ENDBRANCH  32  33
ENDBRANCH  31  32
ENDBRANCH  30  31
ENDBRANCH  29  30
ENDBRANCH  28  29
ENDBRANCH  27  28
ENDBRANCH  26  27
ENDBRANCH   1  26
TORSDOF 23
