REMARK  Name = ZINC28332410
REMARK                            x       y       z     vdW  Elec       q    Type
REMARK                         _______ _______ _______ _____ _____    ______ ____
ROOT
ATOM      1  C   LIG    1       -2.494  -0.007   0.037  0.00  0.00    +0.080 A 
ATOM      2  C   LIG    1       -3.682  -0.733  -0.055  0.00  0.00    +0.034 A 
ATOM      3  C   LIG    1       -4.889  -0.064  -0.035  0.00  0.00    -0.022 A 
ATOM      4  C   LIG    1       -4.876   1.333   0.080  0.00  0.00    +0.095 A 
ATOM      5  C   LIG    1       -3.640   1.999   0.169  0.00  0.00    +0.135 A 
ATOM      6  N   LIG    1       -2.508   1.317   0.150  0.00  0.00    -0.231 NA
ENDROOT
BRANCH   3   7
ATOM      7  C   LIG    1       -6.190  -0.818  -0.133  0.00  0.00    +0.017 C 
ATOM      8  C   LIG    1       -6.302  -1.800   1.036  0.00  0.00    -0.011 C 
ATOM      9  C   LIG    1       -7.596  -2.606   0.896  0.00  0.00    -0.082 C 
ATOM     10  N   LIG    1       -7.587  -3.333  -0.380  0.00  0.00    +0.379 N 
ATOM     11  H   LIG    1       -8.503  -3.936  -0.464  0.00  0.00    -0.086 HD
ATOM     12  H   LIG    1       -6.709  -3.994  -0.419  0.00  0.00    -0.086 HD
ATOM     13  C   LIG    1       -7.528  -2.407  -1.518  0.00  0.00    -0.082 C 
ATOM     14  C   LIG    1       -6.232  -1.596  -1.451  0.00  0.00    -0.011 C 
ENDBRANCH   3   7
BRANCH   1  18
ATOM     15  C   LIG    1        1.230  -2.068  -0.029  0.00  0.00    +0.007 A 
ATOM     16  C   LIG    1        1.041  -0.963  -0.839  0.00  0.00    +0.046 A 
ATOM     17  C   LIG    1       -0.166  -0.283  -0.821  0.00  0.00    +0.130 A 
ATOM     18  C   LIG    1       -1.199  -0.722   0.015  0.00  0.00    +0.083 A 
ATOM     19  C   LIG    1       -0.997  -1.838   0.835  0.00  0.00    +0.133 A 
ATOM     20  C   LIG    1        0.217  -2.505   0.804  0.00  0.00    +0.046 A 
BRANCH  17  21
ATOM     21  O   LIG    1       -0.348   0.802  -1.617  0.00  0.00    -0.506 OA
ATOM     22  H   LIG    1       -1.308   1.340  -1.601  0.00  0.00    +0.292 HD
ENDBRANCH  17  21
BRANCH  19  23
ATOM     23  O   LIG    1       -1.991  -2.270   1.654  0.00  0.00    -0.491 OA
BRANCH  23  24
ATOM     24  C   LIG    1       -1.716  -3.419   2.458  0.00  0.00    +0.232 C 
BRANCH  24  25
ATOM     25  C   LIG    1       -2.943  -3.753   3.308  0.00  0.00    +0.027 C 
ATOM     26  C   LIG    1       -2.798  -3.655   4.827  0.00  0.00    +0.007 C 
ATOM     27  C   LIG    1       -2.891  -5.026   4.155  0.00  0.00    +0.007 C 
ENDBRANCH  24  25
ENDBRANCH  23  24
ENDBRANCH  19  23
ENDBRANCH   1  18
BRANCH   5  28
ATOM     28  N   LIG    1       -3.610   3.378   0.282  0.00  0.00    -0.342 N 
ATOM     29  H   LIG    1       -4.549   3.949   0.302  0.00  0.00    +0.144 HD
ATOM     30  H   LIG    1       -2.645   3.903   0.352  0.00  0.00    +0.144 HD
ENDBRANCH   5  28
BRANCH   4  31
ATOM     31  C   LIG    1       -6.103   2.071   0.105  0.00  0.00    +0.103 C 
ATOM     32  N   LIG    1       -7.076   2.657   0.125  0.00  0.00    -0.191 NA
ENDBRANCH   4  31
TORSDOF 8
