REMARK  Name = ZINC13986077
REMARK                            x       y       z     vdW  Elec       q    Type
REMARK                         _______ _______ _______ _____ _____    ______ ____
ROOT
ATOM      1  C   LIG    1        1.187   1.770  -0.213  0.00  0.00    +0.125 A 
ATOM      2  C   LIG    1        0.023   1.044  -0.417  0.00  0.00    +0.047 A 
ATOM      3  C   LIG    1       -1.174   1.702  -0.624  0.00  0.00    +0.023 A 
ATOM      4  C   LIG    1       -1.213   3.086  -0.617  0.00  0.00    +0.041 A 
ATOM      5 CL   LIG    1       -2.720   3.911  -0.870  0.00  0.00    -0.084 Cl
ATOM      6  C   LIG    1       -0.053   3.812  -0.413  0.00  0.00    +0.027 A 
ATOM      7  C   LIG    1        1.146   3.157  -0.211  0.00  0.00    -0.001 A 
ENDROOT
BRANCH   7   8
ATOM      8  C   LIG    1        2.409   3.948   0.012  0.00  0.00    +0.023 C 
ATOM      9  C   LIG    1        2.251   4.822   1.258  0.00  0.00    +0.008 C 
ATOM     10  C   LIG    1        3.533   5.625   1.484  0.00  0.00    +0.001 C 
ATOM     11  C   LIG    1        3.799   6.515   0.268  0.00  0.00    +0.000 C 
ATOM     12  C   LIG    1        3.957   5.641  -0.978  0.00  0.00    +0.001 C 
ATOM     13  C   LIG    1        2.675   4.838  -1.204  0.00  0.00    +0.008 C 
ENDBRANCH   7   8
BRANCH   1  14
ATOM     14  O   LIG    1        2.366   1.124  -0.014  0.00  0.00    -0.478 OA
BRANCH  14  16
ATOM     15  C   LIG    1        2.349  -0.916  -1.309  0.00  0.00    +0.064 C 
ATOM     16  C   LIG    1        2.316  -0.300   0.091  0.00  0.00    +0.278 C 
BRANCH  16  17
ATOM     17  C   LIG    1        3.502  -0.788   0.883  0.00  0.00    +0.346 C 
ATOM     18  O   LIG    1        4.307   0.003   1.313  0.00  0.00    -0.247 OA
BRANCH  17  19
ATOM     19  O   LIG    1        3.663  -2.101   1.110  0.00  0.00    -0.478 OA
ATOM     20  H   LIG    1        3.038  -2.714   0.776  0.00  0.00    +0.295 HD
ENDBRANCH  17  19
ENDBRANCH  16  17
ENDBRANCH  14  16
ENDBRANCH   1  14
TORSDOF 5
