REMARK  Name = ZINC31502170
REMARK                            x       y       z     vdW  Elec       q    Type
REMARK                         _______ _______ _______ _____ _____    ______ ____
ROOT
ATOM      1  N   LIG    1       -6.617   6.027   3.692  0.00  0.00    -0.318 N 
ATOM      2  C   LIG    1       -6.756   4.670   4.239  0.00  0.00    +0.088 C 
ATOM      3  C   LIG    1       -5.382   3.998   4.285  0.00  0.00    -0.060 C 
ATOM      4  N   LIG    1       -4.812   3.961   2.931  0.00  0.00    +0.382 N 
ATOM      5  H   LIG    1       -5.506   3.404   2.285  0.00  0.00    -0.082 HD
ATOM      6  C   LIG    1       -4.673   5.318   2.384  0.00  0.00    -0.060 C 
ATOM      7  C   LIG    1       -6.047   5.990   2.338  0.00  0.00    +0.088 C 
ENDROOT
BRANCH   1  11
ATOM      8  C   LIG    1      -10.263   7.971   3.741  0.00  0.00    +0.066 A 
ATOM      9  C   LIG    1      -10.097   6.692   4.192  0.00  0.00    +0.116 A 
ATOM     10  N   LIG    1       -8.919   6.089   4.161  0.00  0.00    -0.239 NA
ATOM     11  C   LIG    1       -7.835   6.693   3.702  0.00  0.00    +0.132 A 
ATOM     12  C   LIG    1       -7.920   8.005   3.221  0.00  0.00    +0.060 A 
ATOM     13  C   LIG    1       -6.975   8.968   2.649  0.00  0.00    +0.053 A 
ATOM     14  C   LIG    1       -7.685  10.073   2.382  0.00  0.00    +0.196 A 
ATOM     15  O   LIG    1       -8.973   9.892   2.730  0.00  0.00    -0.463 OA
ATOM     16  C   LIG    1       -9.162   8.663   3.239  0.00  0.00    +0.140 A 
ENDBRANCH   1  11
BRANCH   4  17
ATOM     17  C   LIG    1       -3.523   3.255   2.921  0.00  0.00    -0.079 C 
BRANCH  17  18
ATOM     18  C   LIG    1       -3.083   3.018   1.476  0.00  0.00    -0.017 C 
BRANCH  18  19
ATOM     19  C   LIG    1       -1.741   2.283   1.465  0.00  0.00    +0.018 C 
BRANCH  19  20
ATOM     20  C   LIG    1       -1.301   2.045   0.019  0.00  0.00    +0.116 C 
BRANCH  20  21
ATOM     21  N   LIG    1       -0.016   1.341   0.009  0.00  0.00    -0.238 N 
ATOM     22  C   LIG    1        1.128   2.050   0.002  0.00  0.00    +0.248 C 
ATOM     23  C   LIG    1        2.461   1.347   0.004  0.00  0.00    +0.256 C 
ATOM     24  O   LIG    1        2.315   0.064  -0.615  0.00  0.00    -0.361 OA
ATOM     25  C   LIG    1        1.312  -0.749   0.003  0.00  0.00    +0.256 C 
ATOM     26  O   LIG    1        1.086   3.262  -0.005  0.00  0.00    -0.273 OA
ATOM     27  C   LIG    1        0.002  -0.004   0.002  0.00  0.00    +0.248 C 
ATOM     28  O   LIG    1       -1.042  -0.621  -0.005  0.00  0.00    -0.273 OA
ENDBRANCH  20  21
ENDBRANCH  19  20
ENDBRANCH  18  19
ENDBRANCH  17  18
ENDBRANCH   4  17
TORSDOF 6
