REMARK  Name = ZINC29463846
REMARK                            x       y       z     vdW  Elec       q    Type
REMARK                         _______ _______ _______ _____ _____    ______ ____
ROOT
ATOM      1  C   LIG    1        0.840   9.222  -0.966  0.00  0.00    +0.105 C 
ATOM      2  N   LIG    1        0.797   7.754  -0.973  0.00  0.00    -0.302 NA
ATOM      3  C   LIG    1        1.453   7.202   0.221  0.00  0.00    +0.103 C 
ATOM      4  C   LIG    1        1.457   5.674   0.137  0.00  0.00    +0.122 C 
ATOM      5  N   LIG    1        0.075   5.188   0.028  0.00  0.00    -0.312 N 
ATOM      6  C   LIG    1       -0.582   5.740  -1.166  0.00  0.00    +0.122 C 
ATOM      7  C   LIG    1       -0.586   7.268  -1.082  0.00  0.00    +0.103 C 
ENDROOT
BRANCH   5   8
ATOM      8  C   LIG    1        0.034   3.798   0.021  0.00  0.00    +0.135 A 
ATOM      9  C   LIG    1       -0.637   3.123   1.037  0.00  0.00    +0.058 A 
ATOM     10 BR   LIG    1       -1.491   4.083   2.425  0.00  0.00    -0.047 Br
ATOM     11  C   LIG    1       -0.674   1.740   1.015  0.00  0.00    +0.020 A 
ATOM     12  C   LIG    1       -0.028   1.076  -0.020  0.00  0.00    +0.021 A 
ATOM     13  C   LIG    1        0.618   1.810  -0.995  0.00  0.00    +0.113 A 
ATOM     14  N   LIG    1        0.633   3.129  -0.951  0.00  0.00    -0.239 NA
ENDBRANCH   5   8
TORSDOF 1
