REMARK  Name = ZINC13910898
REMARK                            x       y       z     vdW  Elec       q    Type
REMARK                         _______ _______ _______ _____ _____    ______ ____
ROOT
ATOM      1  C   LIG    1        1.362   2.942  -1.554  0.00  0.00    +0.165 C 
ATOM      2  C   LIG    1       -0.173   3.172  -1.482  0.00  0.00    +0.053 C 
ATOM      3  C   LIG    1       -0.871   1.911  -0.971  0.00  0.00    +0.030 C 
ATOM      4  C   LIG    1       -1.234   1.828   0.547  0.00  0.00    +0.126 C 
ATOM      5  C   LIG    1       -0.013   1.086   0.008  0.00  0.00    +0.147 C 
ATOM      6  S   LIG    1        1.601   1.970  -0.003  0.00  0.00    -0.028 S 
ATOM      7  O   LIG    1        2.648   1.029  -0.196  0.00  0.00    -0.174 OA
ATOM      8  O   LIG    1        1.653   2.861   1.103  0.00  0.00    -0.174 OA
ENDROOT
BRANCH   2   9
ATOM      9  N   LIG    1       -0.445   4.280  -0.550  0.00  0.00    +0.390 N 
ATOM     10  H   LIG    1       -0.029   4.063   0.363  0.00  0.00    -0.088 HD
ATOM     11  H   LIG    1       -1.449   4.404  -0.437  0.00  0.00    -0.088 HD
ATOM     12  H   LIG    1       -0.035   5.143  -0.904  0.00  0.00    -0.088 HD
ENDBRANCH   2   9
BRANCH   2  13
ATOM     13  C   LIG    1       -0.693   3.506  -2.857  0.00  0.00    +0.295 C 
ATOM     14  O   LIG    1       -1.122   2.630  -3.570  0.00  0.00    -0.253 OA
BRANCH  13  15
ATOM     15  O   LIG    1       -0.679   4.777  -3.289  0.00  0.00    -0.482 OA
ATOM     16  H   LIG    1       -0.347   5.456  -2.737  0.00  0.00    +0.295 HD
ENDBRANCH  13  15
ENDBRANCH   2  13
BRANCH   4  17
ATOM     17  C   LIG    1       -2.429   1.002   0.946  0.00  0.00    +0.310 C 
ATOM     18  O   LIG    1       -3.076   0.427   0.102  0.00  0.00    -0.251 OA
BRANCH  17  19
ATOM     19  O   LIG    1       -2.776   0.903   2.239  0.00  0.00    -0.480 OA
ATOM     20  H   LIG    1       -2.275   1.349   2.894  0.00  0.00    +0.295 HD
ENDBRANCH  17  19
ENDBRANCH   4  17
TORSDOF 5
