REMARK  Name = ZINC18045921
REMARK                            x       y       z     vdW  Elec       q    Type
REMARK                         _______ _______ _______ _____ _____    ______ ____
ROOT
ATOM      1  C   LIG    1       -2.800  -2.398   0.016  0.00  0.00    +0.160 C 
ATOM      2  C   LIG    1       -2.967  -3.788  -0.096  0.00  0.00    +0.083 A 
ATOM      3  C   LIG    1       -4.266  -4.342  -0.199  0.00  0.00    +0.138 A 
ATOM      4  N   LIG    1       -4.440  -5.630  -0.304  0.00  0.00    -0.251 NA
ATOM      5  C   LIG    1       -3.392  -6.474  -0.318  0.00  0.00    +0.087 A 
ATOM      6  C   LIG    1       -3.594  -7.858  -0.431  0.00  0.00    +0.030 A 
ATOM      7  C   LIG    1       -2.523  -8.703  -0.444  0.00  0.00    +0.002 A 
ATOM      8  C   LIG    1       -1.228  -8.209  -0.345  0.00  0.00    +0.002 A 
ATOM      9  C   LIG    1       -1.002  -6.855  -0.233  0.00  0.00    +0.028 A 
ATOM     10  C   LIG    1       -2.079  -5.974  -0.218  0.00  0.00    +0.065 A 
ATOM     11  N   LIG    1       -1.877  -4.614  -0.111  0.00  0.00    -0.351 N 
ATOM     12  H   LIG    1       -0.980  -4.250  -0.045  0.00  0.00    +0.166 HD
ENDROOT
BRANCH   1  13
ATOM     13  C   LIG    1       -1.509  -1.828  -0.115  0.00  0.00    +0.352 C 
ATOM     14  O   LIG    1       -0.562  -2.528  -0.423  0.00  0.00    -0.244 OA
BRANCH  13  15
ATOM     15  O   LIG    1       -1.329  -0.508   0.104  0.00  0.00    -0.461 OA
BRANCH  15  17
ATOM     16  C   LIG    1        0.005   1.502   0.240  0.00  0.00    +0.048 C 
ATOM     17  C   LIG    1       -0.001  -0.001  -0.045  0.00  0.00    +0.229 C 
ENDBRANCH  15  17
ENDBRANCH  13  15
ENDBRANCH   1  13
BRANCH   1  18
ATOM     18  C   LIG    1       -3.933  -1.558   0.262  0.00  0.00    +0.108 C 
ATOM     19  N   LIG    1       -4.831  -0.891   0.457  0.00  0.00    -0.191 NA
ENDBRANCH   1  18
TORSDOF 4
