REMARK  Name = ZINC26481524
REMARK                            x       y       z     vdW  Elec       q    Type
REMARK                         _______ _______ _______ _____ _____    ______ ____
ROOT
ATOM      1  C   LIG    1        3.760  -0.004  -2.948  0.00  0.00    +0.023 A 
ATOM      2  C   LIG    1        2.554  -0.540  -2.544  0.00  0.00    +0.047 A 
ATOM      3  C   LIG    1        1.781   0.112  -1.590  0.00  0.00    +0.126 A 
ATOM      4  C   LIG    1        2.229   1.303  -1.041  0.00  0.00    +0.028 A 
ATOM      5  C   LIG    1        1.423   2.030  -0.001  0.00  0.00    +0.144 C 
ATOM      6  C   LIG    1        2.050   1.859   1.364  0.00  0.00    +0.249 C 
ATOM      7  N   LIG    1        2.372   3.105   1.770  0.00  0.00    -0.238 N 
ATOM      8  H   LIG    1        2.850   3.258   2.749  0.00  0.00    +0.159 HD
ATOM      9  C   LIG    1        2.037   4.024   0.856  0.00  0.00    +0.307 C 
ATOM     10  O   LIG    1        2.228   5.216   0.994  0.00  0.00    -0.252 OA
ATOM     11  O   LIG    1        2.225   0.822   1.967  0.00  0.00    -0.273 OA
ATOM     12  C   LIG    1       -0.019   1.531   0.011  0.00  0.00    +0.081 C 
ATOM     13  C   LIG    1        0.002  -0.004   0.002  0.00  0.00    +0.232 C 
ATOM     14  N   LIG    1        1.465   3.478  -0.235  0.00  0.00    -0.281 N 
ATOM     15  H   LIG    1        1.067   3.896  -1.171  0.00  0.00    +0.152 HD
ATOM     16  C   LIG    1        3.438   1.838  -1.451  0.00  0.00    +0.029 A 
ATOM     17  O   LIG    1        0.598  -0.442  -1.220  0.00  0.00    -0.492 OA
ATOM     18  C   LIG    1        4.203   1.188  -2.402  0.00  0.00    +0.042 A 
ATOM     19 CL   LIG    1        5.718   1.865  -2.910  0.00  0.00    -0.084 Cl
ENDROOT
TORSDOF 0
