REMARK  Name = ZINC19278080
REMARK                            x       y       z     vdW  Elec       q    Type
REMARK                         _______ _______ _______ _____ _____    ______ ____
ROOT
ATOM      1  C   UNK A  0       -1.574   3.737   2.019  0.00  0.00    +0.249 C 
ATOM      2  N   ASN A  1       -0.645   3.040   1.336  0.00  0.00    -0.298 N 
ATOM      3  H   ASN A  1        0.177   3.568   0.830  0.00  0.00    +0.150 HD
ATOM      4  O   UNK A  0       -2.482   3.154   2.578  0.00  0.00    -0.270 OA
ENDROOT
BRANCH   1   9
ATOM      5  C   UNK A  0       -1.331   7.974   2.218  0.00  0.00    +0.004 A 
ATOM      6  C   UNK A  0       -0.703   7.204   3.180  0.00  0.00    +0.039 A 
ATOM      7  C   UNK A  0       -0.777   5.825   3.123  0.00  0.00    +0.137 A 
ATOM      8  F   UNK A  0       -0.163   5.074   4.063  0.00  0.00    -0.205 F 
ATOM      9  C   UNK A  0       -1.489   5.209   2.088  0.00  0.00    +0.090 A 
ATOM     10  C   UNK A  0       -2.115   5.996   1.117  0.00  0.00    +0.056 A 
ATOM     11 CL   UNK A  0       -2.996   5.244  -0.176  0.00  0.00    -0.083 Cl
ATOM     12  C   UNK A  0       -2.037   7.372   1.192  0.00  0.00    +0.021 A 
ENDBRANCH   1   9
BRANCH   2  13
ATOM     13  CA  ASN A  1       -0.729   1.579   1.267  0.00  0.00    +0.191 C 
BRANCH  13  14
ATOM     14  C   ASN A  1       -0.074   0.981   2.485  0.00  0.00    +0.326 C 
ATOM     15  O   ASN A  1        0.413   1.700   3.324  0.00  0.00    -0.249 OA
BRANCH  14  16
ATOM     16  OXT ASN A  1       -0.032  -0.352   2.637  0.00  0.00    -0.479 OA
ATOM     17  HXT ASN A  1       -0.409  -0.911   1.986  0.00  0.00    +0.295 HD
ENDBRANCH  14  16
ENDBRANCH  13  14
BRANCH  13  18
ATOM     18  CB  ASN A  1       -0.013   1.086   0.008  0.00  0.00    +0.129 C 
BRANCH  18  19
ATOM     19  CG  ASN A  1       -0.742   1.585  -1.213  0.00  0.00    +0.213 C 
ATOM     20  ND2 ASN A  1       -0.288   1.272  -2.443  0.00  0.00    -0.329 N 
ATOM     21 HD21 ASN A  1        0.614   0.653  -2.556  0.00  0.00    +0.145 HD
ATOM     22 HD22 ASN A  1       -0.820   1.637  -3.334  0.00  0.00    +0.145 HD
ATOM     23  OD1 ASN A  1       -1.736   2.268  -1.088  0.00  0.00    -0.276 OA
ENDBRANCH  18  19
ENDBRANCH  13  18
ENDBRANCH   2  13
TORSDOF 6
