REMARK  Name = ZINC34717850
REMARK                            x       y       z     vdW  Elec       q    Type
REMARK                         _______ _______ _______ _____ _____    ______ ____
ROOT
ATOM      1  C   LIG    1       -0.104   1.687   0.266  0.00  0.00    +0.008 C 
ATOM      2  C   LIG    1       -0.048   0.155   0.297  0.00  0.00    -0.007 C 
ATOM      3  C   LIG    1        0.755  -0.347  -0.903  0.00  0.00    +0.037 C 
ATOM      4  C   LIG    1       -0.168  -0.634  -2.089  0.00  0.00    +0.147 C 
ATOM      5  C   LIG    1       -1.032  -1.863  -1.827  0.00  0.00    +0.150 C 
ATOM      6  C   LIG    1       -2.057  -2.038  -2.958  0.00  0.00    +0.040 C 
ATOM      7  C   LIG    1       -1.677  -3.283  -3.774  0.00  0.00    +0.014 C 
ATOM      8  C   LIG    1       -3.417  -2.250  -2.356  0.00  0.00    -0.019 C 
ATOM      9  C   LIG    1       -4.493  -1.623  -2.738  0.00  0.00    -0.033 C 
ATOM     10  C   LIG    1       -4.487  -0.601  -3.842  0.00  0.00    +0.042 C 
ATOM     11  C   LIG    1       -5.796  -1.938  -2.037  0.00  0.00    +0.236 C 
ATOM     12  C   LIG    1       -5.624  -1.711  -0.537  0.00  0.00    +0.186 C 
ATOM     13  C   LIG    1       -6.865  -1.110   0.066  0.00  0.00    +0.008 C 
ATOM     14  C   LIG    1       -6.842  -0.691   1.341  0.00  0.00    -0.001 C 
ATOM     15  C   LIG    1       -5.637  -0.861   2.129  0.00  0.00    +0.008 C 
ATOM     16  C   LIG    1       -5.243  -0.015   3.111  0.00  0.00    +0.013 C 
ATOM     17  C   LIG    1       -6.059   1.194   3.477  0.00  0.00    +0.049 C 
ATOM     18  C   LIG    1       -3.998  -0.323   3.793  0.00  0.00    +0.263 C 
ATOM     19  N   LIG    1       -3.244   0.495   4.507  0.00  0.00    -0.177 NA
ATOM     20  C   LIG    1       -1.995   0.741   4.265  0.00  0.00    +0.089 C 
ATOM     21  C   LIG    1       -1.228   1.648   5.186  0.00  0.00    +0.137 C 
ATOM     22  C   LIG    1        0.137   2.000   4.665  0.00  0.00    +0.183 C 
ATOM     23  C   LIG    1        0.711   1.322   3.487  0.00  0.00    +0.077 C 
ATOM     24  C   LIG    1        0.011   0.420   2.767  0.00  0.00    +0.025 C 
ATOM     25  O   LIG    1        0.780   2.855   5.219  0.00  0.00    -0.290 OA
ATOM     26  C   LIG    1       -1.338   0.115   3.100  0.00  0.00    +0.203 C 
ATOM     27  O   LIG    1       -1.936  -0.669   2.389  0.00  0.00    -0.286 OA
ATOM     28  O   LIG    1       -3.636  -1.493   3.699  0.00  0.00    -0.268 OA
ATOM     29  C   LIG    1        0.626  -0.303   1.595  0.00  0.00    +0.044 C 
ENDROOT
BRANCH   4  30
ATOM     30  O   LIG    1       -1.005   0.499  -2.336  0.00  0.00    -0.377 OA
ATOM     31  C   LIG    1       -0.448   1.444  -3.252  0.00  0.00    +0.194 C 
ENDBRANCH   4  30
BRANCH   5  32
ATOM     32  O   LIG    1       -0.214  -3.032  -1.763  0.00  0.00    -0.389 OA
ATOM     33  H   LIG    1       -0.706  -3.848  -1.598  0.00  0.00    +0.210 HD
ENDBRANCH   5  32
BRANCH  12  34
ATOM     34  O   LIG    1       -4.516  -0.832  -0.322  0.00  0.00    -0.372 OA
ATOM     35  C   LIG    1       -4.738   0.505  -0.774  0.00  0.00    +0.195 C 
ENDBRANCH  12  34
BRANCH  23  36
ATOM     36  N   LIG    1        2.003   1.641   3.139  0.00  0.00    -0.343 N 
ATOM     37  H   LIG    1        2.417   1.217   2.371  0.00  0.00    +0.146 HD
BRANCH  36  38
ATOM     38  C   LIG    1        2.754   2.621   3.927  0.00  0.00    +0.083 C 
BRANCH  38  39
ATOM     39  C   LIG    1        4.153   2.791   3.331  0.00  0.00    -0.061 C 
BRANCH  39  40
ATOM     40  N   LIG    1        4.906   3.773   4.122  0.00  0.00    +0.377 N 
ATOM     41  H   LIG    1        4.913   3.491   5.091  0.00  0.00    -0.083 HD
ATOM     42  C   LIG    1        4.269   5.091   4.001  0.00  0.00    -0.097 C 
ATOM     43  C   LIG    1        6.286   3.849   3.624  0.00  0.00    -0.097 C 
ENDBRANCH  39  40
ENDBRANCH  38  39
ENDBRANCH  36  38
ENDBRANCH  23  36
BRANCH  11  44
ATOM     44  O   LIG    1       -6.826  -1.095  -2.551  0.00  0.00    -0.440 OA
BRANCH  44  45
ATOM     45  C   LIG    1       -7.520  -1.555  -3.608  0.00  0.00    +0.398 C 
ATOM     46  N   LIG    1       -8.507  -0.809  -4.143  0.00  0.00    -0.295 N 
ATOM     47  H   LIG    1       -9.007  -1.140  -4.905  0.00  0.00    +0.148 HD
ATOM     48  H   LIG    1       -8.717   0.060  -3.765  0.00  0.00    +0.148 HD
ATOM     49  O   LIG    1       -7.257  -2.643  -4.082  0.00  0.00    -0.227 OA
ENDBRANCH  44  45
ENDBRANCH  11  44
TORSDOF 9
