REMARK  Name = ZINC14052444
REMARK                            x       y       z     vdW  Elec       q    Type
REMARK                         _______ _______ _______ _____ _____    ______ ____
ROOT
ATOM      1  N   LIG    1        3.623  -0.651  -0.061  0.00  0.00    -0.280 N 
ATOM      2  H   LIG    1        4.454  -0.157  -0.138  0.00  0.00    +0.155 HD
ATOM      3  C   LIG    1        3.645  -1.994   0.046  0.00  0.00    +0.270 C 
ATOM      4  O   LIG    1        2.603  -2.620   0.061  0.00  0.00    -0.268 OA
ENDROOT
BRANCH   1   8
ATOM      5  C   LIG    1       -0.015   1.379  -0.063  0.00  0.00    +0.000 A 
ATOM      6  C   LIG    1        1.094   1.950   0.534  0.00  0.00    +0.002 A 
ATOM      7  C   LIG    1        2.301   1.280   0.537  0.00  0.00    +0.023 A 
ATOM      8  C   LIG    1        2.401   0.030  -0.061  0.00  0.00    +0.034 A 
ATOM      9  C   LIG    1        1.286  -0.541  -0.661  0.00  0.00    +0.023 A 
ATOM     10  C   LIG    1        0.082   0.135  -0.660  0.00  0.00    +0.002 A 
ENDBRANCH   1   8
BRANCH   3  11
ATOM     11  C   LIG    1        4.935  -2.706   0.146  0.00  0.00    +0.165 A 
ATOM     12  C   LIG    1        4.969  -4.110   0.144  0.00  0.00    +0.147 A 
ATOM     13  N   LIG    1        6.135  -4.740   0.234  0.00  0.00    -0.237 NA
ATOM     14  C   LIG    1        7.255  -4.045   0.325  0.00  0.00    +0.132 A 
ATOM     15  C   LIG    1        7.221  -2.658   0.328  0.00  0.00    +0.131 A 
ATOM     16  N   LIG    1        6.072  -2.020   0.233  0.00  0.00    -0.246 NA
BRANCH  12  17
ATOM     17  N   LIG    1        3.794  -4.833   0.049  0.00  0.00    -0.341 N 
ATOM     18  H   LIG    1        3.825  -5.800  -0.029  0.00  0.00    +0.144 HD
ATOM     19  H   LIG    1        2.940  -4.374   0.060  0.00  0.00    +0.144 HD
ENDBRANCH  12  17
ENDBRANCH   3  11
TORSDOF 3
