REMARK  Name = ZINC14959045
REMARK                            x       y       z     vdW  Elec       q    Type
REMARK                         _______ _______ _______ _____ _____    ______ ____
ROOT
ATOM      1  N   LIG    1       -0.013   1.471   0.017  0.00  0.00    +0.383 N 
ATOM      2  H   LIG    1        0.950   1.820  -0.053  0.00  0.00    -0.085 HD
ATOM      3  H   LIG    1       -0.432   1.796   0.897  0.00  0.00    -0.085 HD
ENDROOT
BRANCH   1   4
ATOM      4  C   LIG    1       -0.802   1.987  -1.117  0.00  0.00    -0.077 C 
BRANCH   4   5
ATOM      5  C   LIG    1       -0.799   3.516  -1.075  0.00  0.00    +0.016 C 
BRANCH   5   9
ATOM      6  C   LIG    1       -3.079   5.035  -4.353  0.00  0.00    +0.000 A 
ATOM      7  C   LIG    1       -3.696   4.772  -3.145  0.00  0.00    +0.000 A 
ATOM      8  C   LIG    1       -2.959   4.280  -2.084  0.00  0.00    +0.003 A 
ATOM      9  C   LIG    1       -1.603   4.052  -2.232  0.00  0.00    -0.049 A 
ATOM     10  C   LIG    1       -0.985   4.320  -3.438  0.00  0.00    +0.003 A 
ATOM     11  C   LIG    1       -1.723   4.807  -4.501  0.00  0.00    +0.000 A 
ENDBRANCH   5   9
ENDBRANCH   4   5
ENDBRANCH   1   4
BRANCH   1  12
ATOM     12  C   LIG    1        0.002  -0.004   0.002  0.00  0.00    -0.028 C 
BRANCH  12  13
ATOM     13  C   LIG    1        0.814  -0.502   1.170  0.00  0.00    -0.001 A 
ATOM     14  C   LIG    1        2.118  -0.843   1.139  0.00  0.00    +0.020 A 
ATOM     15  C   LIG    1        2.479  -1.249   2.438  0.00  0.00    +0.019 A 
ATOM     16  C   LIG    1        1.380  -1.149   3.213  0.00  0.00    +0.082 A 
ATOM     17  N   LIG    1        0.354  -0.691   2.440  0.00  0.00    -0.366 N 
ATOM     18  H   LIG    1       -0.552  -0.526   2.743  0.00  0.00    +0.165 HD
ENDBRANCH  12  13
ENDBRANCH   1  12
TORSDOF 5
