REMARK  Name = ZINC20232356
REMARK                            x       y       z     vdW  Elec       q    Type
REMARK                         _______ _______ _______ _____ _____    ______ ____
ROOT
ATOM      1  C   LIG    1       -2.498   1.081  -0.068  0.00  0.00    +0.062 A 
ATOM      2  C   LIG    1       -1.295   1.791   0.036  0.00  0.00    +0.048 A 
ATOM      3  C   LIG    1       -1.318   3.187   0.137  0.00  0.00    +0.135 A 
ATOM      4  C   LIG    1       -2.520   3.859   0.123  0.00  0.00    +0.082 A 
ATOM      5  C   LIG    1       -3.712   3.154   0.020  0.00  0.00    +0.160 A 
ATOM      6  C   LIG    1       -3.698   1.762  -0.075  0.00  0.00    +0.159 A 
ENDROOT
BRANCH   2   7
ATOM      7  C   LIG    1       -0.014   1.073   0.045  0.00  0.00    +0.261 C 
ATOM      8  O   LIG    1        0.001  -0.140   0.066  0.00  0.00    -0.296 OA
ENDBRANCH   2   7
BRANCH   3   9
ATOM      9  N   LIG    1       -0.049   3.942   0.253  0.00  0.00    +0.007 N 
ATOM     10  O   LIG    1       -0.072   5.144   0.448  0.00  0.00    -0.130 OA
BRANCH   9  11
ATOM     11  O   LIG    1        1.016   3.360   0.154  0.00  0.00    -0.396 OA
ATOM     12  H   LIG    1        1.033   2.436   0.004  0.00  0.00    +0.329 HD
ENDBRANCH   9  11
ENDBRANCH   3   9
BRANCH   5  13
ATOM     13  O   LIG    1       -4.894   3.821   0.011  0.00  0.00    -0.503 OA
ATOM     14  H   LIG    1       -4.905   4.756   0.075  0.00  0.00    +0.292 HD
ENDBRANCH   5  13
BRANCH   6  15
ATOM     15  O   LIG    1       -4.868   1.076  -0.176  0.00  0.00    -0.503 OA
ATOM     16  H   LIG    1       -5.825   1.618  -0.182  0.00  0.00    +0.292 HD
ENDBRANCH   6  15
TORSDOF 5
