REMARK  Name = ZINC18098320
REMARK                            x       y       z     vdW  Elec       q    Type
REMARK                         _______ _______ _______ _____ _____    ______ ____
ROOT
ATOM      1  C   LIG    1        4.977   4.587   6.287  0.00  0.00    +0.003 C 
ENDROOT
BRANCH   1   2
ATOM      2  C   LIG    1        5.484   4.136   7.658  0.00  0.00    +0.003 C 
BRANCH   2   3
ATOM      3  C   LIG    1        6.976   4.453   7.779  0.00  0.00    +0.037 C 
BRANCH   3   4
ATOM      4  C   LIG    1        7.483   4.003   9.151  0.00  0.00    +0.196 C 
BRANCH   4   5
ATOM      5  N   LIG    1        8.912   4.306   9.267  0.00  0.00    -0.276 N 
ATOM      6  H   LIG    1        9.379   4.731   8.530  0.00  0.00    +0.258 HD
BRANCH   5   7
ATOM      7  C   LIG    1        9.591   3.990  10.419  0.00  0.00    +0.388 C 
ATOM      8  N   LIG    1        8.963   3.421  11.409  0.00  0.00    -0.129 NA
ATOM      9  H   LIG    1        9.431   3.237  12.239  0.00  0.00    +0.306 HD
BRANCH   7  10
ATOM     10  N   LIG    1       10.936   4.276  10.529  0.00  0.00    -0.186 N 
ATOM     11  H   LIG    1       11.339   4.941   9.949  0.00  0.00    +0.271 HD
BRANCH  10  12
ATOM     12  C   LIG    1       11.706   3.617  11.460  0.00  0.00    +0.394 C 
ATOM     13  N   LIG    1       12.787   4.186  11.939  0.00  0.00    -0.073 NA
BRANCH  13  14
ATOM     14  C   LIG    1       13.221   5.377  11.419  0.00  0.00    +0.142 A 
ATOM     15  C   LIG    1       13.495   5.487  10.054  0.00  0.00    +0.047 A 
ATOM     16  C   LIG    1       13.932   6.689   9.536  0.00  0.00    +0.023 A 
ATOM     17  C   LIG    1       14.099   7.784  10.366  0.00  0.00    +0.041 A 
ATOM     18 CL   LIG    1       14.650   9.293   9.707  0.00  0.00    -0.084 Cl
ATOM     19  C   LIG    1       13.831   7.681  11.721  0.00  0.00    +0.023 A 
ATOM     20  C   LIG    1       13.387   6.486  12.250  0.00  0.00    +0.047 A 
ENDBRANCH  13  14
BRANCH  12  21
ATOM     21  N   LIG    1       11.343   2.364  11.889  0.00  0.00    -0.288 N 
ATOM     22  H   LIG    1       11.720   2.003  12.707  0.00  0.00    +0.255 HD
ATOM     23  H   LIG    1       10.711   1.840  11.373  0.00  0.00    +0.255 HD
ENDBRANCH  12  21
ENDBRANCH  10  12
ENDBRANCH   7  10
ENDBRANCH   5   7
ENDBRANCH   4   5
ENDBRANCH   3   4
ENDBRANCH   2   3
ENDBRANCH   1   2
BRANCH   1  24
ATOM     24  C   LIG    1        3.485   4.270   6.166  0.00  0.00    +0.041 C 
BRANCH  24  25
ATOM     25  C   LIG    1        2.977   4.720   4.794  0.00  0.00    +0.243 C 
BRANCH  25  27
ATOM     26  C   LIG    1        0.685   5.385   4.561  0.00  0.00    +0.388 C 
ATOM     27  N   LIG    1        1.549   4.417   4.678  0.00  0.00    -0.113 NA
BRANCH  26  28
ATOM     28  N   LIG    1        1.120   6.683   4.443  0.00  0.00    -0.289 N 
ATOM     29  H   LIG    1        0.880   7.206   3.662  0.00  0.00    +0.255 HD
ATOM     30  H   LIG    1        1.666   7.077   5.141  0.00  0.00    +0.255 HD
ENDBRANCH  26  28
BRANCH  26  31
ATOM     31  N   LIG    1       -0.666   5.106   4.556  0.00  0.00    -0.186 N 
ATOM     32  H   LIG    1       -0.972   4.185   4.557  0.00  0.00    +0.271 HD
BRANCH  31  34
ATOM     33  N   LIG    1       -2.861   5.873   4.433  0.00  0.00    -0.073 NA
ATOM     34  C   LIG    1       -1.581   6.135   4.547  0.00  0.00    +0.394 C 
BRANCH  33  36
ATOM     35  C   LIG    1       -4.187   4.032   5.206  0.00  0.00    +0.047 A 
ATOM     36  C   LIG    1       -3.286   4.578   4.291  0.00  0.00    +0.142 A 
ATOM     37  C   LIG    1       -2.819   3.800   3.230  0.00  0.00    +0.047 A 
ATOM     38  C   LIG    1       -3.251   2.497   3.092  0.00  0.00    +0.023 A 
ATOM     39  C   LIG    1       -4.145   1.961   4.003  0.00  0.00    +0.041 A 
ATOM     40 CL   LIG    1       -4.683   0.320   3.822  0.00  0.00    -0.084 Cl
ATOM     41  C   LIG    1       -4.611   2.727   5.057  0.00  0.00    +0.023 A 
ENDBRANCH  33  36
BRANCH  34  42
ATOM     42  N   LIG    1       -1.153   7.434   4.658  0.00  0.00    -0.288 N 
ATOM     43  H   LIG    1       -0.312   7.632   5.098  0.00  0.00    +0.255 HD
ATOM     44  H   LIG    1       -1.693   8.155   4.297  0.00  0.00    +0.255 HD
ENDBRANCH  34  42
ENDBRANCH  31  34
ENDBRANCH  26  31
ENDBRANCH  25  27
ENDBRANCH  24  25
ENDBRANCH   1  24
TORSDOF 17
