REMARK  Name = ZINC14951858
REMARK                            x       y       z     vdW  Elec       q    Type
REMARK                         _______ _______ _______ _____ _____    ______ ____
ROOT
ATOM      1  C   LIG    1       -0.037   1.484  -0.041  0.00  0.00    +0.070 C 
ATOM      2  C   LIG    1       -0.003  -0.022   0.013  0.00  0.00    +0.094 C 
ATOM      3  N   LIG    1        0.029  -0.632   1.165  0.00  0.00    -0.115 NA
ENDROOT
BRANCH   2   4
ATOM      4  C   LIG    1       -0.005  -0.774  -1.185  0.00  0.00    +0.178 C 
ATOM      5  N   LIG    1        0.068  -0.163  -2.341  0.00  0.00    -0.077 NA
BRANCH   5   6
ATOM      6  N   LIG    1        0.066  -0.848  -3.434  0.00  0.00    +0.044 NA
ATOM      7  C   LIG    1        0.139  -0.233  -4.598  0.00  0.00    +0.404 C 
BRANCH   7   8
ATOM      8  N   LIG    1        0.137  -0.961  -5.760  0.00  0.00    -0.287 N 
ATOM      9  H   LIG    1        0.191  -0.509  -6.616  0.00  0.00    +0.255 HD
ATOM     10  H   LIG    1        0.082  -1.929  -5.726  0.00  0.00    +0.255 HD
ENDBRANCH   7   8
BRANCH   7  11
ATOM     11  N   LIG    1        0.218   1.135  -4.647  0.00  0.00    -0.287 N 
ATOM     12  H   LIG    1        0.272   1.588  -5.503  0.00  0.00    +0.255 HD
ATOM     13  H   LIG    1        0.219   1.651  -3.825  0.00  0.00    +0.255 HD
ENDBRANCH   7  11
ENDBRANCH   5   6
ENDBRANCH   2   4
BRANCH   3  14
ATOM     14  N   LIG    1       -0.051  -2.030   1.220  0.00  0.00    -0.155 N 
ATOM     15  H   LIG    1       -0.054  -2.548   0.400  0.00  0.00    +0.292 HD
BRANCH  14  16
ATOM     16  C   LIG    1       -0.125  -2.667   2.437  0.00  0.00    +0.400 C 
ATOM     17  N   LIG    1       -0.120  -1.970   3.539  0.00  0.00    -0.128 NA
ATOM     18  H   LIG    1       -0.065  -1.003   3.501  0.00  0.00    +0.306 HD
BRANCH  16  19
ATOM     19  N   LIG    1       -0.203  -4.040   2.491  0.00  0.00    -0.288 N 
ATOM     20  H   LIG    1       -0.255  -4.489   3.349  0.00  0.00    +0.255 HD
ATOM     21  H   LIG    1       -0.206  -4.558   1.671  0.00  0.00    +0.255 HD
ENDBRANCH  16  19
ENDBRANCH  14  16
ENDBRANCH   3  14
TORSDOF 7
