REMARK  Name = ZINC13930057
REMARK                            x       y       z     vdW  Elec       q    Type
REMARK                         _______ _______ _______ _____ _____    ______ ____
ROOT
ATOM      1  C   LIG    1        5.022   3.521  -0.257  0.00  0.00    +0.233 C 
ATOM      2  N   LIG    1        3.761   3.207  -0.141  0.00  0.00    -0.205 NA
ATOM      3  C   LIG    1        3.639   1.849  -0.126  0.00  0.00    +0.152 C 
ATOM      4  C   LIG    1        5.016   1.329  -0.261  0.00  0.00    +0.364 C 
ATOM      5  O   LIG    1        5.367   0.165  -0.296  0.00  0.00    -0.243 OA
ATOM      6  C   LIG    1        2.487   1.123  -0.016  0.00  0.00    +0.043 C 
ATOM      7  O   LIG    1        5.802   2.425  -0.334  0.00  0.00    -0.402 OA
ENDROOT
BRANCH   1  12
ATOM      8  C   LIG    1        6.486   7.505  -0.392  0.00  0.00    +0.016 A 
ATOM      9  C   LIG    1        5.128   7.276  -0.261  0.00  0.00    +0.022 A 
ATOM     10  C   LIG    1        4.644   5.983  -0.222  0.00  0.00    +0.053 A 
ATOM     11 CL   LIG    1        2.939   5.697  -0.065  0.00  0.00    -0.083 Cl
ATOM     12  C   LIG    1        5.531   4.905  -0.304  0.00  0.00    +0.056 A 
ATOM     13  C   LIG    1        6.901   5.146  -0.436  0.00  0.00    +0.029 A 
ATOM     14  C   LIG    1        7.370   6.443  -0.480  0.00  0.00    +0.014 A 
ATOM     15  I   LIG    1        9.423   6.805  -0.679  0.00  0.00    -0.044 I 
ENDBRANCH   1  12
BRANCH   6  16
ATOM     16  C   LIG    1        1.187   1.805  -0.007  0.00  0.00    -0.020 A 
ATOM     17  C   LIG    1        1.106   3.207   0.017  0.00  0.00    +0.027 A 
ATOM     18  C   LIG    1       -0.137   3.804   0.030  0.00  0.00    +0.111 A 
ATOM     19  N   LIG    1       -1.238   3.078   0.011  0.00  0.00    -0.263 NA
ATOM     20  C   LIG    1       -1.210   1.759  -0.012  0.00  0.00    +0.111 A 
ATOM     21  C   LIG    1       -0.013   1.075  -0.021  0.00  0.00    +0.027 A 
ENDBRANCH   6  16
TORSDOF 2
