REMARK  Name = ZINC19203131
REMARK                            x       y       z     vdW  Elec       q    Type
REMARK                         _______ _______ _______ _____ _____    ______ ____
ROOT
ATOM      1  C   LIG    1        0.646   1.728  -2.515  0.00  0.00    +0.012 C 
ATOM      2  C   LIG    1        0.652   0.197  -2.600  0.00  0.00    -0.025 C 
ATOM      3  C   LIG    1       -0.685  -0.243  -3.198  0.00  0.00    +0.008 C 
ATOM      4  C   LIG    1       -0.798  -1.763  -3.215  0.00  0.00    +0.018 C 
ATOM      5  C   LIG    1       -0.647  -2.335  -1.806  0.00  0.00    +0.065 C 
ATOM      6  C   LIG    1       -0.669  -3.869  -1.893  0.00  0.00    +0.023 C 
ATOM      7  C   LIG    1        0.691  -1.898  -1.210  0.00  0.00    +0.026 C 
ATOM      8  C   LIG    1        1.806  -0.269  -3.482  0.00  0.00    +0.008 C 
ATOM      9  C   LIG    1        3.133   0.299  -2.987  0.00  0.00    +0.012 C 
ATOM     10  C   LIG    1        3.415  -0.053  -1.534  0.00  0.00    -0.004 C 
ATOM     11  C   LIG    1        3.944  -1.494  -1.509  0.00  0.00    +0.016 C 
ATOM     12  C   LIG    1        4.519   0.857  -0.973  0.00  0.00    -0.013 C 
ATOM     13  C   LIG    1        3.962   2.288  -1.059  0.00  0.00    +0.013 C 
ATOM     14  C   LIG    1        5.770   0.782  -1.832  0.00  0.00    +0.008 C 
ATOM     15  C   LIG    1        6.929   1.547  -1.175  0.00  0.00    +0.005 C 
ATOM     16  C   LIG    1        7.191   0.919   0.194  0.00  0.00    +0.004 C 
ATOM     17  C   LIG    1        8.547   1.275   0.757  0.00  0.00    -0.006 C 
ATOM     18  C   LIG    1        8.835   2.775   0.713  0.00  0.00    +0.014 C 
ATOM     19  C   LIG    1        9.627   0.581  -0.110  0.00  0.00    +0.014 C 
ATOM     20  C   LIG    1        8.738   0.750   2.181  0.00  0.00    +0.120 C 
ATOM     21  C   LIG    1        7.546   1.071   3.073  0.00  0.00    +0.032 C 
ATOM     22  C   LIG    1        6.267   0.502   2.465  0.00  0.00    +0.010 C 
ATOM     23  C   LIG    1        5.997   1.176   1.108  0.00  0.00    -0.018 C 
ATOM     24  C   LIG    1        5.763   2.661   1.357  0.00  0.00    +0.012 C 
ATOM     25  C   LIG    1        4.776   0.504   0.484  0.00  0.00    +0.073 C 
ATOM     26  C   LIG    1        3.505   0.773   1.257  0.00  0.00    +0.160 C 
ATOM     27  O   LIG    1        3.491   1.273   2.365  0.00  0.00    -0.292 OA
ATOM     28  C   LIG    1        2.243   0.373   0.619  0.00  0.00    +0.046 C 
ATOM     29  C   LIG    1        2.196  -0.000  -0.666  0.00  0.00    -0.056 C 
ATOM     30  C   LIG    1        0.827  -0.380  -1.200  0.00  0.00    +0.023 C 
ENDROOT
BRANCH   5  31
ATOM     31  C   LIG    1       -1.783  -1.887  -0.927  0.00  0.00    +0.311 C 
ATOM     32  O   LIG    1       -2.931  -2.172  -1.223  0.00  0.00    -0.250 OA
BRANCH  31  33
ATOM     33  O   LIG    1       -1.556  -1.238   0.080  0.00  0.00    -0.480 OA
ATOM     34  H   LIG    1       -0.674  -1.019   0.307  0.00  0.00    +0.295 HD
ENDBRANCH  31  33
ENDBRANCH   5  31
BRANCH  20  35
ATOM     35  O   LIG    1        9.919   1.336   2.740  0.00  0.00    -0.391 OA
ATOM     36  H   LIG    1       10.133   1.019   3.628  0.00  0.00    +0.210 HD
ENDBRANCH  20  35
TORSDOF 3
