REMARK  Name = ZINC22066510
REMARK                            x       y       z     vdW  Elec       q    Type
REMARK                         _______ _______ _______ _____ _____    ______ ____
ROOT
ATOM      1  C   LIG    1        4.973  -1.940  -4.501  0.00  0.00    -0.006 C 
ENDROOT
BRANCH   1   2
ATOM      2  N   LIG    1        6.291  -1.296  -4.566  0.00  0.00    +0.390 N 
ATOM      3  H   LIG    1        6.935  -1.785  -3.962  0.00  0.00    -0.080 HD
ATOM      4  C   LIG    1        6.788  -1.336  -5.947  0.00  0.00    -0.058 C 
ATOM      5  C   LIG    1        8.169  -0.681  -6.012  0.00  0.00    +0.037 C 
ATOM      6  C   LIG    1        8.679  -0.706  -7.454  0.00  0.00    +0.022 C 
ATOM      7  N   LIG    1        8.071   0.710  -5.549  0.00  0.00    -0.299 NA
ATOM      8  C   LIG    1        7.551   0.768  -4.176  0.00  0.00    +0.069 C 
ATOM      9  C   LIG    1        6.175   0.101  -4.126  0.00  0.00    -0.056 C 
ATOM     10  C   LIG    1        5.639   0.142  -2.693  0.00  0.00    -0.012 C 
BRANCH   7  11
ATOM     11  C   LIG    1        9.369   1.391  -5.650  0.00  0.00    +0.111 C 
BRANCH  11  12
ATOM     12  C   LIG    1        9.182   2.867  -5.405  0.00  0.00    -0.019 C 
ATOM     13  C   LIG    1        9.879   3.470  -4.474  0.00  0.00    +0.005 C 
ENDBRANCH  11  12
ENDBRANCH   7  11
ENDBRANCH   1   2
BRANCH   1  17
ATOM     14  C   LIG    1        3.788  -2.356  -0.413  0.00  0.00    +0.037 A 
ATOM     15  C   LIG    1        2.888  -1.860  -1.356  0.00  0.00    +0.013 A 
ATOM     16  C   LIG    1        3.276  -1.728  -2.674  0.00  0.00    +0.003 A 
ATOM     17  C   LIG    1        4.555  -2.087  -3.060  0.00  0.00    -0.057 A 
ATOM     18  C   LIG    1        5.453  -2.580  -2.130  0.00  0.00    +0.003 A 
ATOM     19  C   LIG    1        5.079  -2.711  -0.808  0.00  0.00    +0.013 A 
BRANCH  14  21
ATOM     20  N   LIG    1        2.174  -3.022   1.304  0.00  0.00    -0.298 N 
ATOM     21  C   LIG    1        3.379  -2.500   1.001  0.00  0.00    +0.247 C 
ATOM     22  O   LIG    1        4.129  -2.146   1.889  0.00  0.00    -0.270 OA
BRANCH  20  24
ATOM     23  C   LIG    1        2.082  -4.477   3.268  0.00  0.00    +0.024 C 
ATOM     24  C   LIG    1        1.739  -3.098   2.700  0.00  0.00    +0.104 C 
ENDBRANCH  20  24
BRANCH  20  25
ATOM     25  C   LIG    1        1.300  -3.515   0.236  0.00  0.00    +0.104 C 
ATOM     26  C   LIG    1        0.201  -2.486  -0.038  0.00  0.00    +0.024 C 
ENDBRANCH  20  25
ENDBRANCH  14  21
ENDBRANCH   1  17
BRANCH   1  27
ATOM     27  C   LIG    1        5.047  -3.302  -5.143  0.00  0.00    -0.053 A 
ATOM     28  C   LIG    1        6.154  -4.104  -4.934  0.00  0.00    +0.002 A 
ATOM     29  C   LIG    1        6.225  -5.354  -5.522  0.00  0.00    +0.004 A 
ATOM     30  C   LIG    1        5.191  -5.803  -6.320  0.00  0.00    +0.045 A 
ATOM     31  C   LIG    1        4.079  -5.000  -6.531  0.00  0.00    +0.120 A 
ATOM     32  C   LIG    1        4.008  -3.749  -5.935  0.00  0.00    +0.048 A 
BRANCH  31  33
ATOM     33  O   LIG    1        3.061  -5.440  -7.315  0.00  0.00    -0.495 OA
ATOM     34  C   LIG    1        3.200  -6.740  -7.891  0.00  0.00    +0.277 C 
ENDBRANCH  31  33
ENDBRANCH   1  27
TORSDOF 9
