REMARK  Name = ZINC19172199
REMARK                            x       y       z     vdW  Elec       q    Type
REMARK                         _______ _______ _______ _____ _____    ______ ____
ROOT
ATOM      1  C   LIG    1        2.457   3.933   0.000  0.00  0.00    +0.157 C 
ENDROOT
BRANCH   1   6
ATOM      2  C   LIG    1       -1.236   3.137   0.030  0.00  0.00    +0.120 A 
ATOM      3  C   LIG    1       -1.218   1.750   0.017  0.00  0.00    +0.045 A 
ATOM      4  C   LIG    1       -0.013   1.076   0.008  0.00  0.00    +0.004 A 
ATOM      5  C   LIG    1        1.176   1.783   0.000  0.00  0.00    +0.006 A 
ATOM      6  C   LIG    1        1.161   3.165   0.008  0.00  0.00    -0.015 A 
ATOM      7  C   LIG    1       -0.043   3.844   0.023  0.00  0.00    +0.051 A 
BRANCH   2   9
ATOM      8  C   LIG    1       -3.610   3.009   0.051  0.00  0.00    +0.277 C 
ATOM      9  O   LIG    1       -2.421   3.802   0.045  0.00  0.00    -0.495 OA
ENDBRANCH   2   9
ENDBRANCH   1   6
BRANCH   1  10
ATOM     10  O   LIG    1        3.385   3.292  -0.878  0.00  0.00    -0.386 OA
ATOM     11  H   LIG    1        4.393   3.711  -1.014  0.00  0.00    +0.210 HD
ENDBRANCH   1  10
BRANCH   1  12
ATOM     12  C   LIG    1        3.037   3.969   1.416  0.00  0.00    +0.099 C 
BRANCH  12  13
ATOM     13  N   LIG    1        4.237   4.817   1.432  0.00  0.00    -0.367 NA
ATOM     14  H   LIG    1        4.986   4.405   0.740  0.00  0.00    +0.101 HD
BRANCH  13  15
ATOM     15  N   LIG    1        4.816   4.875   2.764  0.00  0.00    +0.387 N 
ATOM     16  H   LIG    1        4.079   5.293   3.466  0.00  0.00    -0.065 HD
ATOM     17  H   LIG    1        5.095   3.861   3.087  0.00  0.00    -0.065 HD
ATOM     18  H   LIG    1        5.710   5.514   2.748  0.00  0.00    -0.065 HD
ENDBRANCH  13  15
ENDBRANCH  12  13
ENDBRANCH   1  12
TORSDOF 6
