REMARK  Name = ZINC26843782
REMARK                            x       y       z     vdW  Elec       q    Type
REMARK                         _______ _______ _______ _____ _____    ______ ____
ROOT
ATOM      1  N   LIG    1        5.428   3.023   0.372  0.00  0.00    +0.383 N 
ATOM      2  H   LIG    1        5.524   2.728   1.427  0.00  0.00    -0.081 HD
ATOM      3  C   LIG    1        6.275   2.134  -0.441  0.00  0.00    -0.074 C 
ATOM      4  C   LIG    1        5.982   0.685  -0.043  0.00  0.00    +0.009 C 
ATOM      5  C   LIG    1        4.497   0.452  -0.032  0.00  0.00    -0.025 C 
ATOM      6  C   LIG    1        3.623   1.435  -0.024  0.00  0.00    -0.042 C 
ATOM      7  C   LIG    1        4.020   2.884  -0.020  0.00  0.00    -0.041 C 
ENDROOT
BRANCH   6   8
ATOM      8  C   LIG    1        2.184   1.100  -0.013  0.00  0.00    +0.074 A 
ATOM      9  C   LIG    1        1.778  -0.207  -0.016  0.00  0.00    +0.076 A 
ATOM     10  S   LIG    1        0.002  -0.004   0.002  0.00  0.00    -0.060 S 
ATOM     11  C   LIG    1       -0.022   1.783   0.012  0.00  0.00    +0.156 A 
ATOM     12  N   LIG    1        1.267   2.066   0.001  0.00  0.00    -0.226 NA
BRANCH  11  13
ATOM     13  N   LIG    1       -1.107   2.644   0.022  0.00  0.00    -0.338 N 
ATOM     14  H   LIG    1       -2.130   2.239   0.025  0.00  0.00    +0.144 HD
ATOM     15  H   LIG    1       -0.946   3.732   0.027  0.00  0.00    +0.144 HD
ENDBRANCH  11  13
ENDBRANCH   6   8
BRANCH   1  16
ATOM     16  C   LIG    1        5.871   4.419   0.259  0.00  0.00    -0.078 C 
BRANCH  16  17
ATOM     17  C   LIG    1        7.249   4.572   0.905  0.00  0.00    -0.019 C 
BRANCH  17  19
ATOM     18  C   LIG    1        9.088   6.178   1.433  0.00  0.00    +0.004 C 
ATOM     19  C   LIG    1        7.710   6.026   0.787  0.00  0.00    -0.005 C 
ENDBRANCH  17  19
ENDBRANCH  16  17
ENDBRANCH   1  16
TORSDOF 5
