REMARK  Name = ZINC40891709
REMARK                            x       y       z     vdW  Elec       q    Type
REMARK                         _______ _______ _______ _____ _____    ______ ____
ROOT
ATOM      1  C   LIG    1        3.695  -0.683  -0.037  0.00  0.00    +0.139 A 
ATOM      2  C   LIG    1        3.687  -2.042  -0.050  0.00  0.00    +0.098 A 
ATOM      3  C   LIG    1        4.915  -2.748  -0.067  0.00  0.00    +0.197 A 
ATOM      4  C   LIG    1        6.153  -1.951  -0.069  0.00  0.00    +0.105 A 
ATOM      5  C   LIG    1        7.412  -2.564  -0.086  0.00  0.00    +0.135 A 
ATOM      6  C   LIG    1        8.551  -1.780  -0.088  0.00  0.00    +0.092 A 
ATOM      7  C   LIG    1        8.445  -0.394  -0.074  0.00  0.00    +0.127 A 
ATOM      8  C   LIG    1        7.202   0.220  -0.057  0.00  0.00    +0.092 A 
ATOM      9  C   LIG    1        6.049  -0.549  -0.055  0.00  0.00    +0.146 A 
ATOM     10  O   LIG    1        4.945  -3.967  -0.079  0.00  0.00    -0.287 OA
ATOM     11  O   LIG    1        4.830   0.032  -0.045  0.00  0.00    -0.454 OA
ENDROOT
BRANCH   1  15
ATOM     12  C   LIG    1       -0.017   1.379   0.010  0.00  0.00    +0.000 A 
ATOM     13  C   LIG    1        1.168   2.094   0.002  0.00  0.00    +0.001 A 
ATOM     14  C   LIG    1        2.377   1.430  -0.013  0.00  0.00    +0.011 A 
ATOM     15  C   LIG    1        2.404   0.034  -0.021  0.00  0.00    +0.017 A 
ATOM     16  C   LIG    1        1.204  -0.681  -0.013  0.00  0.00    +0.011 A 
ATOM     17  C   LIG    1        0.002  -0.004   0.002  0.00  0.00    +0.001 A 
ENDBRANCH   1  15
BRANCH   5  18
ATOM     18  O   LIG    1        7.514  -3.917  -0.099  0.00  0.00    -0.506 OA
ATOM     19  H   LIG    1        7.536  -4.301  -0.986  0.00  0.00    +0.292 HD
ENDBRANCH   5  18
BRANCH   7  20
ATOM     20  O   LIG    1        9.569   0.367  -0.076  0.00  0.00    -0.492 OA
BRANCH  20  21
ATOM     21  C   LIG    1       10.820  -0.325  -0.093  0.00  0.00    +0.229 C 
BRANCH  21  22
ATOM     22  C   LIG    1       11.964   0.691  -0.093  0.00  0.00    +0.044 C 
BRANCH  22  23
ATOM     23  C   LIG    1       13.303  -0.049  -0.112  0.00  0.00    +0.047 C 
BRANCH  23  24
ATOM     24  C   LIG    1       14.447   0.966  -0.112  0.00  0.00    +0.267 C 
BRANCH  24  25
ATOM     25  O   LIG    1       15.698   0.275  -0.129  0.00  0.00    -0.354 OA
BRANCH  25  26
ATOM     26  N   LIG    1       16.828   1.128  -0.130  0.00  0.00    +0.171 N 
ATOM     27  O   LIG    1       16.679   2.328  -0.117  0.00  0.00    -0.094 OA
BRANCH  26  28
ATOM     28  O   LIG    1       17.941   0.657  -0.144  0.00  0.00    -0.370 OA
ATOM     29  H   LIG    1       18.056  -0.273  -0.154  0.00  0.00    +0.332 HD
ENDBRANCH  26  28
ENDBRANCH  25  26
ENDBRANCH  24  25
ENDBRANCH  23  24
ENDBRANCH  22  23
ENDBRANCH  21  22
ENDBRANCH  20  21
ENDBRANCH   7  20
TORSDOF 10
