REMARK  Name = ZINC32694331
REMARK                            x       y       z     vdW  Elec       q    Type
REMARK                         _______ _______ _______ _____ _____    ______ ____
ROOT
ATOM      1  C   LIG    1       -4.881  -1.560  -4.463  0.00  0.00    +0.128 A 
ATOM      2  C   LIG    1       -4.566  -1.336  -5.794  0.00  0.00    +0.046 A 
ATOM      3  C   LIG    1       -3.310  -0.876  -6.142  0.00  0.00    +0.004 A 
ATOM      4  C   LIG    1       -2.356  -0.635  -5.166  0.00  0.00    +0.001 A 
ATOM      5  C   LIG    1       -2.651  -0.846  -3.837  0.00  0.00    +0.011 A 
ATOM      6  C   LIG    1       -3.918  -1.317  -3.471  0.00  0.00    +0.018 A 
ENDROOT
BRANCH   6   7
ATOM      7  C   LIG    1       -4.239  -1.549  -2.057  0.00  0.00    +0.031 C 
ATOM      8  C   LIG    1       -3.834  -0.660  -1.114  0.00  0.00    +0.077 C 
ATOM      9  C   LIG    1       -3.203   0.664  -1.279  0.00  0.00    +0.258 C 
ATOM     10  N   LIG    1       -2.911   1.323  -0.170  0.00  0.00    -0.255 N 
ATOM     11  C   LIG    1       -3.174   0.806   1.047  0.00  0.00    +0.121 C 
ATOM     12  S   LIG    1       -2.869   1.495   2.584  0.00  0.00    -0.027 S 
ATOM     13  O   LIG    1       -2.963   1.126  -2.379  0.00  0.00    -0.269 OA
ATOM     14  S   LIG    1       -3.921  -0.771   0.668  0.00  0.00    -0.061 S 
BRANCH  10  15
ATOM     15  C   LIG    1       -2.283   2.643  -0.266  0.00  0.00    +0.126 C 
BRANCH  15  16
ATOM     16  C   LIG    1       -3.367   3.721  -0.325  0.00  0.00    +0.140 C 
BRANCH  16  17
ATOM     17  C   LIG    1       -2.721   5.079  -0.424  0.00  0.00    +0.306 C 
ATOM     18  O   LIG    1       -1.517   5.175  -0.445  0.00  0.00    -0.251 OA
BRANCH  17  19
ATOM     19  O   LIG    1       -3.483   6.182  -0.488  0.00  0.00    -0.481 OA
ATOM     20  H   LIG    1       -4.417   6.108  -0.472  0.00  0.00    +0.295 HD
ENDBRANCH  17  19
ENDBRANCH  16  17
ENDBRANCH  15  16
ENDBRANCH  10  15
ENDBRANCH   6   7
BRANCH   1  21
ATOM     21  O   LIG    1       -6.114  -2.011  -4.121  0.00  0.00    -0.487 OA
BRANCH  21  22
ATOM     22  C   LIG    1       -7.042  -2.236  -5.185  0.00  0.00    +0.264 C 
BRANCH  22  27
ATOM     23  C   LIG    1      -12.045  -4.139  -3.009  0.00  0.00    +0.044 C 
ATOM     24  C   LIG    1      -10.741  -3.642  -3.577  0.00  0.00    -0.050 A 
ATOM     25  C   LIG    1      -10.528  -2.286  -3.738  0.00  0.00    +0.004 A 
ATOM     26  C   LIG    1       -9.331  -1.831  -4.259  0.00  0.00    +0.007 A 
ATOM     27  C   LIG    1       -8.346  -2.732  -4.618  0.00  0.00    -0.010 A 
ATOM     28  C   LIG    1       -8.561  -4.089  -4.462  0.00  0.00    +0.007 A 
ATOM     29  C   LIG    1       -9.756  -4.544  -3.937  0.00  0.00    +0.004 A 
ENDBRANCH  22  27
ENDBRANCH  21  22
ENDBRANCH   1  21
TORSDOF 8
