REMARK  Name = ZINC26579027
REMARK                            x       y       z     vdW  Elec       q    Type
REMARK                         _______ _______ _______ _____ _____    ______ ____
ROOT
ATOM      1  C   LIG    1        0.845  -0.448  -1.202  0.00  0.00    +0.012 C 
ATOM      2  C   LIG    1        0.110   0.043   0.047  0.00  0.00    -0.022 C 
ATOM      3  C   LIG    1       -0.278   1.511  -0.138  0.00  0.00    +0.007 C 
ATOM      4  C   LIG    1        0.985   2.342  -0.374  0.00  0.00    +0.002 C 
ATOM      5  C   LIG    1        1.923   2.201   0.825  0.00  0.00    +0.018 C 
ATOM      6  C   LIG    1        2.302   0.731   1.013  0.00  0.00    +0.068 C 
ATOM      7  C   LIG    1        3.242   0.593   2.212  0.00  0.00    +0.023 C 
ATOM      8  C   LIG    1       -1.145  -0.804   0.263  0.00  0.00    +0.021 C 
ATOM      9  C   LIG    1       -1.774  -0.416   1.583  0.00  0.00    -0.073 C 
ATOM     10  C   LIG    1       -3.045  -0.109   1.658  0.00  0.00    +0.008 C 
ATOM     11  C   LIG    1       -0.893  -0.391   2.813  0.00  0.00    +0.031 C 
ATOM     12  C   LIG    1        0.345   0.456   2.505  0.00  0.00    +0.009 C 
ATOM     13  C   LIG    1        1.031  -0.089   1.261  0.00  0.00    +0.012 C 
ENDROOT
BRANCH   6  14
ATOM     14  C   LIG    1        2.992   0.227  -0.229  0.00  0.00    +0.313 C 
ATOM     15  O   LIG    1        3.276   0.995  -1.116  0.00  0.00    -0.250 OA
BRANCH  14  16
ATOM     16  O   LIG    1        3.290  -1.077  -0.348  0.00  0.00    -0.468 OA
ATOM     17  C   LIG    1        3.955  -1.492  -1.571  0.00  0.00    +0.280 C 
ENDBRANCH  14  16
ENDBRANCH   6  14
BRANCH   8  18
ATOM     18  C   LIG    1       -0.766  -2.286   0.288  0.00  0.00    +0.013 C 
BRANCH  18  19
ATOM     19  C   LIG    1       -2.035  -3.136   0.379  0.00  0.00    +0.043 C 
BRANCH  19  20
ATOM     20  C   LIG    1       -1.661  -4.596   0.405  0.00  0.00    +0.036 C 
ATOM     21  C   LIG    1       -1.502  -5.328   1.504  0.00  0.00    +0.024 C 
ATOM     22  C   LIG    1       -1.135  -6.723   1.054  0.00  0.00    +0.260 C 
ATOM     23  O   LIG    1       -1.101  -6.680  -0.401  0.00  0.00    -0.457 OA
ATOM     24  C   LIG    1       -1.411  -5.425  -0.777  0.00  0.00    +0.335 C 
ATOM     25  O   LIG    1       -1.474  -5.037  -1.927  0.00  0.00    -0.245 OA
ENDBRANCH  19  20
ENDBRANCH  18  19
ENDBRANCH   8  18
TORSDOF 5
