REMARK  Name = ZINC45262037
REMARK                            x       y       z     vdW  Elec       q    Type
REMARK                         _______ _______ _______ _____ _____    ______ ____
ROOT
ATOM      1  C   LIG    1       -0.301   1.504   0.625  0.00  0.00    +0.012 C 
ATOM      2  C   LIG    1       -0.231  -0.027   0.503  0.00  0.00    -0.019 C 
ATOM      3  C   LIG    1        0.019  -0.390  -0.957  0.00  0.00    +0.008 C 
ATOM      4  C   LIG    1        1.432   0.042  -1.377  0.00  0.00    +0.005 C 
ATOM      5  C   LIG    1        2.436  -0.729  -0.520  0.00  0.00    +0.007 C 
ATOM      6  C   LIG    1        2.292  -0.320   0.943  0.00  0.00    -0.021 C 
ATOM      7  C   LIG    1        2.752   1.114   1.177  0.00  0.00    +0.012 C 
ATOM      8  C   LIG    1        3.191  -1.253   1.795  0.00  0.00    +0.045 C 
ATOM      9  C   LIG    1        4.599  -1.102   1.280  0.00  0.00    -0.006 A 
ATOM     10  C   LIG    1        5.797  -1.222   1.976  0.00  0.00    +0.138 A 
ATOM     11  N   LIG    1        6.776  -1.003   1.132  0.00  0.00    -0.182 NA
ATOM     12  N   LIG    1        6.220  -0.734  -0.129  0.00  0.00    -0.281 N 
ATOM     13  H   LIG    1        6.718  -0.534  -0.936  0.00  0.00    +0.189 HD
ATOM     14  C   LIG    1        4.883  -0.805  -0.013  0.00  0.00    +0.045 A 
ATOM     15  C   LIG    1        3.844  -0.611  -1.086  0.00  0.00    +0.010 C 
ATOM     16  C   LIG    1        4.077   0.731  -1.782  0.00  0.00    +0.018 C 
ATOM     17  C   LIG    1        4.046  -1.726  -2.133  0.00  0.00    +0.018 C 
ATOM     18  C   LIG    1       -1.589  -0.585   0.953  0.00  0.00    -0.005 C 
ATOM     19  C   LIG    1       -1.596  -2.089   0.648  0.00  0.00    +0.016 C 
ATOM     20  C   LIG    1       -2.724   0.043   0.155  0.00  0.00    +0.012 C 
ATOM     21  C   LIG    1       -4.089  -0.253   0.775  0.00  0.00    +0.019 C 
ATOM     22  C   LIG    1       -4.149   0.246   2.214  0.00  0.00    +0.074 C 
ATOM     23  C   LIG    1       -3.147  -0.527   3.067  0.00  0.00    +0.033 C 
ATOM     24  C   LIG    1       -3.549  -1.989   3.201  0.00  0.00    +0.015 C 
ATOM     25  C   LIG    1       -4.956  -2.127   3.784  0.00  0.00    -0.034 C 
ATOM     26  C   LIG    1       -4.993  -1.600   5.217  0.00  0.00    +0.011 C 
ATOM     27  C   LIG    1       -5.338  -3.615   3.797  0.00  0.00    +0.011 C 
ATOM     28  C   LIG    1       -5.952  -1.371   2.908  0.00  0.00    +0.007 C 
ATOM     29  C   LIG    1       -5.561   0.095   2.776  0.00  0.00    +0.019 C 
ATOM     30  C   LIG    1       -1.772  -0.422   2.431  0.00  0.00    -0.063 C 
ATOM     31  C   LIG    1       -0.778  -0.186   3.248  0.00  0.00    -0.026 C 
ATOM     32  C   LIG    1        0.655  -0.034   2.834  0.00  0.00    +0.031 C 
ATOM     33  C   LIG    1        0.859  -0.564   1.415  0.00  0.00    +0.006 C 
ENDROOT
BRANCH  22  34
ATOM     34  C   LIG    1       -3.795   1.716   2.255  0.00  0.00    +0.312 C 
ATOM     35  O   LIG    1       -4.468   2.522   1.637  0.00  0.00    -0.250 OA
BRANCH  34  36
ATOM     36  O   LIG    1       -2.836   2.094   2.907  0.00  0.00    -0.480 OA
ATOM     37  H   LIG    1       -2.319   1.474   3.382  0.00  0.00    +0.295 HD
ENDBRANCH  34  36
ENDBRANCH  22  34
TORSDOF 2
