REMARK  Name = ZINC17654909
REMARK                            x       y       z     vdW  Elec       q    Type
REMARK                         _______ _______ _______ _____ _____    ______ ____
ROOT
ATOM      1  N   LIG    1       -0.870  -5.119  -0.402  0.00  0.00    -0.291 NA
ATOM      2  C   LIG    1       -1.857  -4.753  -1.427  0.00  0.00    +0.104 C 
ATOM      3  C   LIG    1       -3.268  -5.003  -0.885  0.00  0.00    +0.123 C 
ATOM      4  N   LIG    1       -3.348  -6.394  -0.414  0.00  0.00    -0.297 N 
ATOM      5  C   LIG    1       -4.345  -7.206  -0.819  0.00  0.00    +0.247 C 
ATOM      6  O   LIG    1       -5.138  -6.822  -1.653  0.00  0.00    -0.273 OA
ATOM      7  C   LIG    1       -2.312  -6.876   0.512  0.00  0.00    +0.123 C 
ATOM      8  C   LIG    1       -0.938  -6.552  -0.085  0.00  0.00    +0.104 C 
ENDROOT
BRANCH   5   9
ATOM      9  C   LIG    1       -4.474  -8.589  -0.236  0.00  0.00    +0.237 C 
ATOM     10  C   LIG    1       -3.599  -9.597  -1.024  0.00  0.00    +0.185 C 
ATOM     11  C   LIG    1       -4.317 -10.940  -0.740  0.00  0.00    +0.196 C 
ATOM     12  C   LIG    1       -5.741 -10.526  -0.321  0.00  0.00    +0.254 C 
ATOM     13  O   LIG    1       -5.816  -9.092  -0.413  0.00  0.00    -0.339 OA
BRANCH  12  14
ATOM     14  N   LIG    1       -6.722 -11.139  -1.220  0.00  0.00    -0.285 N 
ATOM     15  C   LIG    1       -7.270 -10.566  -2.329  0.00  0.00    +0.203 A 
ATOM     16  N   LIG    1       -8.104 -11.392  -2.891  0.00  0.00    -0.231 NA
ATOM     17  C   LIG    1       -8.144 -12.545  -2.180  0.00  0.00    +0.147 A 
ATOM     18  C   LIG    1       -8.842 -13.758  -2.304  0.00  0.00    +0.147 A 
ATOM     19  N   LIG    1       -8.621 -14.711  -1.405  0.00  0.00    -0.219 NA
ATOM     20  C   LIG    1       -7.776 -14.526  -0.406  0.00  0.00    +0.225 A 
ATOM     21  N   LIG    1       -7.104 -13.405  -0.248  0.00  0.00    -0.216 NA
ATOM     22  C   LIG    1       -7.254 -12.399  -1.103  0.00  0.00    +0.167 A 
BRANCH  18  23
ATOM     23  N   LIG    1       -9.729 -13.961  -3.347  0.00  0.00    -0.341 N 
ATOM     24  H   LIG    1      -10.205 -14.803  -3.422  0.00  0.00    +0.144 HD
ATOM     25  H   LIG    1       -9.874 -13.262  -4.004  0.00  0.00    +0.144 HD
ENDBRANCH  18  23
ENDBRANCH  12  14
BRANCH  10  26
ATOM     26  O   LIG    1       -2.263  -9.616  -0.518  0.00  0.00    -0.386 OA
ATOM     27  H   LIG    1       -1.677 -10.232  -0.979  0.00  0.00    +0.210 HD
ENDBRANCH  10  26
BRANCH  11  28
ATOM     28  O   LIG    1       -3.664 -11.641   0.320  0.00  0.00    -0.385 OA
ATOM     29  H   LIG    1       -2.746 -11.875   0.131  0.00  0.00    +0.210 HD
ENDBRANCH  11  28
ENDBRANCH   5   9
BRANCH   1  30
ATOM     30  C   LIG    1        0.486  -4.734  -0.815  0.00  0.00    +0.180 C 
BRANCH  30  33
ATOM     31  N   LIG    1        1.739  -2.648  -1.255  0.00  0.00    -0.284 N 
ATOM     32  H   LIG    1        2.484  -3.192  -1.556  0.00  0.00    +0.155 HD
ATOM     33  C   LIG    1        0.580  -3.232  -0.893  0.00  0.00    +0.231 C 
ATOM     34  O   LIG    1       -0.387  -2.550  -0.631  0.00  0.00    -0.274 OA
BRANCH  31  42
ATOM     35  C   LIG    1        1.124   0.869  -0.357  0.00  0.00    +0.003 A 
ATOM     36  C   LIG    1        2.115   1.509  -1.074  0.00  0.00    +0.013 A 
ATOM     37  C   LIG    1        2.995   0.767  -1.863  0.00  0.00    +0.043 A 
ATOM     38  C   LIG    1        2.863  -0.622  -1.918  0.00  0.00    +0.003 A 
ATOM     39  C   LIG    1        3.947  -1.119  -2.841  0.00  0.00    +0.142 C 
ATOM     40  N   LIG    1        4.681   0.070  -3.290  0.00  0.00    -0.307 N 
ATOM     41  H   LIG    1        5.439   0.071  -3.895  0.00  0.00    +0.149 HD
ATOM     42  C   LIG    1        1.869  -1.256  -1.197  0.00  0.00    +0.039 A 
ATOM     43  C   LIG    1        4.129   1.157  -2.724  0.00  0.00    +0.245 C 
ATOM     44  O   LIG    1        4.510   2.299  -2.896  0.00  0.00    -0.270 OA
ATOM     45  C   LIG    1        0.997  -0.506  -0.415  0.00  0.00    +0.023 A 
ENDBRANCH  31  42
ENDBRANCH  30  33
ENDBRANCH   1  30
TORSDOF 8
