REMARK  Name = ZINC16946582
REMARK                            x       y       z     vdW  Elec       q    Type
REMARK                         _______ _______ _______ _____ _____    ______ ____
ROOT
ATOM      1  C   LIG    1        0.699  -3.252  -0.021  0.00  0.00    +0.030 C 
ATOM      2  C   LIG    1        1.200  -4.512  -0.136  0.00  0.00    +0.078 C 
ATOM      3  C   LIG    1        0.506  -5.753  -0.257  0.00  0.00    +0.256 C 
ATOM      4  O   LIG    1       -0.711  -5.788  -0.268  0.00  0.00    -0.269 OA
ATOM      5  N   LIG    1        1.217  -6.862  -0.355  0.00  0.00    -0.260 N 
ATOM      6  H   LIG    1        0.769  -7.719  -0.439  0.00  0.00    +0.157 HD
ATOM      7  C   LIG    1        2.596  -6.806  -0.340  0.00  0.00    +0.166 C 
ATOM      8  N   LIG    1        3.464  -7.790  -0.426  0.00  0.00    -0.226 NA
ATOM      9  S   LIG    1        2.903  -5.053  -0.182  0.00  0.00    -0.049 S 
ENDROOT
BRANCH   1  15
ATOM     10  C   LIG    1        0.065   1.185   1.329  0.00  0.00    +0.001 A 
ATOM     11  C   LIG    1        1.246   1.913   1.315  0.00  0.00    +0.002 A 
ATOM     12  C   LIG    1        2.430   1.322   0.933  0.00  0.00    +0.026 A 
ATOM     13  C   LIG    1        2.448  -0.018   0.557  0.00  0.00    +0.047 A 
ATOM     14  C   LIG    1        1.252  -0.753   0.572  0.00  0.00    +0.007 A 
ATOM     15  C   LIG    1        1.607  -2.114   0.128  0.00  0.00    +0.001 A 
ATOM     16  C   LIG    1        2.952  -2.103  -0.115  0.00  0.00    +0.091 A 
ATOM     17  N   LIG    1        3.452  -0.866   0.137  0.00  0.00    -0.360 N 
ATOM     18  H   LIG    1        4.383  -0.614   0.036  0.00  0.00    +0.165 HD
ATOM     19  C   LIG    1        0.062  -0.143   0.960  0.00  0.00    +0.010 A 
ENDBRANCH   1  15
BRANCH   8  20
ATOM     20  C   LIG    1        3.024  -9.080  -0.550  0.00  0.00    +0.069 A 
ATOM     21  C   LIG    1        1.980  -9.546   0.252  0.00  0.00    +0.048 A 
ATOM     22  C   LIG    1        1.541 -10.848   0.121  0.00  0.00    +0.044 A 
ATOM     23 CL   LIG    1        0.244 -11.429   1.118  0.00  0.00    -0.083 Cl
ATOM     24  C   LIG    1        2.133 -11.692  -0.802  0.00  0.00    +0.040 A 
ATOM     25  C   LIG    1        3.169 -11.237  -1.601  0.00  0.00    +0.044 A 
ATOM     26 CL   LIG    1        3.905 -12.303  -2.756  0.00  0.00    -0.083 Cl
ATOM     27  C   LIG    1        3.614  -9.935  -1.484  0.00  0.00    +0.048 A 
ENDBRANCH   8  20
TORSDOF 2
