REMARK  Name = ZINC43201419
REMARK                            x       y       z     vdW  Elec       q    Type
REMARK                         _______ _______ _______ _____ _____    ______ ____
ROOT
ATOM      1  N   LIG    1        1.181  -2.057   0.059  0.00  0.00    -0.327 N 
ATOM      2  C   LIG    1        2.445  -2.780  -0.137  0.00  0.00    +0.124 C 
ATOM      3  C   LIG    1        2.629  -3.768   1.021  0.00  0.00    +0.128 C 
ATOM      4  N   LIG    1        1.388  -4.540   1.181  0.00  0.00    -0.279 N 
ATOM      5  C   LIG    1        1.410  -5.888   1.148  0.00  0.00    +0.341 C 
ATOM      6  N   LIG    1        0.254  -6.580   1.150  0.00  0.00    -0.145 N 
ATOM      7  C   LIG    1        0.114  -7.949   1.246  0.00  0.00    +0.189 A 
ATOM      8  C   LIG    1       -1.270  -8.198   1.207  0.00  0.00    +0.132 A 
ATOM      9  N   LIG    1       -1.901  -7.006   1.092  0.00  0.00    -0.127 NA
ATOM     10  C   LIG    1       -1.726  -9.522   1.285  0.00  0.00    +0.035 A 
ATOM     11  C   LIG    1       -0.800 -10.523   1.397  0.00  0.00    +0.030 A 
ATOM     12  C   LIG    1        0.561 -10.206   1.430  0.00  0.00    +0.073 A 
ATOM     13  N   LIG    1        0.972  -8.949   1.355  0.00  0.00    -0.226 NA
ATOM     14  N   LIG    1       -1.041  -6.049   1.063  0.00  0.00    -0.055 NA
ATOM     15  O   LIG    1        2.472  -6.478   1.116  0.00  0.00    -0.247 OA
ATOM     16  C   LIG    1        0.124  -3.817   1.377  0.00  0.00    +0.128 C 
ATOM     17  C   LIG    1       -0.059  -2.829   0.224  0.00  0.00    +0.124 C 
ENDROOT
BRANCH  12  18
ATOM     18  C   LIG    1        1.560 -11.294   1.552  0.00  0.00    +0.001 A 
ATOM     19  C   LIG    1        1.143 -12.622   1.627  0.00  0.00    +0.011 A 
ATOM     20  C   LIG    1        2.077 -13.631   1.741  0.00  0.00    +0.020 A 
ATOM     21  C   LIG    1        3.427 -13.327   1.780  0.00  0.00    +0.041 A 
ATOM     22 CL   LIG    1        4.597 -14.601   1.924  0.00  0.00    -0.084 Cl
ATOM     23  C   LIG    1        3.847 -12.010   1.706  0.00  0.00    +0.020 A 
ATOM     24  C   LIG    1        2.921 -10.994   1.587  0.00  0.00    +0.011 A 
ENDBRANCH  12  18
BRANCH   1  29
ATOM     25  C   LIG    1        2.322   1.436   0.081  0.00  0.00    +0.002 A 
ATOM     26  C   LIG    1        1.114   2.105   0.161  0.00  0.00    +0.012 A 
ATOM     27  C   LIG    1       -0.071   1.395   0.207  0.00  0.00    +0.057 A 
ATOM     28  C   LIG    1       -0.053   0.014   0.173  0.00  0.00    +0.035 A 
ATOM     29  C   LIG    1        1.158  -0.661   0.093  0.00  0.00    +0.030 A 
ATOM     30  C   LIG    1        2.348   0.056   0.047  0.00  0.00    +0.023 A 
BRANCH  27  31
ATOM     31  C   LIG    1       -1.385   2.128   0.294  0.00  0.00    +0.417 C 
ATOM     32  F   LIG    1       -2.052   1.752   1.465  0.00  0.00    -0.166 F 
ATOM     33  F   LIG    1       -2.174   1.807  -0.816  0.00  0.00    -0.166 F 
ATOM     34  F   LIG    1       -1.149   3.507   0.315  0.00  0.00    -0.166 F 
ENDBRANCH  27  31
ENDBRANCH   1  29
TORSDOF 3
