REMARK  Name = ZINC22064449
REMARK                            x       y       z     vdW  Elec       q    Type
REMARK                         _______ _______ _______ _____ _____    ______ ____
ROOT
ATOM      1  N   LIG    1       -0.721   1.572  -1.189  0.00  0.00    -0.294 NA
ATOM      2  C   LIG    1       -0.013   1.086   0.008  0.00  0.00    +0.113 C 
ATOM      3  C   LIG    1       -0.724   1.577   1.270  0.00  0.00    +0.176 C 
ATOM      4  O   LIG    1       -0.846   3.005   1.240  0.00  0.00    -0.369 OA
ATOM      5  C   LIG    1       -1.550   3.471   0.091  0.00  0.00    +0.166 C 
ATOM      6  C   LIG    1       -1.706   4.963   0.111  0.00  0.00    -0.011 A 
ATOM      7  C   LIG    1       -1.940   5.585   1.328  0.00  0.00    +0.052 A 
ATOM      8  C   LIG    1       -2.103   6.959   1.395  0.00  0.00    +0.117 A 
ATOM      9  C   LIG    1       -2.030   7.715   0.234  0.00  0.00    +0.045 A 
ATOM     10  C   LIG    1       -1.792   7.094  -0.973  0.00  0.00    +0.007 A 
ATOM     11  C   LIG    1       -1.623   5.716  -1.042  0.00  0.00    -0.041 A 
ATOM     12  C   LIG    1       -1.339   5.115  -2.393  0.00  0.00    +0.037 C 
ATOM     13  C   LIG    1       -1.541   3.580  -2.381  0.00  0.00    +0.026 C 
ATOM     14  C   LIG    1       -0.794   3.036  -1.165  0.00  0.00    +0.090 C 
ENDROOT
BRANCH   8  15
ATOM     15  O   LIG    1       -2.333   7.562   2.591  0.00  0.00    -0.507 OA
ATOM     16  H   LIG    1       -2.461   8.654   2.640  0.00  0.00    +0.292 HD
ENDBRANCH   8  15
BRANCH   1  17
ATOM     17  C   LIG    1       -0.068   1.097  -2.416  0.00  0.00    +0.084 C 
BRANCH  17  19
ATOM     18  C   LIG    1        0.481  -0.919  -3.786  0.00  0.00    +0.005 C 
ATOM     19  C   LIG    1       -0.200  -0.425  -2.508  0.00  0.00    +0.012 C 
ENDBRANCH  17  19
ENDBRANCH   1  17
TORSDOF 3
