REMARK  Name = ZINC26403974
REMARK                            x       y       z     vdW  Elec       q    Type
REMARK                         _______ _______ _______ _____ _____    ______ ____
ROOT
ATOM      1  N   LIG    1        1.500  -6.688  -2.527  0.00  0.00    -0.078 NA
ATOM      2  C   LIG    1        1.518  -7.994  -2.534  0.00  0.00    +0.162 C 
ENDROOT
BRANCH   2   3
ATOM      3  C   LIG    1        0.902  -8.743  -1.430  0.00  0.00    +0.021 A 
ATOM      4  C   LIG    1        0.848 -10.097  -1.296  0.00  0.00    +0.093 A 
ATOM      5  N   LIG    1        0.197 -10.418  -0.141  0.00  0.00    -0.360 N 
ATOM      6  C   LIG    1       -0.197  -9.272   0.520  0.00  0.00    +0.047 A 
ATOM      7  C   LIG    1       -0.877  -9.049   1.713  0.00  0.00    +0.030 A 
ATOM      8  C   LIG    1       -1.122  -7.762   2.136  0.00  0.00    +0.047 A 
ATOM      9  C   LIG    1       -0.704  -6.675   1.375  0.00  0.00    +0.121 A 
ATOM     10  C   LIG    1       -0.030  -6.877   0.185  0.00  0.00    +0.056 A 
ATOM     11  H   LIG    1        0.034 -11.322   0.171  0.00  0.00    +0.165 HD
ATOM     12  C   LIG    1        0.229  -8.176  -0.248  0.00  0.00    +0.012 A 
BRANCH   9  13
ATOM     13  O   LIG    1       -0.959  -5.409   1.802  0.00  0.00    -0.495 OA
ATOM     14  C   LIG    1       -1.659  -5.272   3.040  0.00  0.00    +0.277 C 
ENDBRANCH   9  13
ENDBRANCH   2   3
BRANCH   1  16
ATOM     15  C   LIG    1        2.070  -4.659  -3.572  0.00  0.00    +0.406 C 
ATOM     16  N   LIG    1        2.087  -5.974  -3.579  0.00  0.00    +0.044 NA
BRANCH  15  17
ATOM     17  N   LIG    1        2.645  -3.958  -4.605  0.00  0.00    -0.287 N 
ATOM     18  H   LIG    1        3.065  -4.434  -5.339  0.00  0.00    +0.255 HD
ATOM     19  H   LIG    1        2.632  -2.988  -4.599  0.00  0.00    +0.255 HD
ENDBRANCH  15  17
BRANCH  15  20
ATOM     20  N   LIG    1        1.475  -3.986  -2.532  0.00  0.00    -0.274 N 
ATOM     21  H   LIG    1        1.069  -4.480  -1.803  0.00  0.00    +0.258 HD
BRANCH  20  22
ATOM     22  C   LIG    1        1.455  -2.521  -2.524  0.00  0.00    +0.196 C 
BRANCH  22  23
ATOM     23  C   LIG    1        0.739  -2.027  -1.265  0.00  0.00    +0.037 C 
BRANCH  23  24
ATOM     24  C   LIG    1        0.718  -0.497  -1.257  0.00  0.00    +0.003 C 
BRANCH  24  26
ATOM     25  C   LIG    1       -0.019   1.526   0.010  0.00  0.00    +0.004 C 
ATOM     26  C   LIG    1        0.002  -0.004   0.002  0.00  0.00    -0.003 C 
ENDBRANCH  24  26
ENDBRANCH  23  24
ENDBRANCH  22  23
ENDBRANCH  20  22
ENDBRANCH  15  20
ENDBRANCH   1  16
TORSDOF 9
