REMARK  Name = ZINC49745945
REMARK                            x       y       z     vdW  Elec       q    Type
REMARK                         _______ _______ _______ _____ _____    ______ ____
ROOT
ATOM      1  C   LIG    1       -2.756  -1.268  -4.800  0.00  0.00    +0.019 A 
ATOM      2  C   LIG    1       -3.151  -1.708  -6.064  0.00  0.00    +0.013 A 
ATOM      3  C   LIG    1       -4.452  -1.524  -6.480  0.00  0.00    +0.024 A 
ATOM      4  C   LIG    1       -5.370  -0.900  -5.642  0.00  0.00    +0.035 A 
ATOM      5  C   LIG    1       -4.978  -0.461  -4.383  0.00  0.00    +0.024 A 
ATOM      6  C   LIG    1       -3.680  -0.648  -3.959  0.00  0.00    +0.013 A 
ENDROOT
BRANCH   1  13
ATOM      7  N   LIG    1        0.895  -0.889  -1.549  0.00  0.00    -0.227 N 
ATOM      8  C   LIG    1        0.235  -1.203  -2.705  0.00  0.00    +0.184 A 
ATOM      9  C   LIG    1        1.183  -1.826  -3.537  0.00  0.00    +0.171 A 
ATOM     10  N   LIG    1        2.350  -1.866  -2.873  0.00  0.00    -0.124 NA
ATOM     11  C   LIG    1        0.765  -2.258  -4.814  0.00  0.00    +0.155 A 
ATOM     12  N   LIG    1       -0.497  -2.059  -5.170  0.00  0.00    -0.210 NA
ATOM     13  C   LIG    1       -1.358  -1.465  -4.350  0.00  0.00    +0.164 A 
ATOM     14  N   LIG    1       -1.009  -1.044  -3.144  0.00  0.00    -0.206 NA
ATOM     15  N   LIG    1        2.219  -1.324  -1.713  0.00  0.00    -0.063 NA
BRANCH  11  16
ATOM     16  N   LIG    1        1.652  -2.877  -5.674  0.00  0.00    -0.309 N 
ATOM     17  C   LIG    1        3.077  -3.003  -5.331  0.00  0.00    +0.134 C 
ATOM     18  C   LIG    1        3.493  -4.466  -5.524  0.00  0.00    +0.178 C 
ATOM     19  O   LIG    1        3.115  -4.894  -6.834  0.00  0.00    -0.377 OA
ATOM     20  C   LIG    1        1.706  -4.870  -7.074  0.00  0.00    +0.178 C 
ATOM     21  C   LIG    1        1.198  -3.433  -6.959  0.00  0.00    +0.134 C 
ENDBRANCH  11  16
BRANCH   7  23
ATOM     22  C   LIG    1        0.487   1.290  -0.518  0.00  0.00    +0.029 C 
ATOM     23  C   LIG    1        0.331  -0.225  -0.372  0.00  0.00    +0.144 C 
ENDBRANCH   7  23
ENDBRANCH   1  13
BRANCH   4  24
ATOM     24  N   LIG    1       -6.688  -0.715  -6.066  0.00  0.00    -0.269 N 
ATOM     25  H   LIG    1       -6.874  -0.516  -6.997  0.00  0.00    +0.156 HD
ATOM     26  C   LIG    1       -7.700  -0.813  -5.183  0.00  0.00    +0.308 C 
ATOM     27  N   LIG    1       -8.976  -0.728  -5.608  0.00  0.00    -0.269 N 
ATOM     28  H   LIG    1       -9.165  -0.528  -6.538  0.00  0.00    +0.156 HD
ATOM     29  O   LIG    1       -7.463  -0.978  -4.002  0.00  0.00    -0.252 OA
BRANCH  27  30
ATOM     30  C   LIG    1      -10.025  -0.928  -4.711  0.00  0.00    +0.035 A 
ATOM     31  C   LIG    1       -9.907  -0.486  -3.396  0.00  0.00    +0.024 A 
ATOM     32  C   LIG    1      -10.941  -0.682  -2.508  0.00  0.00    +0.015 A 
ATOM     33  C   LIG    1      -12.109  -1.324  -2.928  0.00  0.00    +0.037 A 
ATOM     34  C   LIG    1      -12.223  -1.766  -4.249  0.00  0.00    +0.015 A 
ATOM     35  C   LIG    1      -11.189  -1.562  -5.133  0.00  0.00    +0.024 A 
BRANCH  33  36
ATOM     36  C   LIG    1      -13.218  -1.536  -1.978  0.00  0.00    +0.247 C 
ATOM     37  N   LIG    1      -13.914  -2.691  -2.001  0.00  0.00    -0.295 N 
ATOM     38  C   LIG    1      -13.504  -3.801  -2.873  0.00  0.00    +0.123 C 
ATOM     39  C   LIG    1      -13.414  -5.077  -2.028  0.00  0.00    +0.103 C 
ATOM     40  N   LIG    1      -14.684  -5.280  -1.317  0.00  0.00    -0.302 NA
ATOM     41  C   LIG    1      -14.701  -6.579  -0.632  0.00  0.00    +0.105 C 
ATOM     42  C   LIG    1      -14.949  -4.184  -0.376  0.00  0.00    +0.103 C 
ATOM     43  C   LIG    1      -15.098  -2.875  -1.149  0.00  0.00    +0.123 C 
ATOM     44  O   LIG    1      -13.505  -0.669  -1.175  0.00  0.00    -0.270 OA
ENDBRANCH  33  36
ENDBRANCH  27  30
ENDBRANCH   4  24
TORSDOF 6
