REMARK  Name = ZINC20148981
REMARK                            x       y       z     vdW  Elec       q    Type
REMARK                         _______ _______ _______ _____ _____    ______ ____
ROOT
ATOM      1  C   LIG    1        7.983   4.014  -1.475  0.00  0.00    +0.120 A 
ATOM      2  C   LIG    1        7.451   4.804  -0.473  0.00  0.00    +0.055 A 
ATOM      3  C   LIG    1        7.111   6.129  -0.775  0.00  0.00    +0.027 A 
ATOM      4  C   LIG    1        7.326   6.603  -2.093  0.00  0.00    +0.091 A 
ATOM      5  N   LIG    1        7.011   7.864  -2.415  0.00  0.00    -0.252 NA
ATOM      6  C   LIG    1        6.502   8.694  -1.541  0.00  0.00    +0.132 A 
ATOM      7  C   LIG    1        6.254   8.309  -0.212  0.00  0.00    +0.091 A 
ATOM      8  C   LIG    1        7.872   5.722  -3.039  0.00  0.00    +0.141 A 
ATOM      9  C   LIG    1        6.561   7.002   0.193  0.00  0.00    +0.060 A 
ATOM     10  N   LIG    1        8.178   4.491  -2.700  0.00  0.00    -0.238 NA
ENDROOT
BRANCH   1  11
ATOM     11  N   LIG    1        8.328   2.694  -1.194  0.00  0.00    -0.325 N 
ATOM     12  H   LIG    1        8.702   2.131  -1.890  0.00  0.00    +0.148 HD
BRANCH  11  13
ATOM     13  C   LIG    1        8.125   2.156   0.154  0.00  0.00    +0.139 C 
BRANCH  13  16
ATOM     14  C   LIG    1       10.254  -0.935   0.542  0.00  0.00    +0.020 A 
ATOM     15  C   LIG    1        9.885   0.401   0.518  0.00  0.00    +0.008 A 
ATOM     16  C   LIG    1        8.575   0.718   0.193  0.00  0.00    -0.012 A 
ATOM     17  C   LIG    1        7.687  -0.301  -0.094  0.00  0.00    +0.115 A 
ATOM     18  N   LIG    1        8.073  -1.562  -0.061  0.00  0.00    -0.263 NA
ATOM     19  C   LIG    1        9.312  -1.900   0.238  0.00  0.00    +0.111 A 
ENDBRANCH  13  16
ENDBRANCH  11  13
ENDBRANCH   1  11
BRANCH   7  20
ATOM     20  C   LIG    1        5.694   9.242   0.719  0.00  0.00    +0.103 C 
ATOM     21  N   LIG    1        5.250   9.982   1.458  0.00  0.00    -0.191 NA
ENDBRANCH   7  20
BRANCH   9  22
ATOM     22  N   LIG    1        6.333   6.583   1.487  0.00  0.00    -0.313 N 
ATOM     23  H   LIG    1        5.481   6.185   1.726  0.00  0.00    +0.152 HD
BRANCH  22  24
ATOM     24  C   LIG    1        7.332   6.730   2.455  0.00  0.00    +0.033 A 
ATOM     25  C   LIG    1        8.594   7.180   2.090  0.00  0.00    +0.026 A 
ATOM     26  C   LIG    1        9.578   7.330   3.048  0.00  0.00    +0.041 A 
ATOM     27  C   LIG    1        9.309   7.022   4.371  0.00  0.00    +0.142 A 
ATOM     28  F   LIG    1       10.274   7.165   5.306  0.00  0.00    -0.204 F 
ATOM     29  C   LIG    1        8.053   6.568   4.738  0.00  0.00    +0.078 A 
ATOM     30 CL   LIG    1        7.719   6.184   6.397  0.00  0.00    -0.081 Cl
ATOM     31  C   LIG    1        7.064   6.422   3.783  0.00  0.00    +0.046 A 
ENDBRANCH  22  24
ENDBRANCH   9  22
TORSDOF 6
