REMARK  Name = ZINC15834309
REMARK                            x       y       z     vdW  Elec       q    Type
REMARK                         _______ _______ _______ _____ _____    ______ ____
ROOT
ATOM      1  C   LIG    1       -0.011   1.357   0.162  0.00  0.00    +0.069 A 
ATOM      2  C   LIG    1        1.289   1.788   0.071  0.00  0.00    +0.089 A 
ATOM      3  C   LIG    1        2.138   0.571   0.053  0.00  0.00    +0.082 A 
ATOM      4  N   LIG    1        3.530   0.719  -0.034  0.00  0.00    -0.294 N 
ATOM      5  C   LIG    1        4.421  -0.444  -0.053  0.00  0.00    +0.154 C 
ATOM      6  C   LIG    1        4.016   1.978  -0.099  0.00  0.00    +0.332 A 
ATOM      7  N   LIG    1        3.282   3.095  -0.087  0.00  0.00    -0.263 N 
ATOM      8  C   LIG    1        3.980   4.381  -0.167  0.00  0.00    +0.157 C 
ATOM      9  O   LIG    1        5.223   2.106  -0.175  0.00  0.00    -0.246 OA
ATOM     10  C   LIG    1        1.316  -0.466   0.124  0.00  0.00    +0.073 A 
ATOM     11  C   LIG    1        1.632  -1.946   0.112  0.00  0.00    +0.150 C 
ATOM     12  N   LIG    1        0.526  -2.650   0.780  0.00  0.00    -0.330 N 
ATOM     13  H   LIG    1        0.714  -3.403   1.362  0.00  0.00    +0.147 HD
ATOM     14  C   LIG    1       -0.794  -2.234   0.578  0.00  0.00    +0.052 A 
ATOM     15  C   LIG    1       -1.838  -3.144   0.652  0.00  0.00    +0.025 A 
ATOM     16  C   LIG    1       -3.140  -2.716   0.469  0.00  0.00    +0.002 A 
ATOM     17  C   LIG    1       -3.409  -1.383   0.213  0.00  0.00    +0.002 A 
ATOM     18  C   LIG    1       -2.374  -0.469   0.129  0.00  0.00    +0.028 A 
ATOM     19  C   LIG    1       -1.070  -0.891   0.303  0.00  0.00    +0.068 A 
ATOM     20  C   LIG    1        1.926   3.107  -0.005  0.00  0.00    +0.266 A 
ATOM     21  O   LIG    1        1.285   4.141   0.004  0.00  0.00    -0.267 OA
ATOM     22  N   LIG    1        0.010  -0.002   0.206  0.00  0.00    -0.306 N 
ENDROOT
BRANCH   1  29
ATOM     23  C   LIG    1       -1.306   2.113  -2.312  0.00  0.00    +0.044 C 
ATOM     24  C   LIG    1       -1.847   2.584  -0.987  0.00  0.00    -0.041 A 
ATOM     25  C   LIG    1       -2.973   3.381  -0.944  0.00  0.00    +0.004 A 
ATOM     26  C   LIG    1       -3.468   3.819   0.271  0.00  0.00    +0.000 A 
ATOM     27  C   LIG    1       -2.841   3.459   1.452  0.00  0.00    +0.001 A 
ATOM     28  C   LIG    1       -1.718   2.659   1.424  0.00  0.00    +0.010 A 
ATOM     29  C   LIG    1       -1.213   2.213   0.200  0.00  0.00    +0.003 A 
ENDBRANCH   1  29
BRANCH  11  30
ATOM     30  C   LIG    1        1.759  -2.428  -1.310  0.00  0.00    -0.018 A 
ATOM     31  C   LIG    1        0.624  -2.703  -2.051  0.00  0.00    +0.006 A 
ATOM     32  C   LIG    1        0.737  -3.146  -3.356  0.00  0.00    +0.004 A 
ATOM     33  C   LIG    1        1.985  -3.314  -3.923  0.00  0.00    +0.045 A 
ATOM     34  C   LIG    1        3.125  -3.039  -3.183  0.00  0.00    +0.120 A 
ATOM     35  C   LIG    1        3.009  -2.589  -1.875  0.00  0.00    +0.051 A 
BRANCH  34  36
ATOM     36  O   LIG    1        4.354  -3.204  -3.739  0.00  0.00    -0.495 OA
ATOM     37  C   LIG    1        4.398  -3.665  -5.091  0.00  0.00    +0.277 C 
ENDBRANCH  34  36
ENDBRANCH  11  30
TORSDOF 3
