REMARK  Name = ZINC14163159
REMARK                            x       y       z     vdW  Elec       q    Type
REMARK                         _______ _______ _______ _____ _____    ______ ____
ROOT
ATOM      1  C   LIG    1        1.157   4.095   1.455  0.00  0.00    -0.004 C 
ENDROOT
BRANCH   1   2
ATOM      2  C   LIG    1        1.151   3.592   0.010  0.00  0.00    +0.034 C 
BRANCH   2   6
ATOM      3  C   LIG    1        1.208  -0.679  -0.013  0.00  0.00    -0.047 A 
ATOM      4  C   LIG    1        0.002  -0.004   0.002  0.00  0.00    +0.004 A 
ATOM      5  C   LIG    1       -0.017   1.378   0.010  0.00  0.00    +0.004 A 
ATOM      6  C   LIG    1        1.171   2.086   0.002  0.00  0.00    -0.047 A 
ATOM      7  C   LIG    1        2.377   1.411  -0.015  0.00  0.00    +0.004 A 
ATOM      8  C   LIG    1        2.396   0.029  -0.021  0.00  0.00    +0.004 A 
BRANCH   3   9
ATOM      9  C   LIG    1        1.229  -2.186  -0.021  0.00  0.00    +0.035 C 
BRANCH   9  10
ATOM     10  C   LIG    1        1.221  -2.689  -1.465  0.00  0.00    +0.005 C 
BRANCH  10  11
ATOM     11  C   LIG    1        1.242  -4.219  -1.473  0.00  0.00    +0.000 C 
BRANCH  11  12
ATOM     12  C   LIG    1        1.235  -4.722  -2.918  0.00  0.00    +0.000 C 
BRANCH  12  13
ATOM     13  C   LIG    1        1.256  -6.252  -2.925  0.00  0.00    -0.000 C 
BRANCH  13  14
ATOM     14  C   LIG    1        1.248  -6.755  -4.370  0.00  0.00    -0.000 C 
BRANCH  14  16
ATOM     15  C   LIG    1        1.261  -8.788  -5.822  0.00  0.00    +0.004 C 
ATOM     16  C   LIG    1        1.269  -8.285  -4.377  0.00  0.00    -0.003 C 
ENDBRANCH  14  16
ENDBRANCH  13  14
ENDBRANCH  12  13
ENDBRANCH  11  12
ENDBRANCH  10  11
ENDBRANCH   9  10
ENDBRANCH   3   9
ENDBRANCH   2   6
ENDBRANCH   1   2
BRANCH   1  17
ATOM     17  C   LIG    1        1.136   5.625   1.463  0.00  0.00    -0.023 C 
BRANCH  17  18
ATOM     18  N   LIG    1       -0.073   6.127   0.787  0.00  0.00    +0.385 N 
ATOM     19  H   LIG    1       -0.084   7.152   0.833  0.00  0.00    -0.089 HD
ATOM     20  H   LIG    1       -0.906   5.764   1.248  0.00  0.00    -0.089 HD
ATOM     21  H   LIG    1       -0.073   5.837  -0.190  0.00  0.00    -0.089 HD
ENDBRANCH  17  18
BRANCH  17  22
ATOM     22  C   LIG    1        1.143   6.128   2.908  0.00  0.00    +0.162 C 
BRANCH  22  23
ATOM     23  O   LIG    1        1.006   7.550   2.918  0.00  0.00    -0.288 OA
BRANCH  23  24
ATOM     24  P   LIG    1        0.974   8.418   4.274  0.00  0.00    +0.472 P 
ATOM     25  O   LIG    1        2.182   8.124   5.077  0.00  0.00    -0.228 OA
BRANCH  24  26
ATOM     26  O   LIG    1        0.942   9.985   3.907  0.00  0.00    -0.303 OA
ATOM     27  H   LIG    1        1.734  10.214   3.395  0.00  0.00    +0.222 HD
ENDBRANCH  24  26
BRANCH  24  28
ATOM     28  O   LIG    1       -0.340   8.039   5.123  0.00  0.00    -0.303 OA
ATOM     29  H   LIG    1       -0.321   7.094   5.344  0.00  0.00    +0.222 HD
ENDBRANCH  24  28
ENDBRANCH  23  24
ENDBRANCH  22  23
ENDBRANCH  17  22
BRANCH  17  30
ATOM     30  C   LIG    1        2.372   6.155   0.733  0.00  0.00    +0.145 C 
BRANCH  30  31
ATOM     31  O   LIG    1        3.551   5.692   1.393  0.00  0.00    -0.396 OA
ATOM     32  H   LIG    1        4.375   5.990   0.983  0.00  0.00    +0.209 HD
ENDBRANCH  30  31
ENDBRANCH  17  30
ENDBRANCH   1  17
TORSDOF 18
