REMARK  Name = ZINC00056648
REMARK                            x       y       z     vdW  Elec       q    Type
REMARK                         _______ _______ _______ _____ _____    ______ ____
ROOT
ATOM      1  C   LIG    1        1.493  -2.445   2.735  0.00  0.00    +0.200 C 
ATOM      2  C   LIG    1        0.731  -2.318   4.056  0.00  0.00    +0.067 C 
ATOM      3  C   LIG    1        2.958  -2.063   2.953  0.00  0.00    +0.067 C 
ENDROOT
BRANCH   1   4
ATOM      4  C   LIG    1        0.880  -1.524   1.711  0.00  0.00    +0.351 C 
ATOM      5  O   LIG    1        0.425  -1.976   0.688  0.00  0.00    -0.246 OA
BRANCH   4   6
ATOM      6  O   LIG    1        0.841  -0.201   1.937  0.00  0.00    -0.462 OA
BRANCH   6   8
ATOM      7  C   LIG    1        0.291   2.079   1.355  0.00  0.00    +0.048 C 
ATOM      8  C   LIG    1        0.246   0.612   0.924  0.00  0.00    +0.229 C 
ENDBRANCH   6   8
ENDBRANCH   4   6
ENDBRANCH   1   4
BRANCH   1   9
ATOM      9  O   LIG    1        1.416  -3.793   2.269  0.00  0.00    -0.475 OA
BRANCH   9  10
ATOM     10  C   LIG    1        0.175  -4.299   2.044  0.00  0.00    +0.122 A 
ATOM     11  C   LIG    1       -0.938  -3.477   2.144  0.00  0.00    +0.047 A 
ATOM     12  C   LIG    1       -2.199  -3.993   1.915  0.00  0.00    +0.023 A 
ATOM     13  C   LIG    1       -2.352  -5.329   1.587  0.00  0.00    +0.041 A 
ATOM     14 CL   LIG    1       -3.938  -5.975   1.301  0.00  0.00    -0.084 Cl
ATOM     15  C   LIG    1       -1.243  -6.150   1.488  0.00  0.00    +0.023 A 
ATOM     16  C   LIG    1        0.020  -5.636   1.709  0.00  0.00    +0.047 A 
ENDBRANCH   9  10
ENDBRANCH   1   9
TORSDOF 5
