REMARK  Name = ZINC29046873
REMARK                            x       y       z     vdW  Elec       q    Type
REMARK                         _______ _______ _______ _____ _____    ______ ____
ROOT
ATOM      1  N   LIG    1        2.752   8.120   0.018  0.00  0.00    -0.277 N 
ATOM      2  H   LIG    1        1.907   7.665  -0.518  0.00  0.00    +0.155 HD
ATOM      3  C   LIG    1        3.693   7.338   0.583  0.00  0.00    +0.267 C 
ATOM      4  O   LIG    1        4.669   7.841   1.106  0.00  0.00    -0.268 OA
ENDROOT
BRANCH   1  10
ATOM      5  C   LIG    1        1.698  10.291   0.220  0.00  0.00    +0.143 A 
ATOM      6  C   LIG    1        1.798  11.669   0.320  0.00  0.00    +0.070 A 
ATOM      7  C   LIG    1        3.047  12.276   0.305  0.00  0.00    +0.033 A 
ATOM      8  C   LIG    1        4.195  11.502   0.194  0.00  0.00    +0.025 A 
ATOM      9  C   LIG    1        4.097  10.127   0.100  0.00  0.00    +0.029 A 
ATOM     10  C   LIG    1        2.851   9.517   0.115  0.00  0.00    +0.076 A 
BRANCH   7  11
ATOM     11  N   LIG    1        3.149  13.668   0.400  0.00  0.00    -0.325 N 
ATOM     12  C   LIG    1        2.375  14.326  -0.663  0.00  0.00    +0.133 C 
ATOM     13  C   LIG    1        2.466  15.844  -0.486  0.00  0.00    +0.178 C 
ATOM     14  O   LIG    1        3.840  16.239  -0.492  0.00  0.00    -0.377 OA
ATOM     15  C   LIG    1        4.623  15.617   0.530  0.00  0.00    +0.178 C 
ATOM     16  C   LIG    1        4.554  14.097   0.363  0.00  0.00    +0.133 C 
ENDBRANCH   7  11
BRANCH   5  18
ATOM     17  C   LIG    1       -0.663  10.551   0.341  0.00  0.00    +0.277 C 
ATOM     18  O   LIG    1        0.476   9.695   0.230  0.00  0.00    -0.493 OA
ENDBRANCH   5  18
ENDBRANCH   1  10
BRANCH   3  19
ATOM     19  C   LIG    1        3.539   5.873   0.567  0.00  0.00    +0.133 A 
ATOM     20  C   LIG    1        4.491   5.067   1.140  0.00  0.00    +0.080 A 
ATOM     21  S   LIG    1        3.829   3.488   0.852  0.00  0.00    -0.075 S 
ATOM     22  C   LIG    1        2.351   4.002  -0.009  0.00  0.00    +0.111 A 
ATOM     23  N   LIG    1        2.479   5.316   0.000  0.00  0.00    -0.234 NA
BRANCH  22  24
ATOM     24  C   LIG    1        1.266   3.173  -0.577  0.00  0.00    +0.025 A 
ATOM     25  C   LIG    1        1.313   1.778  -0.484  0.00  0.00    +0.013 A 
ATOM     26  C   LIG    1        0.273   1.048  -1.032  0.00  0.00    +0.020 A 
ATOM     27  C   LIG    1       -0.768   1.715  -1.654  0.00  0.00    +0.111 A 
ATOM     28  N   LIG    1       -0.788   3.032  -1.722  0.00  0.00    -0.263 NA
ATOM     29  C   LIG    1        0.178   3.770  -1.215  0.00  0.00    +0.121 A 
ENDBRANCH  22  24
ENDBRANCH   3  19
TORSDOF 5
