REMARK  Name = ZINC28371976
REMARK                            x       y       z     vdW  Elec       q    Type
REMARK                         _______ _______ _______ _____ _____    ______ ____
ROOT
ATOM      1  C   LIG    1       -0.821   2.065  -1.199  0.00  0.00    +0.044 C 
ATOM      2  C   LIG    1       -2.216   2.265  -0.562  0.00  0.00    +0.237 C 
ATOM      3  N   LIG    1       -1.961   2.432   0.874  0.00  0.00    -0.279 N 
ATOM      4  H   LIG    1       -2.646   2.837   1.634  0.00  0.00    +0.303 HD
ATOM      5  C   LIG    1       -0.779   2.040   1.212  0.00  0.00    +0.239 C 
ATOM      6  C   LIG    1       -0.019   1.526   0.010  0.00  0.00    +0.103 C 
ATOM      7  C   LIG    1        0.002  -0.004   0.002  0.00  0.00    +0.020 C 
ENDROOT
BRANCH   5   8
ATOM      8  N   LIG    1       -0.280   2.082   2.487  0.00  0.00    -0.254 N 
ATOM      9  H   LIG    1       -0.899   2.472   3.308  0.00  0.00    +0.288 HD
ATOM     10  H   LIG    1        0.742   1.726   2.690  0.00  0.00    +0.288 HD
ENDBRANCH   5   8
BRANCH   1  12
ATOM     11  C   LIG    1       -0.984   3.829  -2.961  0.00  0.00    +0.004 C 
ATOM     12  C   LIG    1       -0.245   3.393  -1.694  0.00  0.00    +0.005 C 
ENDBRANCH   1  12
TORSDOF 2
