REMARK  Name = ZINC34946707
REMARK                            x       y       z     vdW  Elec       q    Type
REMARK                         _______ _______ _______ _____ _____    ______ ____
ROOT
ATOM      1  C   LIG    1       -3.412  -2.798   1.243  0.00  0.00    +0.030 A 
ATOM      2  C   LIG    1       -2.718  -2.692   2.442  0.00  0.00    +0.023 A 
ATOM      3  C   LIG    1       -3.364  -2.944   3.637  0.00  0.00    +0.009 A 
ATOM      4  C   LIG    1       -4.699  -3.303   3.640  0.00  0.00    +0.002 A 
ATOM      5  C   LIG    1       -5.393  -3.409   2.449  0.00  0.00    +0.009 A 
ATOM      6  C   LIG    1       -4.755  -3.152   1.251  0.00  0.00    +0.023 A 
ENDROOT
BRANCH   1   7
ATOM      7  N   LIG    1       -2.763  -2.543   0.034  0.00  0.00    -0.326 N 
BRANCH   7   8
ATOM      8  C   LIG    1       -1.346  -2.169   0.027  0.00  0.00    +0.105 C 
BRANCH   8   9
ATOM      9  C   LIG    1       -1.220  -0.647   0.121  0.00  0.00    +0.019 C 
BRANCH   9  11
ATOM     10  C   LIG    1        0.386   1.265   0.209  0.00  0.00    +0.004 C 
ATOM     11  C   LIG    1        0.259  -0.257   0.115  0.00  0.00    -0.002 C 
ENDBRANCH   9  11
ENDBRANCH   8   9
ENDBRANCH   7   8
BRANCH   7  12
ATOM     12  C   LIG    1       -3.498  -2.649  -1.229  0.00  0.00    +0.140 C 
BRANCH  12  13
ATOM     13  C   LIG    1       -3.389  -4.057  -1.757  0.00  0.00    -0.027 A 
ATOM     14  C   LIG    1       -2.345  -4.399  -2.596  0.00  0.00    +0.029 A 
ATOM     15  C   LIG    1       -2.242  -5.690  -3.082  0.00  0.00    +0.084 A 
ATOM     16 CL   LIG    1       -0.931  -6.120  -4.136  0.00  0.00    -0.080 Cl
ATOM     17  C   LIG    1       -3.187  -6.641  -2.726  0.00  0.00    +0.153 A 
ATOM     18  C   LIG    1       -4.234  -6.294  -1.883  0.00  0.00    +0.084 A 
ATOM     19 CL   LIG    1       -5.420  -7.481  -1.436  0.00  0.00    -0.080 Cl
ATOM     20  C   LIG    1       -4.329  -5.004  -1.397  0.00  0.00    +0.029 A 
BRANCH  17  21
ATOM     21  O   LIG    1       -3.089  -7.911  -3.202  0.00  0.00    -0.504 OA
ATOM     22  H   LIG    1       -2.571  -8.503  -2.640  0.00  0.00    +0.292 HD
ENDBRANCH  17  21
ENDBRANCH  12  13
ENDBRANCH   7  12
ENDBRANCH   1   7
BRANCH   4  23
ATOM     23  C   LIG    1       -5.400  -3.578   4.946  0.00  0.00    +0.282 C 
BRANCH  23  24
ATOM     24  C   LIG    1       -5.897  -5.025   4.962  0.00  0.00    +0.431 C 
ATOM     25  F   LIG    1       -6.790  -5.223   3.903  0.00  0.00    -0.167 F 
ATOM     26  F   LIG    1       -6.548  -5.281   6.174  0.00  0.00    -0.167 F 
ATOM     27  F   LIG    1       -4.810  -5.894   4.824  0.00  0.00    -0.167 F 
ENDBRANCH  23  24
BRANCH  23  28
ATOM     28  C   LIG    1       -6.590  -2.628   5.096  0.00  0.00    +0.431 C 
ATOM     29  F   LIG    1       -6.152  -1.307   4.957  0.00  0.00    -0.167 F 
ATOM     30  F   LIG    1       -7.165  -2.798   6.360  0.00  0.00    -0.167 F 
ATOM     31  F   LIG    1       -7.540  -2.911   4.109  0.00  0.00    -0.167 F 
ENDBRANCH  23  28
BRANCH  23  32
ATOM     32  O   LIG    1       -4.489  -3.376   6.028  0.00  0.00    -0.369 OA
ATOM     33  H   LIG    1       -3.708  -3.946   5.997  0.00  0.00    +0.211 HD
ENDBRANCH  23  32
ENDBRANCH   4  23
TORSDOF 11
