REMARK  Name = ZINC39058349
REMARK                            x       y       z     vdW  Elec       q    Type
REMARK                         _______ _______ _______ _____ _____    ______ ____
ROOT
ATOM      1  CA  LIG    1        0.049  -1.942   1.446  0.00  0.00    +0.201 C 
ENDROOT
BRANCH   1   2
ATOM      2  N   LIG    1        0.287  -2.867   0.330  0.00  0.00    -0.316 NA
ATOM      3  H1  LIG    1        1.274  -3.045   0.212  0.00  0.00    +0.119 HD
ATOM      4  H2  LIG    1       -0.122  -2.518  -0.523  0.00  0.00    +0.119 HD
ENDBRANCH   1   2
BRANCH   1   5
ATOM      5  C   LIG    1       -1.434  -1.776   1.653  0.00  0.00    +0.325 C 
ATOM      6  O   LIG    1       -2.197  -1.879   0.708  0.00  0.00    -0.249 OA
BRANCH   5   7
ATOM      7  OXT LIG    1       -1.871  -1.540   2.767  0.00  0.00    -0.479 OA
ATOM      8  HXT LIG    1       -1.285  -1.461   3.493  0.00  0.00    +0.295 HD
ENDBRANCH   5   7
ENDBRANCH   1   5
BRANCH   1   9
ATOM      9  C   LIG    1        0.673  -0.582   1.123  0.00  0.00    +0.253 C 
BRANCH   9  11
ATOM     10  C   LIG    1       -0.017   1.425   0.010  0.00  0.00    +0.195 C 
ATOM     11  O   LIG    1        0.002  -0.004   0.002  0.00  0.00    -0.366 OA
ENDBRANCH   9  11
BRANCH   9  12
ATOM     12  C   LIG    1        2.133  -0.765   0.795  0.00  0.00    +0.336 C 
ATOM     13  O   LIG    1        2.538  -0.519  -0.316  0.00  0.00    -0.248 OA
BRANCH  12  14
ATOM     14  O   LIG    1        2.983  -1.201   1.738  0.00  0.00    -0.479 OA
ATOM     15  H   LIG    1        3.897  -1.287   1.434  0.00  0.00    +0.295 HD
ENDBRANCH  12  14
ENDBRANCH   9  12
ENDBRANCH   1   9
TORSDOF 7
