REMARK  Name = ZINC35931798
REMARK                            x       y       z     vdW  Elec       q    Type
REMARK                         _______ _______ _______ _____ _____    ______ ____
ROOT
ATOM      1  C   LIG    1        0.619  -0.600  -1.137  0.00  0.00    +0.018 C 
ENDROOT
BRANCH   1   2
ATOM      2  C   LIG    1        2.063  -0.173  -1.082  0.00  0.00    +0.202 C 
ATOM      3  N   LIG    1        3.042  -1.097  -1.138  0.00  0.00    -0.303 N 
ATOM      4  C   LIG    1        2.845  -2.554  -1.167  0.00  0.00    +0.108 C 
ATOM      5  C   LIG    1        4.243  -3.205  -1.204  0.00  0.00    +0.020 C 
ATOM      6  C   LIG    1        5.159  -2.096  -0.623  0.00  0.00    +0.020 C 
ATOM      7  C   LIG    1        4.489  -0.815  -1.187  0.00  0.00    +0.108 C 
ATOM      8  O   LIG    1        2.344   1.003  -0.987  0.00  0.00    -0.277 OA
ENDBRANCH   1   2
BRANCH   1  10
ATOM      9  C   LIG    1       -0.016   0.719   0.888  0.00  0.00    +0.009 C 
ATOM     10  C   LIG    1        0.058  -0.685   0.284  0.00  0.00    -0.042 C 
ATOM     11  C   LIG    1       -1.343  -1.298   0.244  0.00  0.00    +0.009 C 
ATOM     12  C   LIG    1        0.973  -1.561   1.143  0.00  0.00    +0.009 C 
ENDBRANCH   1  10
BRANCH   1  13
ATOM     13  N   LIG    1       -0.153   0.381  -1.910  0.00  0.00    +0.386 N 
ATOM     14  H   LIG    1        0.217   0.437  -2.847  0.00  0.00    -0.089 HD
ATOM     15  H   LIG    1       -0.087   1.285  -1.468  0.00  0.00    -0.089 HD
ATOM     16  H   LIG    1       -1.120   0.095  -1.947  0.00  0.00    -0.089 HD
ENDBRANCH   1  13
TORSDOF 3
