REMARK  Name = ZINC21992584
REMARK                            x       y       z     vdW  Elec       q    Type
REMARK                         _______ _______ _______ _____ _____    ______ ____
ROOT
ATOM      1  C   LIG    1        0.014   1.072   2.501  0.00  0.00    +0.202 C 
ENDROOT
BRANCH   1   2
ATOM      2  C   LIG    1       -0.370   1.653   3.837  0.00  0.00    -0.007 A 
ATOM      3  C   LIG    1       -1.355   1.050   4.596  0.00  0.00    +0.007 A 
ATOM      4  C   LIG    1       -1.703   1.581   5.824  0.00  0.00    +0.000 A 
ATOM      5  C   LIG    1       -1.074   2.721   6.288  0.00  0.00    +0.000 A 
ATOM      6  C   LIG    1       -0.093   3.327   5.526  0.00  0.00    +0.000 A 
ATOM      7  C   LIG    1        0.259   2.794   4.301  0.00  0.00    +0.007 A 
ENDBRANCH   1   2
BRANCH   1   8
ATOM      8  C   LIG    1       -0.940   1.595   1.424  0.00  0.00    +0.031 C 
BRANCH   8   9
ATOM      9  C   LIG    1       -0.477   1.105   0.051  0.00  0.00    -0.076 C 
BRANCH   9  11
ATOM     10  C   LIG    1       -1.316   3.069  -1.089  0.00  0.00    -0.097 C 
ATOM     11  N   LIG    1       -1.393   1.606  -0.982  0.00  0.00    +0.376 N 
ATOM     12  H   LIG    1       -2.418   1.343  -0.682  0.00  0.00    -0.083 HD
ATOM     13  C   LIG    1       -1.124   0.969  -2.278  0.00  0.00    -0.097 C 
ENDBRANCH   9  11
ENDBRANCH   8   9
ENDBRANCH   1   8
BRANCH   1  14
ATOM     14  O   LIG    1       -0.070  -0.353   2.560  0.00  0.00    -0.484 OA
BRANCH  14  15
ATOM     15  C   LIG    1        1.010  -1.015   3.053  0.00  0.00    +0.121 A 
ATOM     16  C   LIG    1        2.085  -0.304   3.567  0.00  0.00    +0.046 A 
ATOM     17  C   LIG    1        3.179  -0.979   4.073  0.00  0.00    +0.016 A 
ATOM     18  C   LIG    1        3.209  -2.361   4.056  0.00  0.00    +0.055 A 
ATOM     19  C   LIG    1        2.142  -3.071   3.539  0.00  0.00    +0.016 A 
ATOM     20  C   LIG    1        1.042  -2.401   3.037  0.00  0.00    +0.046 A 
BRANCH  18  21
ATOM     21  C   LIG    1        4.407  -3.094   4.603  0.00  0.00    +0.417 C 
ATOM     22  F   LIG    1        4.002  -4.332   5.114  0.00  0.00    -0.166 F 
ATOM     23  F   LIG    1        4.992  -2.336   5.623  0.00  0.00    -0.166 F 
ATOM     24  F   LIG    1        5.338  -3.295   3.579  0.00  0.00    -0.166 F 
ENDBRANCH  18  21
ENDBRANCH  14  15
ENDBRANCH   1  14
TORSDOF 7
