REMARK  Name = ZINC28476241
REMARK                            x       y       z     vdW  Elec       q    Type
REMARK                         _______ _______ _______ _____ _____    ______ ____
ROOT
ATOM      1  C   LIG    1       -0.275   2.053   2.424  0.00  0.00    +0.008 C 
ATOM      2  C   LIG    1       -0.229   2.805   1.092  0.00  0.00    +0.021 C 
ATOM      3  C   LIG    1       -1.006   1.492   1.203  0.00  0.00    +0.056 C 
ENDROOT
BRANCH   1   5
ATOM      4  C   LIG    1       -0.219   3.128   4.679  0.00  0.00    +0.007 C 
ATOM      5  C   LIG    1       -1.128   2.652   3.545  0.00  0.00    -0.013 C 
ATOM      6  C   LIG    1       -1.927   3.837   2.999  0.00  0.00    +0.007 C 
ENDBRANCH   1   5
BRANCH   3   7
ATOM      7  C   LIG    1       -2.511   1.571   1.196  0.00  0.00    +0.309 C 
ATOM      8  O   LIG    1       -3.125   1.492   2.233  0.00  0.00    -0.250 OA
BRANCH   7   9
ATOM      9  O   LIG    1       -3.169   1.728   0.037  0.00  0.00    -0.480 OA
ATOM     10  H   LIG    1       -2.693   1.789  -0.768  0.00  0.00    +0.295 HD
ENDBRANCH   7   9
ENDBRANCH   3   7
BRANCH   3  11
ATOM     11  C   LIG    1       -0.406   0.257   0.527  0.00  0.00    -0.068 C 
BRANCH  11  12
ATOM     12  N   LIG    1       -0.466  -0.884   1.450  0.00  0.00    +0.379 N 
ATOM     13  H   LIG    1        0.107  -0.650   2.360  0.00  0.00    -0.090 HD
ATOM     14  H   LIG    1       -1.514  -1.085   1.718  0.00  0.00    -0.090 HD
ATOM     15  H   LIG    1       -0.035  -1.772   0.964  0.00  0.00    -0.090 HD
ENDBRANCH  11  12
ENDBRANCH   3  11
TORSDOF 5
