REMARK  Name = ZINC28129254
REMARK                            x       y       z     vdW  Elec       q    Type
REMARK                         _______ _______ _______ _____ _____    ______ ____
ROOT
ATOM      1  C   LIG    1        2.503   1.489  -0.014  0.00  0.00    +0.075 C 
ATOM      2  C   LIG    1        2.994   0.185   0.077  0.00  0.00    +0.060 C 
ATOM      3  C   LIG    1        4.460   0.296   0.013  0.00  0.00    +0.252 C 
ATOM      4  N   LIG    1        4.791   1.593  -0.101  0.00  0.00    -0.248 N 
ATOM      5  H   LIG    1        5.850   1.887  -0.160  0.00  0.00    +0.158 HD
ATOM      6  O   LIG    1        5.242  -0.633   0.059  0.00  0.00    -0.270 OA
ATOM      7  C   LIG    1        3.691   2.364  -0.124  0.00  0.00    +0.253 C 
ATOM      8  O   LIG    1        3.674   3.575  -0.219  0.00  0.00    -0.270 OA
ENDROOT
BRANCH   2   9
ATOM      9  C   LIG    1        2.203  -1.052   0.208  0.00  0.00    +0.013 A 
ATOM     10  C   LIG    1        1.489  -1.673  -0.780  0.00  0.00    +0.095 A 
ATOM     11  N   LIG    1        0.865  -2.767  -0.276  0.00  0.00    -0.348 N 
ATOM     12  C   LIG    1        1.259  -2.955   1.038  0.00  0.00    +0.051 A 
ATOM     13  C   LIG    1        0.982  -3.999   1.888  0.00  0.00    -0.040 A 
ATOM     14  C   LIG    1        0.355  -5.279   1.382  0.00  0.00    -0.045 C 
ATOM     15  N   LIG    1        1.009  -5.643   0.115  0.00  0.00    +0.383 N 
ATOM     16  H   LIG    1        0.950  -6.732  -0.028  0.00  0.00    -0.085 HD
ATOM     17  H   LIG    1        2.064  -5.334   0.145  0.00  0.00    -0.085 HD
ATOM     18  C   LIG    1        0.436  -5.036  -1.097  0.00  0.00    -0.060 C 
ATOM     19  C   LIG    1        1.327  -3.868   3.220  0.00  0.00    +0.004 A 
ATOM     20  C   LIG    1        2.024  -2.745   3.648  0.00  0.00    +0.001 A 
ATOM     21  C   LIG    1        2.403  -1.753   2.766  0.00  0.00    +0.010 A 
ATOM     22  C   LIG    1       -0.130  -3.648  -0.899  0.00  0.00    +0.103 C 
ATOM     23  C   LIG    1        2.036  -1.861   1.425  0.00  0.00    +0.008 A 
ENDBRANCH   2   9
BRANCH   1  31
ATOM     24  C   LIG    1       -1.308   4.134  -2.470  0.00  0.00    +0.005 A 
ATOM     25  C   LIG    1        0.027   3.971  -2.868  0.00  0.00    +0.018 A 
ATOM     26  C   LIG    1        0.880   3.250  -2.106  0.00  0.00    +0.093 A 
ATOM     27  N   LIG    1        0.456   2.675  -0.946  0.00  0.00    -0.299 N 
ATOM     28  C   LIG    1       -0.841   2.816  -0.530  0.00  0.00    +0.138 A 
ATOM     29  N   LIG    1       -0.993   2.160   0.618  0.00  0.00    -0.235 NA
ATOM     30  C   LIG    1        0.155   1.604   0.973  0.00  0.00    +0.140 A 
ATOM     31  C   LIG    1        1.101   1.905   0.002  0.00  0.00    +0.079 A 
ATOM     32  C   LIG    1       -1.741   3.563  -1.311  0.00  0.00    +0.047 A 
ENDBRANCH   1  31
TORSDOF 2
