REMARK  Name = ZINC72105556
REMARK                            x       y       z     vdW  Elec       q    Type
REMARK                         _______ _______ _______ _____ _____    ______ ____
ROOT
ATOM      1  N   LIG    1       -2.840  -4.059   0.009  0.00  0.00    -0.343 N 
ATOM      2  C   LIG    1       -2.943  -4.694  -1.165  0.00  0.00    +0.103 A 
ATOM      3  C   LIG    1       -2.913  -6.070  -1.262  0.00  0.00    +0.100 A 
ATOM      4  C   LIG    1       -2.762  -6.866  -0.034  0.00  0.00    +0.202 A 
ATOM      5  C   LIG    1       -2.652  -6.128   1.239  0.00  0.00    +0.050 A 
ATOM      6  C   LIG    1       -2.507  -6.801   2.450  0.00  0.00    +0.025 A 
ATOM      7  C   LIG    1       -2.391  -6.076   3.631  0.00  0.00    +0.022 A 
ATOM      8  C   LIG    1       -2.436  -4.677   3.600  0.00  0.00    +0.059 A 
ATOM      9  C   LIG    1       -2.584  -4.007   2.405  0.00  0.00    +0.145 A 
ATOM     10  O   LIG    1       -2.730  -8.084  -0.066  0.00  0.00    -0.286 OA
ATOM     11  C   LIG    1       -2.692  -4.723   1.208  0.00  0.00    +0.095 A 
ENDROOT
BRANCH   7  12
ATOM     12  C   LIG    1       -2.232  -6.782   4.919  0.00  0.00    +0.135 A 
ATOM     13  C   LIG    1       -2.123  -6.197   6.142  0.00  0.00    +0.050 A 
ATOM     14  C   LIG    1       -1.989  -7.240   7.080  0.00  0.00    +0.042 A 
ATOM     15  C   LIG    1       -2.023  -8.397   6.392  0.00  0.00    +0.196 A 
ATOM     16  O   LIG    1       -2.175  -8.117   5.087  0.00  0.00    -0.463 OA
ENDBRANCH   7  12
BRANCH   3  17
ATOM     17  C   LIG    1       -3.029  -6.731  -2.571  0.00  0.00    +0.250 C 
ATOM     18  N   LIG    1       -3.119  -8.073  -2.643  0.00  0.00    -0.306 N 
ATOM     19  H   LIG    1       -3.183  -8.600  -1.831  0.00  0.00    +0.150 HD
ATOM     20  O   LIG    1       -3.045  -6.065  -3.589  0.00  0.00    -0.270 OA
BRANCH  18  21
ATOM     21  C   LIG    1       -3.121  -8.739  -3.948  0.00  0.00    +0.036 C 
ATOM     22  C   LIG    1       -1.821  -8.415  -4.687  0.00  0.00    +0.029 C 
ATOM     23  C   LIG    1       -1.823  -9.110  -6.051  0.00  0.00    -0.008 C 
ATOM     24  C   LIG    1       -1.933 -10.623  -5.852  0.00  0.00    +0.007 C 
ATOM     25  C   LIG    1       -3.233 -10.946  -5.113  0.00  0.00    -0.008 C 
ATOM     26  C   LIG    1       -4.425 -10.451  -5.936  0.00  0.00    +0.007 C 
ATOM     27  C   LIG    1       -4.314  -8.938  -6.135  0.00  0.00    -0.008 C 
ATOM     28  C   LIG    1       -3.014  -8.615  -6.874  0.00  0.00    +0.007 C 
ATOM     29  C   LIG    1       -4.312  -8.244  -4.771  0.00  0.00    +0.029 C 
ATOM     30  C   LIG    1       -3.232 -10.252  -3.750  0.00  0.00    +0.029 C 
ENDBRANCH  18  21
ENDBRANCH   3  17
BRANCH   9  31
ATOM     31  O   LIG    1       -2.626  -2.648   2.389  0.00  0.00    -0.493 OA
ATOM     32  C   LIG    1       -2.511  -1.980   3.647  0.00  0.00    +0.277 C 
ENDBRANCH   9  31
BRANCH   1  33
ATOM     33  C   LIG    1       -2.882  -2.595   0.020  0.00  0.00    +0.122 C 
BRANCH  33  34
ATOM     34  C   LIG    1       -1.455  -2.044   0.063  0.00  0.00    +0.022 C 
BRANCH  34  35
ATOM     35  C   LIG    1       -1.498  -0.515   0.074  0.00  0.00    +0.001 C 
BRANCH  35  37
ATOM     36  C   LIG    1       -0.115   1.565   0.128  0.00  0.00    +0.004 C 
ATOM     37  C   LIG    1       -0.072   0.036   0.116  0.00  0.00    -0.003 C 
ENDBRANCH  35  37
ENDBRANCH  34  35
ENDBRANCH  33  34
ENDBRANCH   1  33
TORSDOF 8
