REMARK  Name = ZINC29050937
REMARK                            x       y       z     vdW  Elec       q    Type
REMARK                         _______ _______ _______ _____ _____    ______ ____
ROOT
ATOM      1  N   LIG    1       -2.071   1.026  -3.737  0.00  0.00    -0.315 N 
ATOM      2  C   LIG    1       -0.746   1.659  -3.727  0.00  0.00    +0.107 C 
ATOM      3  C   LIG    1        0.029   1.203  -2.489  0.00  0.00    +0.020 C 
ATOM      4  C   LIG    1       -0.753   1.593  -1.232  0.00  0.00    -0.026 C 
ATOM      5  C   LIG    1       -2.147   0.962  -1.289  0.00  0.00    +0.020 C 
ATOM      6  C   LIG    1       -2.858   1.423  -2.563  0.00  0.00    +0.107 C 
ENDROOT
BRANCH   1  14
ATOM      7  C   LIG    1       -4.970  -0.030  -4.384  0.00  0.00    +0.032 A 
ATOM      8  C   LIG    1       -6.071  -0.163  -5.141  0.00  0.00    +0.085 A 
ATOM      9  N   LIG    1       -5.914   0.528  -6.315  0.00  0.00    -0.346 N 
ATOM     10  C   LIG    1       -4.687   1.133  -6.342  0.00  0.00    +0.143 A 
ATOM     11  N   LIG    1       -4.048   1.902  -7.222  0.00  0.00    -0.218 NA
ATOM     12  C   LIG    1       -2.838   2.351  -6.968  0.00  0.00    +0.225 A 
ATOM     13  N   LIG    1       -2.196   2.078  -5.846  0.00  0.00    -0.220 NA
ATOM     14  C   LIG    1       -2.749   1.314  -4.908  0.00  0.00    +0.134 A 
ATOM     15  H   LIG    1       -6.720   0.533  -7.063  0.00  0.00    +0.167 HD
ATOM     16  C   LIG    1       -4.039   0.811  -5.135  0.00  0.00    +0.059 A 
ENDBRANCH   1  14
BRANCH   4  17
ATOM     17  C   LIG    1       -0.013   1.086   0.008  0.00  0.00    -0.083 C 
BRANCH  17  18
ATOM     18  N   LIG    1       -0.700   1.560   1.217  0.00  0.00    +0.378 N 
ATOM     19  H   LIG    1       -0.715   2.659   1.223  0.00  0.00    -0.090 HD
ATOM     20  H   LIG    1       -1.732   1.179   1.224  0.00  0.00    -0.090 HD
ATOM     21  H   LIG    1       -0.168   1.195   2.108  0.00  0.00    -0.090 HD
ENDBRANCH  17  18
ENDBRANCH   4  17
TORSDOF 3
