REMARK  Name = ZINC14955016
REMARK                            x       y       z     vdW  Elec       q    Type
REMARK                         _______ _______ _______ _____ _____    ______ ____
ROOT
ATOM      1  C   LIG    1       -2.097  -6.591  -3.818  0.00  0.00    +0.001 A 
ATOM      2  C   LIG    1       -2.014  -5.796  -4.953  0.00  0.00    +0.001 A 
ATOM      3  C   LIG    1       -1.851  -4.432  -4.818  0.00  0.00    +0.016 A 
ATOM      4  C   LIG    1       -1.773  -3.878  -3.555  0.00  0.00    +0.021 A 
ATOM      5  C   LIG    1       -1.855  -4.662  -2.390  0.00  0.00    +0.004 A 
ATOM      6  C   LIG    1       -1.755  -3.923  -1.130  0.00  0.00    +0.039 A 
ATOM      7  C   LIG    1       -1.598  -2.543  -1.195  0.00  0.00    +0.070 A 
ATOM      8  C   LIG    1       -1.498  -1.847   0.006  0.00  0.00    +0.157 A 
ATOM      9  C   LIG    1       -1.570  -2.553   1.197  0.00  0.00    +0.139 A 
ATOM     10  S   LIG    1       -1.774  -4.232   0.632  0.00  0.00    -0.077 S 
ATOM     11  S   LIG    1       -1.571  -2.223  -2.955  0.00  0.00    -0.084 S 
ATOM     12  C   LIG    1       -2.022  -6.056  -2.570  0.00  0.00    +0.010 A 
ENDROOT
BRANCH   9  13
ATOM     13  C   LIG    1       -1.500  -2.066   2.522  0.00  0.00    +0.347 C 
ATOM     14  O   LIG    1       -1.357  -0.874   2.726  0.00  0.00    -0.244 OA
BRANCH  13  15
ATOM     15  O   LIG    1       -1.591  -2.922   3.562  0.00  0.00    -0.477 OA
ATOM     16  H   LIG    1       -1.701  -3.839   3.405  0.00  0.00    +0.295 HD
ENDBRANCH  13  15
ENDBRANCH   9  13
BRANCH   8  17
ATOM     17  O   LIG    1       -1.339  -0.499   0.012  0.00  0.00    -0.478 OA
BRANCH  17  18
ATOM     18  C   LIG    1        0.002  -0.004   0.002  0.00  0.00    +0.349 C 
BRANCH  18  19
ATOM     19  C   LIG    1       -0.018   1.503   0.010  0.00  0.00    +0.343 C 
ATOM     20  O   LIG    1       -1.073   2.093   0.018  0.00  0.00    -0.247 OA
BRANCH  19  21
ATOM     21  O   LIG    1        1.135   2.190   0.003  0.00  0.00    -0.478 OA
ATOM     22  H   LIG    1        1.953   1.732  -0.003  0.00  0.00    +0.295 HD
ENDBRANCH  19  21
ENDBRANCH  18  19
ENDBRANCH  17  18
ENDBRANCH   8  17
TORSDOF 6
