REMARK  Name = ZINC19364242
REMARK                            x       y       z     vdW  Elec       q    Type
REMARK                         _______ _______ _______ _____ _____    ______ ____
ROOT
ATOM      1  C   LIG    1       -0.547   1.629  -0.842  0.00  0.00    -0.096 C 
ENDROOT
BRANCH   1   2
ATOM      2  N   LIG    1        0.804   2.175  -0.656  0.00  0.00    +0.393 N 
ATOM      3  H   LIG    1        1.218   1.772   0.172  0.00  0.00    -0.080 HD
BRANCH   2   4
ATOM      4  C   LIG    1        0.727   3.634  -0.505  0.00  0.00    +0.044 C 
BRANCH   4   5
ATOM      5  C   LIG    1        0.023   3.969   0.785  0.00  0.00    +0.288 C 
ATOM      6  O   LIG    1       -0.271   3.081   1.567  0.00  0.00    -0.253 OA
BRANCH   5   7
ATOM      7  O   LIG    1       -0.253   5.127   1.046  0.00  0.00    -0.482 OA
ATOM      8  H   LIG    1       -0.027   5.809   0.444  0.00  0.00    +0.295 HD
ENDBRANCH   5   7
ENDBRANCH   4   5
ENDBRANCH   2   4
BRANCH   2   9
ATOM      9  C   LIG    1        1.630   1.846  -1.826  0.00  0.00    +0.044 C 
BRANCH   9  10
ATOM     10  C   LIG    1        3.047   2.297  -1.583  0.00  0.00    +0.288 C 
ATOM     11  O   LIG    1        3.342   2.842  -0.532  0.00  0.00    -0.253 OA
BRANCH  10  12
ATOM     12  O   LIG    1        3.899   2.118  -2.436  0.00  0.00    -0.482 OA
ATOM     13  H   LIG    1        3.673   1.700  -3.243  0.00  0.00    +0.295 HD
ENDBRANCH  10  12
ENDBRANCH   9  10
ENDBRANCH   2   9
ENDBRANCH   1   2
BRANCH   1  14
ATOM     14  C   LIG    1       -0.483   0.101  -0.858  0.00  0.00    -0.096 C 
BRANCH  14  15
ATOM     15  N   LIG    1       -1.845  -0.446  -0.907  0.00  0.00    +0.393 N 
ATOM     16  H   LIG    1       -2.386  -0.071  -0.143  0.00  0.00    -0.080 HD
BRANCH  15  17
ATOM     17  C   LIG    1       -1.790  -1.910  -0.797  0.00  0.00    +0.044 C 
BRANCH  17  18
ATOM     18  C   LIG    1       -3.188  -2.458  -0.680  0.00  0.00    +0.288 C 
ATOM     19  O   LIG    1       -4.144  -1.701  -0.702  0.00  0.00    -0.253 OA
BRANCH  18  20
ATOM     20  O   LIG    1       -3.365  -3.659  -0.563  0.00  0.00    -0.482 OA
ATOM     21  H   LIG    1       -2.630  -4.241  -0.546  0.00  0.00    +0.295 HD
ENDBRANCH  18  20
ENDBRANCH  17  18
ENDBRANCH  15  17
BRANCH  15  22
ATOM     22  C   LIG    1       -2.476  -0.075  -2.181  0.00  0.00    +0.044 C 
BRANCH  22  23
ATOM     23  C   LIG    1       -1.633  -0.578  -3.325  0.00  0.00    +0.288 C 
ATOM     24  O   LIG    1       -0.661  -1.280  -3.103  0.00  0.00    -0.253 OA
BRANCH  23  25
ATOM     25  O   LIG    1       -1.922  -0.282  -4.471  0.00  0.00    -0.482 OA
ATOM     26  H   LIG    1       -2.669   0.258  -4.642  0.00  0.00    +0.295 HD
ENDBRANCH  23  25
ENDBRANCH  22  23
ENDBRANCH  15  22
ENDBRANCH  14  15
ENDBRANCH   1  14
TORSDOF 15
