REMARK  Name = ZINC19862631
REMARK                            x       y       z     vdW  Elec       q    Type
REMARK                         _______ _______ _______ _____ _____    ______ ____
ROOT
ATOM      1  C   LIG    1        1.319  -6.418  -0.047  0.00  0.00    +0.002 A 
ATOM      2  C   LIG    1        1.128  -7.103  -1.197  0.00  0.00    +0.056 A 
ATOM      3  S   LIG    1        1.250  -8.806  -0.686  0.00  0.00    -0.078 S 
ATOM      4  C   LIG    1        1.552  -8.557   1.046  0.00  0.00    +0.092 A 
ATOM      5  N   LIG    1        1.752  -9.406   2.089  0.00  0.00    -0.315 N 
ATOM      6  H   LIG    1        1.741 -10.364   1.935  0.00  0.00    +0.169 HD
ATOM      7  C   LIG    1        1.980  -8.936   3.332  0.00  0.00    +0.271 A 
ATOM      8  O   LIG    1        2.162  -9.710   4.257  0.00  0.00    -0.266 OA
ATOM      9  C   LIG    1        1.995  -7.540   3.559  0.00  0.00    +0.158 A 
ATOM     10  C   LIG    1        1.786  -6.656   2.499  0.00  0.00    +0.150 A 
ATOM     11  C   LIG    1        1.558  -7.167   1.188  0.00  0.00    +0.056 A 
ENDROOT
BRANCH   1  15
ATOM     12  C   LIG    1        1.245  -2.165  -0.022  0.00  0.00    -0.014 A 
ATOM     13  C   LIG    1        2.029  -2.843  -0.955  0.00  0.00    +0.009 A 
ATOM     14  C   LIG    1        2.053  -4.220  -0.964  0.00  0.00    +0.009 A 
ATOM     15  C   LIG    1        1.294  -4.937  -0.038  0.00  0.00    -0.017 A 
ATOM     16  C   LIG    1        0.510  -4.258   0.896  0.00  0.00    +0.009 A 
ATOM     17  C   LIG    1        0.490  -2.881   0.907  0.00  0.00    +0.009 A 
BRANCH  12  22
ATOM     18  C   LIG    1       -0.017   1.376   0.010  0.00  0.00    +0.001 A 
ATOM     19  C   LIG    1        1.169   2.089   0.002  0.00  0.00    +0.004 A 
ATOM     20  C   LIG    1        2.382   1.426  -0.013  0.00  0.00    +0.046 A 
ATOM     21  C   LIG    1        2.416   0.041  -0.021  0.00  0.00    +0.125 A 
ATOM     22  C   LIG    1        1.219  -0.683  -0.013  0.00  0.00    +0.024 A 
ATOM     23  C   LIG    1        0.002  -0.004   0.002  0.00  0.00    +0.012 A 
BRANCH  21  24
ATOM     24  O   LIG    1        3.607  -0.612  -0.037  0.00  0.00    -0.506 OA
ATOM     25  H   LIG    1        3.961  -0.806   0.842  0.00  0.00    +0.292 HD
ENDBRANCH  21  24
ENDBRANCH  12  22
ENDBRANCH   1  15
BRANCH   9  26
ATOM     26  C   LIG    1        2.226  -7.032   4.878  0.00  0.00    +0.108 C 
ATOM     27  N   LIG    1        2.409  -6.630   5.924  0.00  0.00    -0.191 NA
ENDBRANCH   9  26
BRANCH  10  28
ATOM     28  O   LIG    1        1.801  -5.322   2.716  0.00  0.00    -0.505 OA
ATOM     29  H   LIG    1        1.661  -4.730   2.003  0.00  0.00    +0.292 HD
ENDBRANCH  10  28
TORSDOF 5
