REMARK  Name = ZINC26898957
REMARK                            x       y       z     vdW  Elec       q    Type
REMARK                         _______ _______ _______ _____ _____    ______ ____
ROOT
ATOM      1  N   LIG    1        0.075   5.188   0.027  0.00  0.00    -0.318 N 
ATOM      2  C   LIG    1       -0.759   5.735   1.107  0.00  0.00    +0.087 C 
ATOM      3  C   LIG    1       -0.750   7.263   1.030  0.00  0.00    -0.063 C 
ATOM      4  N   LIG    1        0.632   7.749   1.139  0.00  0.00    +0.381 N 
ATOM      5  H   LIG    1        1.056   7.437   2.105  0.00  0.00    -0.086 HD
ATOM      6  H   LIG    1        0.642   8.847   1.072  0.00  0.00    -0.086 HD
ATOM      7  C   LIG    1        1.466   7.202   0.059  0.00  0.00    -0.063 C 
ATOM      8  C   LIG    1        1.457   5.674   0.136  0.00  0.00    +0.087 C 
ENDROOT
BRANCH   1  13
ATOM      9  C   LIG    1       -0.021   1.076   0.031  0.00  0.00    +0.021 A 
ATOM     10  C   LIG    1       -0.922   1.756  -0.778  0.00  0.00    +0.020 A 
ATOM     11  C   LIG    1       -0.896   3.139  -0.778  0.00  0.00    +0.058 A 
ATOM     12 BR   LIG    1       -2.103   4.120  -1.854  0.00  0.00    -0.047 Br
ATOM     13  C   LIG    1        0.034   3.798   0.021  0.00  0.00    +0.135 A 
ATOM     14  N   LIG    1        0.880   3.114   0.774  0.00  0.00    -0.239 NA
ATOM     15  C   LIG    1        0.874   1.794   0.798  0.00  0.00    +0.113 A 
ENDBRANCH   1  13
TORSDOF 1
