REMARK  Name = ZINC19322689
REMARK                            x       y       z     vdW  Elec       q    Type
REMARK                         _______ _______ _______ _____ _____    ______ ____
ROOT
ATOM      1  N   LIG    1       -0.290   1.228   2.087  0.00  0.00    -0.282 NA
ATOM      2  C   LIG    1       -1.732   1.062   1.857  0.00  0.00    +0.087 C 
ATOM      3  C   LIG    1       -2.443   2.391   2.133  0.00  0.00    +0.031 C 
ATOM      4  C   LIG    1       -2.127   2.841   3.562  0.00  0.00    +0.087 C 
ATOM      5  N   LIG    1       -0.669   2.940   3.727  0.00  0.00    -0.282 NA
ATOM      6  C   LIG    1       -0.022   1.647   3.469  0.00  0.00    +0.131 C 
ENDROOT
BRANCH   6   7
ATOM      7  C   LIG    1        1.466   1.782   3.672  0.00  0.00    +0.023 C 
ATOM      8  C   LIG    1        2.187   2.761   3.006  0.00  0.00    +0.021 C 
ATOM      9  C   LIG    1        3.550   2.854   3.218  0.00  0.00    +0.081 C 
ATOM     10  N   LIG    1        4.163   2.026   4.040  0.00  0.00    -0.316 NA
ATOM     11  H   LIG    1        5.120   2.112   4.171  0.00  0.00    +0.122 HD
ATOM     12  C   LIG    1        3.509   1.083   4.690  0.00  0.00    +0.081 C 
ATOM     13  C   LIG    1        2.144   0.933   4.533  0.00  0.00    +0.021 C 
ENDBRANCH   6   7
BRANCH   1  14
ATOM     14  C   LIG    1        0.440  -0.003   1.758  0.00  0.00    +0.123 C 
BRANCH  14  20
ATOM     15  C   LIG    1        0.926   0.397  -0.670  0.00  0.00    +0.034 A 
ATOM     16  C   LIG    1        0.750   0.090  -2.014  0.00  0.00    +0.023 A 
ATOM     17  C   LIG    1       -0.104  -0.931  -2.381  0.00  0.00    +0.002 A 
ATOM     18  C   LIG    1       -0.784  -1.647  -1.412  0.00  0.00    +0.000 A 
ATOM     19  C   LIG    1       -0.611  -1.344  -0.074  0.00  0.00    +0.007 A 
ATOM     20  C   LIG    1        0.247  -0.328   0.300  0.00  0.00    -0.012 A 
BRANCH  15  22
ATOM     21  C   LIG    1        1.311   2.813  -0.275  0.00  0.00    +0.129 C 
ATOM     22  N   LIG    1        1.790   1.429  -0.296  0.00  0.00    -0.336 N 
ATOM     23  C   LIG    1        3.175   1.127   0.076  0.00  0.00    +0.129 C 
ENDBRANCH  15  22
ENDBRANCH  14  20
ENDBRANCH   1  14
BRANCH   5  24
ATOM     24  C   LIG    1       -0.324   3.444   5.063  0.00  0.00    +0.123 C 
BRANCH  24  25
ATOM     25  C   LIG    1       -0.556   4.932   5.113  0.00  0.00    -0.012 A 
ATOM     26  C   LIG    1       -0.895   5.619   3.964  0.00  0.00    +0.007 A 
ATOM     27  C   LIG    1       -1.109   6.984   4.010  0.00  0.00    +0.000 A 
ATOM     28  C   LIG    1       -0.984   7.667   5.206  0.00  0.00    +0.002 A 
ATOM     29  C   LIG    1       -0.646   6.987   6.359  0.00  0.00    +0.023 A 
ATOM     30  C   LIG    1       -0.436   5.614   6.317  0.00  0.00    +0.034 A 
BRANCH  30  31
ATOM     31  N   LIG    1       -0.100   4.922   7.483  0.00  0.00    -0.336 N 
ATOM     32  C   LIG    1        1.304   4.804   7.886  0.00  0.00    +0.129 C 
ATOM     33  C   LIG    1       -1.151   4.314   8.303  0.00  0.00    +0.129 C 
ENDBRANCH  30  31
ENDBRANCH  24  25
ENDBRANCH   5  24
TORSDOF 7
