REMARK  Name = ZINC27897048
REMARK                            x       y       z     vdW  Elec       q    Type
REMARK                         _______ _______ _______ _____ _____    ______ ____
ROOT
ATOM      1  C   LIG    1        1.205  -0.674  -0.013  0.00  0.00    +0.027 A 
ATOM      2  C   LIG    1        1.225  -2.074  -0.020  0.00  0.00    +0.018 A 
ATOM      3  C   LIG    1        0.021  -2.788  -0.012  0.00  0.00    +0.060 A 
ATOM      4  C   LIG    1       -1.181  -2.108   0.003  0.00  0.00    +0.159 A 
ATOM      5  C   LIG    1       -1.192  -0.713   0.015  0.00  0.00    +0.170 A 
ATOM      6  C   LIG    1        0.002  -0.004   0.002  0.00  0.00    +0.100 A 
ENDROOT
BRANCH   6   7
ATOM      7  C   LIG    1       -0.018   1.503   0.010  0.00  0.00    +0.421 C 
ATOM      8  F   LIG    1       -0.673   1.954   1.161  0.00  0.00    -0.166 F 
ATOM      9  F   LIG    1       -0.695   1.966  -1.123  0.00  0.00    -0.166 F 
ATOM     10  F   LIG    1        1.294   1.987   0.000  0.00  0.00    -0.166 F 
ENDBRANCH   6   7
BRANCH   2  11
ATOM     11  C   LIG    1        2.506  -2.792  -0.036  0.00  0.00    +0.258 C 
ATOM     12  O   LIG    1        2.522  -4.005  -0.042  0.00  0.00    -0.296 OA
ENDBRANCH   2  11
BRANCH   4  13
ATOM     13  O   LIG    1       -2.353  -2.798   0.011  0.00  0.00    -0.503 OA
ATOM     14  H   LIG    1       -3.310  -2.256   0.023  0.00  0.00    +0.292 HD
ENDBRANCH   4  13
BRANCH   5  15
ATOM     15  O   LIG    1       -2.375  -0.047   0.035  0.00  0.00    -0.503 OA
ATOM     16  H   LIG    1       -3.181  -0.524   0.045  0.00  0.00    +0.292 HD
ENDBRANCH   5  15
TORSDOF 4
