REMARK  Name = ZINC28896427
REMARK                            x       y       z     vdW  Elec       q    Type
REMARK                         _______ _______ _______ _____ _____    ______ ____
ROOT
ATOM      1  C   LIG    1        5.835   2.933  -1.781  0.00  0.00    +0.000 C 
ATOM      2  C   LIG    1        5.684   1.412  -1.853  0.00  0.00    +0.000 C 
ATOM      3  C   LIG    1        4.735   0.944  -0.749  0.00  0.00    +0.005 C 
ATOM      4  C   LIG    1        3.365   1.599  -0.935  0.00  0.00    +0.010 C 
ATOM      5  C   LIG    1        2.426   1.133   0.186  0.00  0.00    +0.111 C 
ATOM      6  N   LIG    1        1.159   1.868   0.074  0.00  0.00    -0.301 N 
ATOM      7  C   LIG    1       -0.014   1.209   0.009  0.00  0.00    +0.222 C 
ATOM      8  O   LIG    1       -0.027  -0.002  -0.058  0.00  0.00    -0.275 OA
ATOM      9  C   LIG    1        1.197   3.336   0.041  0.00  0.00    +0.108 C 
ATOM     10  C   LIG    1        2.146   3.778  -1.078  0.00  0.00    +0.023 C 
ATOM     11  C   LIG    1        3.513   3.121  -0.873  0.00  0.00    -0.005 C 
ATOM     12  C   LIG    1        4.467   3.589  -1.975  0.00  0.00    +0.004 C 
ENDROOT
BRANCH   7  13
ATOM     13  C   LIG    1       -1.311   1.976   0.012  0.00  0.00    +0.048 C 
ATOM     14  C   LIG    1       -1.341   2.923   1.214  0.00  0.00    +0.019 C 
ATOM     15  C   LIG    1       -2.657   3.702   1.217  0.00  0.00    -0.009 C 
ATOM     16  C   LIG    1       -3.829   2.723   1.309  0.00  0.00    +0.007 C 
ATOM     17  C   LIG    1       -3.800   1.777   0.107  0.00  0.00    -0.009 C 
ATOM     18  C   LIG    1       -3.914   2.590  -1.184  0.00  0.00    +0.007 C 
ATOM     19  C   LIG    1       -2.742   3.568  -1.276  0.00  0.00    -0.009 C 
ATOM     20  C   LIG    1       -2.772   4.514  -0.074  0.00  0.00    +0.007 C 
ATOM     21  C   LIG    1       -1.426   2.789  -1.280  0.00  0.00    +0.019 C 
ATOM     22  C   LIG    1       -2.483   0.998   0.104  0.00  0.00    +0.019 C 
ENDBRANCH   7  13
TORSDOF 1
