REMARK  Name = ZINC00002264
REMARK                            x       y       z     vdW  Elec       q    Type
REMARK                         _______ _______ _______ _____ _____    ______ ____
ROOT
ATOM      1  C   LIG    1       -0.800  -3.871   1.422  0.00  0.00    +0.129 C 
ATOM      2  C   LIG    1       -1.249  -4.570   0.458  0.00  0.00    +0.055 C 
ATOM      3  C   LIG    1       -1.350  -6.016   0.293  0.00  0.00    -0.008 A 
ATOM      4  C   LIG    1       -2.627  -6.567  -0.218  0.00  0.00    +0.009 A 
ATOM      5  C   LIG    1       -2.781  -7.858  -0.386  0.00  0.00    +0.001 A 
ATOM      6  C   LIG    1       -1.677  -8.779  -0.065  0.00  0.00    +0.001 A 
ATOM      7  C   LIG    1       -0.542  -8.295   0.388  0.00  0.00    +0.015 A 
ATOM      8  C   LIG    1       -0.371  -6.841   0.575  0.00  0.00    +0.020 A 
ATOM      9  S   LIG    1        1.173  -6.240   1.180  0.00  0.00    -0.088 S 
ATOM     10  C   LIG    1        0.748  -5.443   2.693  0.00  0.00    +0.023 A 
ATOM     11  C   LIG    1        1.282  -5.848   3.824  0.00  0.00    +0.017 A 
ATOM     12  C   LIG    1        0.939  -5.180   5.080  0.00  0.00    +0.021 A 
ATOM     13  C   LIG    1        0.084  -4.179   5.075  0.00  0.00    +0.042 A 
ATOM     14 CL   LIG    1       -0.334  -3.389   6.563  0.00  0.00    -0.084 Cl
ATOM     15  C   LIG    1       -0.517  -3.728   3.809  0.00  0.00    +0.032 A 
ATOM     16  C   LIG    1       -0.202  -4.325   2.676  0.00  0.00    +0.032 A 
ENDROOT
BRANCH   1  17
ATOM     17  O   LIG    1       -0.883  -2.521   1.262  0.00  0.00    -0.493 OA
BRANCH  17  18
ATOM     18  C   LIG    1       -1.349  -2.045  -0.002  0.00  0.00    +0.210 C 
BRANCH  18  19
ATOM     19  C   LIG    1       -1.374  -0.515   0.006  0.00  0.00    -0.038 C 
BRANCH  19  21
ATOM     20  C   LIG    1        0.766  -0.347  -1.064  0.00  0.00    -0.096 C 
ATOM     21  N   LIG    1       -0.004  -0.004   0.139  0.00  0.00    +0.378 N 
ATOM     22  H   LIG    1        0.434  -0.419   0.948  0.00  0.00    -0.082 HD
ATOM     23  C   LIG    1       -0.039   1.456   0.297  0.00  0.00    -0.096 C 
ENDBRANCH  19  21
ENDBRANCH  18  19
ENDBRANCH  17  18
ENDBRANCH   1  17
TORSDOF 4
