REMARK  Name = ZINC40442819
REMARK                            x       y       z     vdW  Elec       q    Type
REMARK                         _______ _______ _______ _____ _____    ______ ____
ROOT
ATOM      1  C   LIG    1       -0.016   1.317   0.009  0.00  0.00    +0.145 A 
ATOM      2  C   LIG    1        1.199   2.005   0.001  0.00  0.00    +0.126 A 
ATOM      3  C   LIG    1        2.392   1.255  -0.014  0.00  0.00    +0.167 A 
ATOM      4  N   LIG    1        3.414   2.171  -0.019  0.00  0.00    -0.286 N 
ATOM      5  C   LIG    1        2.850   3.413  -0.007  0.00  0.00    +0.203 A 
ATOM      6  N   LIG    1        2.321  -0.070  -0.019  0.00  0.00    -0.195 NA
ATOM      7  C   LIG    1        1.146  -0.677  -0.011  0.00  0.00    +0.215 A 
ATOM      8  N   LIG    1        1.553   3.314   0.005  0.00  0.00    -0.232 NA
ATOM      9  N   LIG    1        0.002  -0.004   0.002  0.00  0.00    -0.221 NA
ENDROOT
BRANCH   4  10
ATOM     10  C1* LIG    1        4.847   1.869  -0.034  0.00  0.00    +0.253 C 
ATOM     11  C2* LIG    1        5.342   1.681  -1.486  0.00  0.00    +0.195 C 
ATOM     12  C3* LIG    1        6.752   2.312  -1.487  0.00  0.00    +0.178 C 
ATOM     13  C4* LIG    1        6.942   2.808  -0.036  0.00  0.00    +0.177 C 
ATOM     14  O4* LIG    1        5.602   2.992   0.472  0.00  0.00    -0.346 OA
BRANCH  11  15
ATOM     15  O2* LIG    1        5.412   0.292  -1.814  0.00  0.00    -0.385 OA
ATOM     16  H2* LIG    1        5.717   0.115  -2.714  0.00  0.00    +0.210 HD
ENDBRANCH  11  15
BRANCH  12  17
ATOM     17  O3* LIG    1        7.739   1.333  -1.818  0.00  0.00    -0.386 OA
ATOM     18  H3* LIG    1        8.643   1.676  -1.833  0.00  0.00    +0.210 HD
ENDBRANCH  12  17
BRANCH  13  19
ATOM     19  C5* LIG    1        7.707   4.133  -0.022  0.00  0.00    +0.190 C 
BRANCH  19  20
ATOM     20  O5* LIG    1        7.974   4.515   1.329  0.00  0.00    -0.392 OA
ATOM     21  H5* LIG    1        8.457   5.349   1.414  0.00  0.00    +0.210 HD
ENDBRANCH  19  20
ENDBRANCH  13  19
ENDBRANCH   4  10
BRANCH   7  22
ATOM     22  N   LIG    1        1.108  -2.062  -0.017  0.00  0.00    -0.327 N 
ATOM     23  H   LIG    1        0.255  -2.524  -0.011  0.00  0.00    +0.145 HD
ATOM     24  H   LIG    1        1.934  -2.570  -0.028  0.00  0.00    +0.145 HD
ENDBRANCH   7  22
TORSDOF 6
