REMARK  Name = ZINC22146651
REMARK                            x       y       z     vdW  Elec       q    Type
REMARK                         _______ _______ _______ _____ _____    ______ ____
ROOT
ATOM      1  C   LIG    1       -0.018   1.503   0.010  0.00  0.00    +0.068 C 
ATOM      2  C   LIG    1        0.002  -0.004   0.002  0.00  0.00    +0.069 C 
ATOM      3  N   LIG    1        0.008  -0.766  -1.051  0.00  0.00    -0.177 NA
ATOM      4  N   LIG    1        0.028  -2.115  -0.699  0.00  0.00    -0.156 N 
ATOM      5  C   LIG    1        0.035  -2.243   0.643  0.00  0.00    +0.272 C 
ATOM      6  O   LIG    1        0.052  -3.283   1.281  0.00  0.00    -0.268 OA
ATOM      7  C   LIG    1        0.025  -0.877   1.182  0.00  0.00    +0.065 C 
ATOM      8  C   LIG    1        0.033  -0.493   2.522  0.00  0.00    +0.061 C 
ENDROOT
BRANCH   4   9
ATOM      9  C   LIG    1        0.038  -3.182  -1.607  0.00  0.00    +0.061 A 
ATOM     10  C   LIG    1        0.052  -4.491  -1.142  0.00  0.00    +0.025 A 
ATOM     11  C   LIG    1        0.062  -5.548  -2.033  0.00  0.00    +0.003 A 
ATOM     12  C   LIG    1        0.059  -5.310  -3.392  0.00  0.00    +0.015 A 
ATOM     13  C   LIG    1        0.045  -3.997  -3.871  0.00  0.00    +0.061 A 
ATOM     14  C   LIG    1        0.029  -2.931  -2.970  0.00  0.00    +0.040 A 
BRANCH  13  15
ATOM     15  C   LIG    1        0.042  -3.739  -5.324  0.00  0.00    +0.337 C 
ATOM     16  O   LIG    1        0.051  -4.675  -6.112  0.00  0.00    -0.245 OA
BRANCH  15  17
ATOM     17  O   LIG    1        0.030  -2.590  -5.741  0.00  0.00    -0.477 OA
ATOM     18  H   LIG    1        0.023  -1.872  -5.138  0.00  0.00    +0.295 HD
ENDBRANCH  15  17
ENDBRANCH  13  15
ENDBRANCH   4   9
BRANCH   8  19
ATOM     19  C   LIG    1        0.055  -1.466   3.529  0.00  0.00    +0.129 A 
ATOM     20  C   LIG    1        0.059  -1.224   4.898  0.00  0.00    +0.050 A 
ATOM     21  C   LIG    1        0.084  -2.466   5.526  0.00  0.00    +0.050 A 
ATOM     22  C   LIG    1        0.094  -3.423   4.532  0.00  0.00    +0.136 A 
ATOM     23  O   LIG    1        0.071  -2.804   3.339  0.00  0.00    -0.455 OA
BRANCH  22  24
ATOM     24  C   LIG    1        0.120  -4.883   4.742  0.00  0.00    +0.017 A 
ATOM     25  C   LIG    1        0.131  -5.405   6.039  0.00  0.00    +0.014 A 
ATOM     26  C   LIG    1        0.155  -6.771   6.228  0.00  0.00    +0.033 A 
ATOM     27  C   LIG    1        0.169  -7.624   5.138  0.00  0.00    +0.122 A 
ATOM     28  C   LIG    1        0.159  -7.114   3.852  0.00  0.00    +0.033 A 
ATOM     29  C   LIG    1        0.128  -5.750   3.647  0.00  0.00    +0.014 A 
BRANCH  27  30
ATOM     30  N   LIG    1        0.196  -9.089   5.350  0.00  0.00    +0.006 N 
ATOM     31  O   LIG    1        0.206  -9.538   6.472  0.00  0.00    -0.130 OA
BRANCH  30  32
ATOM     32  O   LIG    1        0.208  -9.837   4.400  0.00  0.00    -0.396 OA
ATOM     33  H   LIG    1        0.201  -9.489   3.530  0.00  0.00    +0.329 HD
ENDBRANCH  30  32
ENDBRANCH  27  30
ENDBRANCH  22  24
ENDBRANCH   8  19
TORSDOF 7
