REMARK  Name = ZINC48998306
REMARK                            x       y       z     vdW  Elec       q    Type
REMARK                         _______ _______ _______ _____ _____    ______ ____
ROOT
ATOM      1  C   LIG    1        0.117  -4.186   0.185  0.00  0.00    +0.129 A 
ATOM      2  C   LIG    1       -0.974  -5.041   0.200  0.00  0.00    +0.144 A 
ATOM      3  N   LIG    1       -0.525  -6.282   0.302  0.00  0.00    -0.235 NA
ATOM      4  C   LIG    1        0.806  -6.278   0.355  0.00  0.00    +0.138 A 
ATOM      5  C   LIG    1        1.742  -7.322   0.464  0.00  0.00    +0.047 A 
ATOM      6  C   LIG    1        3.073  -7.026   0.482  0.00  0.00    +0.009 A 
ATOM      7  C   LIG    1        3.487  -5.689   0.406  0.00  0.00    -0.028 A 
ATOM      8  C   LIG    1        2.570  -4.699   0.306  0.00  0.00    +0.097 A 
ATOM      9  N   LIG    1        1.241  -4.986   0.279  0.00  0.00    -0.295 N 
ENDROOT
BRANCH   7  10
ATOM     10  C   LIG    1        4.956  -5.354   0.434  0.00  0.00    +0.017 C 
ATOM     11  C   LIG    1        5.659  -6.035  -0.744  0.00  0.00    -0.011 C 
ATOM     12  C   LIG    1        7.162  -5.755  -0.664  0.00  0.00    -0.082 C 
ATOM     13  N   LIG    1        7.695  -6.283   0.598  0.00  0.00    +0.379 N 
ATOM     14  H   LIG    1        8.694  -6.145   0.623  0.00  0.00    -0.086 HD
ATOM     15  H   LIG    1        7.492  -7.269   0.661  0.00  0.00    -0.086 HD
ATOM     16  C   LIG    1        7.077  -5.584   1.731  0.00  0.00    -0.082 C 
ATOM     17  C   LIG    1        5.571  -5.857   1.743  0.00  0.00    -0.011 C 
ENDBRANCH   7  10
BRANCH   1  20
ATOM     18  N   LIG    1        1.234  -2.082  -0.060  0.00  0.00    -0.279 N 
ATOM     19  H   LIG    1        2.074  -2.555  -0.174  0.00  0.00    +0.155 HD
ATOM     20  C   LIG    1        0.086  -2.772   0.087  0.00  0.00    +0.267 C 
ATOM     21  O   LIG    1       -0.978  -2.182   0.136  0.00  0.00    -0.268 OA
BRANCH  18  27
ATOM     22  C   LIG    1        0.075   1.382  -0.475  0.00  0.00    +0.002 A 
ATOM     23  C   LIG    1        1.179   2.084  -0.029  0.00  0.00    +0.002 A 
ATOM     24  C   LIG    1        2.303   1.406   0.407  0.00  0.00    +0.022 A 
ATOM     25  C   LIG    1        2.325   0.024   0.399  0.00  0.00    +0.062 A 
ATOM     26 CL   LIG    1        3.736  -0.826   0.945  0.00  0.00    -0.082 Cl
ATOM     27  C   LIG    1        1.216  -0.683  -0.049  0.00  0.00    +0.052 A 
ATOM     28  C   LIG    1        0.090   0.001  -0.487  0.00  0.00    +0.025 A 
ENDBRANCH  18  27
ENDBRANCH   1  20
TORSDOF 3
