REMARK  Name = ZINC71341409
REMARK                            x       y       z     vdW  Elec       q    Type
REMARK                         _______ _______ _______ _____ _____    ______ ____
ROOT
ATOM      1  C   LIG    1        3.698  -0.688  -0.038  0.00  0.00    +0.025 A 
ATOM      2  C   LIG    1        4.679  -0.343  -0.966  0.00  0.00    +0.032 A 
ATOM      3  C   LIG    1        5.884  -1.018  -0.978  0.00  0.00    +0.042 A 
ATOM      4 CL   LIG    1        7.105  -0.587  -2.134  0.00  0.00    -0.084 Cl
ATOM      5  C   LIG    1        6.121  -2.037  -0.071  0.00  0.00    +0.023 A 
ATOM      6  C   LIG    1        5.154  -2.386   0.853  0.00  0.00    +0.048 A 
ATOM      7  C   LIG    1        3.943  -1.714   0.880  0.00  0.00    +0.129 A 
ENDROOT
BRANCH   1  11
ATOM      8  C   LIG    1       -0.017   1.379   0.010  0.00  0.00    +0.000 A 
ATOM      9  C   LIG    1        1.169   2.092   0.002  0.00  0.00    +0.001 A 
ATOM     10  C   LIG    1        2.377   1.426  -0.013  0.00  0.00    +0.008 A 
ATOM     11  C   LIG    1        2.402   0.033  -0.021  0.00  0.00    -0.014 A 
ATOM     12  C   LIG    1        1.205  -0.680  -0.013  0.00  0.00    +0.008 A 
ATOM     13  C   LIG    1        0.002  -0.004   0.002  0.00  0.00    +0.001 A 
ENDBRANCH   1  11
BRANCH   7  14
ATOM     14  O   LIG    1        2.995  -2.053   1.791  0.00  0.00    -0.480 OA
BRANCH  14  15
ATOM     15  C   LIG    1        3.315  -3.110   2.698  0.00  0.00    +0.349 C 
BRANCH  15  16
ATOM     16  C   LIG    1        2.152  -3.345   3.627  0.00  0.00    +0.343 C 
ATOM     17  O   LIG    1        1.143  -2.669   3.523  0.00  0.00    -0.247 OA
BRANCH  16  18
ATOM     18  O   LIG    1        2.221  -4.210   4.483  0.00  0.00    -0.478 OA
ATOM     19  H   LIG    1        2.997  -4.729   4.563  0.00  0.00    +0.295 HD
ENDBRANCH  16  18
ENDBRANCH  15  16
ENDBRANCH  14  15
ENDBRANCH   7  14
TORSDOF 5
