REMARK  Name = ZINC13820952
REMARK                            x       y       z     vdW  Elec       q    Type
REMARK                         _______ _______ _______ _____ _____    ______ ____
ROOT
ATOM      1  N   LIG    1       -1.959  -0.179   2.105  0.00  0.00    +0.388 N 
ATOM      2  H   LIG    1       -2.190  -1.155   1.884  0.00  0.00    -0.084 HD
ATOM      3  H   LIG    1       -1.022   0.040   1.748  0.00  0.00    -0.084 HD
ENDROOT
BRANCH   1   5
ATOM      4  C   LIG    1       -4.319   0.038   1.467  0.00  0.00    -0.013 C 
ATOM      5  C   LIG    1       -2.945   0.711   1.462  0.00  0.00    -0.069 C 
BRANCH   5   6
ATOM      6  C   LIG    1       -2.514   0.980   0.019  0.00  0.00    +0.019 C 
BRANCH   6   7
ATOM      7  C   LIG    1       -1.219   1.751   0.017  0.00  0.00    -0.049 A 
ATOM      8  C   LIG    1       -0.013   1.076   0.008  0.00  0.00    +0.003 A 
ATOM      9  C   LIG    1        1.175   1.783   0.000  0.00  0.00    +0.000 A 
ATOM     10  C   LIG    1        1.156   3.165   0.008  0.00  0.00    +0.000 A 
ATOM     11  C   LIG    1       -0.050   3.840   0.022  0.00  0.00    +0.000 A 
ATOM     12  C   LIG    1       -1.238   3.133   0.030  0.00  0.00    +0.003 A 
ENDBRANCH   6   7
ENDBRANCH   5   6
ENDBRANCH   1   5
BRANCH   1  13
ATOM     13  C   LIG    1       -1.978   0.007   3.568  0.00  0.00    +0.009 C 
BRANCH  13  14
ATOM     14  C   LIG    1       -0.987  -0.892   4.181  0.00  0.00    -0.116 C 
ATOM     15  C   LIG    1       -0.196  -1.609   4.670  0.00  0.00    -0.068 C 
BRANCH  15  16
ATOM     16  C   LIG    1        0.768  -2.483   5.267  0.00  0.00    +0.025 A 
ATOM     17  C   LIG    1        1.534  -3.332   4.467  0.00  0.00    +0.017 A 
ATOM     18  C   LIG    1        2.466  -4.168   5.048  0.00  0.00    +0.001 A 
ATOM     19  C   LIG    1        2.632  -4.175   6.421  0.00  0.00    +0.000 A 
ATOM     20  C   LIG    1        1.872  -3.340   7.220  0.00  0.00    +0.001 A 
ATOM     21  C   LIG    1        0.942  -2.495   6.651  0.00  0.00    +0.017 A 
ENDBRANCH  15  16
ENDBRANCH  13  14
ENDBRANCH   1  13
TORSDOF 6
