REMARK  Name = ZINC18115268
REMARK                            x       y       z     vdW  Elec       q    Type
REMARK                         _______ _______ _______ _____ _____    ______ ____
ROOT
ATOM      1  C   LIG    1        1.521   0.233  -4.894  0.00  0.00    +0.110 C 
ENDROOT
BRANCH   1   2
ATOM      2  S   LIG    1        1.692  -0.311  -3.172  0.00  0.00    -0.151 S 
BRANCH   2   3
ATOM      3  C   LIG    1        0.000  -0.736  -2.676  0.00  0.00    +0.124 C 
BRANCH   3   6
ATOM      4  C   LIG    1       -0.364   1.056  -0.135  0.00  0.00    +0.065 C 
ATOM      5  C   LIG    1       -0.156  -0.436  -0.155  0.00  0.00    +0.034 A 
ATOM      6  C   LIG    1        0.001  -1.211  -1.245  0.00  0.00    +0.046 A 
ATOM      7  N   LIG    1        0.158  -2.478  -0.835  0.00  0.00    -0.349 N 
ATOM      8  H   LIG    1        0.290  -3.244  -1.416  0.00  0.00    +0.166 HD
ATOM      9  C   LIG    1        0.104  -2.518   0.468  0.00  0.00    +0.171 A 
ATOM     10  N   LIG    1       -0.085  -1.264   0.933  0.00  0.00    -0.350 N 
ATOM     11  H   LIG    1       -0.159  -1.000   1.863  0.00  0.00    +0.166 HD
ENDBRANCH   3   6
ENDBRANCH   2   3
ENDBRANCH   1   2
BRANCH   1  12
ATOM     12  C   LIG    1        2.893   0.627  -5.444  0.00  0.00    +0.254 C 
BRANCH  12  13
ATOM     13  N   LIG    1        2.754   1.067  -6.835  0.00  0.00    -0.112 NA
ATOM     14  C   LIG    1        3.046   2.293  -7.162  0.00  0.00    +0.395 C 
BRANCH  14  15
ATOM     15  N   LIG    1        3.606   3.138  -6.233  0.00  0.00    -0.278 N 
ATOM     16  H   LIG    1        3.841   2.804  -5.353  0.00  0.00    +0.258 HD
ATOM     17  C   LIG    1        3.846   4.543  -6.572  0.00  0.00    +0.239 C 
ENDBRANCH  14  15
BRANCH  14  18
ATOM     18  N   LIG    1        2.794   2.744  -8.441  0.00  0.00    -0.178 N 
ATOM     19  H   LIG    1        2.399   2.148  -9.096  0.00  0.00    +0.278 HD
BRANCH  18  20
ATOM     20  C   LIG    1        3.097   4.020  -8.781  0.00  0.00    +0.255 C 
ATOM     21  N   LIG    1        3.352   5.090  -9.067  0.00  0.00    -0.154 NA
ENDBRANCH  18  20
ENDBRANCH  14  18
ENDBRANCH  12  13
ENDBRANCH   1  12
TORSDOF 8
