REMARK  Name = ZINC35324132
REMARK                            x       y       z     vdW  Elec       q    Type
REMARK                         _______ _______ _______ _____ _____    ______ ____
ROOT
ATOM      1  C   LIG    1        4.475  -3.604   0.206  0.00  0.00    +0.034 A 
ATOM      2  C   LIG    1        5.638  -2.921   0.543  0.00  0.00    +0.024 A 
ATOM      3  C   LIG    1        6.865  -3.532   0.397  0.00  0.00    +0.010 A 
ATOM      4  C   LIG    1        6.938  -4.838  -0.088  0.00  0.00    -0.017 A 
ATOM      5  C   LIG    1        5.769  -5.522  -0.424  0.00  0.00    +0.010 A 
ATOM      6  C   LIG    1        4.545  -4.907  -0.272  0.00  0.00    +0.024 A 
ENDROOT
BRANCH   4   7
ATOM      7  C   LIG    1        8.255  -5.498  -0.246  0.00  0.00    -0.005 A 
ATOM      8  C   LIG    1        9.113  -5.617   0.838  0.00  0.00    +0.009 A 
ATOM      9  C   LIG    1       10.345  -6.235   0.691  0.00  0.00    +0.003 A 
ATOM     10  C   LIG    1       10.740  -6.740  -0.528  0.00  0.00    +0.028 A 
ATOM     11  C   LIG    1        9.900  -6.634  -1.634  0.00  0.00    +0.068 A 
ATOM     12  N   LIG    1       10.007  -7.027  -2.943  0.00  0.00    -0.275 N 
ATOM     13  H   LIG    1       10.768  -7.485  -3.332  0.00  0.00    +0.189 HD
ATOM     14  N   LIG    1        8.838  -6.675  -3.625  0.00  0.00    -0.158 NA
ATOM     15  C   LIG    1        8.012  -6.070  -2.813  0.00  0.00    +0.146 A 
ATOM     16  C   LIG    1        8.645  -6.015  -1.496  0.00  0.00    +0.049 A 
BRANCH  15  17
ATOM     17  N   LIG    1        6.750  -5.566  -3.143  0.00  0.00    -0.341 N 
ATOM     18  H   LIG    1        6.358  -5.769  -4.007  0.00  0.00    +0.144 HD
ATOM     19  H   LIG    1        6.268  -5.013  -2.509  0.00  0.00    +0.144 HD
ENDBRANCH  15  17
ENDBRANCH   4   7
BRANCH   1  21
ATOM     20  C   LIG    1        3.097  -1.671   0.069  0.00  0.00    +0.248 C 
ATOM     21  N   LIG    1        3.233  -2.981   0.355  0.00  0.00    -0.282 N 
ATOM     22  H   LIG    1        2.469  -3.492   0.664  0.00  0.00    +0.155 HD
ATOM     23  O   LIG    1        4.074  -1.008  -0.222  0.00  0.00    -0.270 OA
BRANCH  20  27
ATOM     24  C   LIG    1       -0.742   0.141   0.183  0.00  0.00    +0.000 A 
ATOM     25  C   LIG    1        0.367   0.898  -0.148  0.00  0.00    +0.001 A 
ATOM     26  C   LIG    1        1.617   0.316  -0.187  0.00  0.00    +0.013 A 
ATOM     27  C   LIG    1        1.761  -1.040   0.109  0.00  0.00    +0.037 A 
ATOM     28  C   LIG    1        0.638  -1.799   0.442  0.00  0.00    +0.013 A 
ATOM     29  C   LIG    1       -0.607  -1.204   0.477  0.00  0.00    +0.001 A 
ENDBRANCH  20  27
ENDBRANCH   1  21
TORSDOF 4
