REMARK  Name = ZINC14975141
REMARK                            x       y       z     vdW  Elec       q    Type
REMARK                         _______ _______ _______ _____ _____    ______ ____
ROOT
ATOM      1  C   LIG    1        0.058   4.102  -2.504  0.00  0.00    +0.205 C 
ATOM      2  C   LIG    1       -0.260   4.044  -1.014  0.00  0.00    +0.059 C 
ATOM      3  C   LIG    1       -1.330   2.985  -0.758  0.00  0.00    +0.004 C 
ATOM      4  C   LIG    1       -2.654   3.335  -1.446  0.00  0.00    +0.014 C 
ATOM      5  C   LIG    1       -0.811   1.620  -1.203  0.00  0.00    +0.032 C 
ATOM      6  C   LIG    1        0.080   1.642  -2.415  0.00  0.00    +0.010 C 
ATOM      7  C   LIG    1        0.422   0.268  -2.903  0.00  0.00    +0.225 C 
ATOM      8  O   LIG    1       -0.099  -0.728  -2.425  0.00  0.00    -0.284 OA
ATOM      9  C   LIG    1        1.412   0.177  -3.978  0.00  0.00    +0.179 A 
ATOM     10  O   LIG    1        2.035  -0.822  -4.610  0.00  0.00    -0.459 OA
ATOM     11  C   LIG    1        2.926  -0.320  -5.499  0.00  0.00    +0.211 A 
ATOM     12  C   LIG    1        2.869   1.032  -5.450  0.00  0.00    +0.101 A 
ATOM     13  C   LIG    1        3.575   2.178  -6.051  0.00  0.00    +0.343 C 
ATOM     14  O   LIG    1        3.430   3.370  -5.426  0.00  0.00    -0.454 OA
ATOM     15  C   LIG    1        2.587   3.592  -4.270  0.00  0.00    +0.217 C 
ATOM     16  C   LIG    1        1.333   2.729  -4.278  0.00  0.00    +0.061 C 
ATOM     17  C   LIG    1        0.455   3.143  -5.471  0.00  0.00    +0.025 C 
ATOM     18  O   LIG    1        4.252   2.061  -7.057  0.00  0.00    -0.245 OA
ATOM     19  C   LIG    1        1.835   1.333  -4.526  0.00  0.00    +0.029 A 
ATOM     20  C   LIG    1       -0.013   1.087   0.008  0.00  0.00    +0.011 C 
ATOM     21  C   LIG    1       -0.791   1.608   1.233  0.00  0.00    +0.032 C 
ATOM     22  C   LIG    1       -1.530   2.873   0.771  0.00  0.00    +0.121 C 
ATOM     23  C   LIG    1        0.495   2.752  -3.025  0.00  0.00    -0.008 C 
ENDROOT
BRANCH  22  24
ATOM     24  O   LIG    1       -2.923   2.768   1.075  0.00  0.00    -0.391 OA
ATOM     25  H   LIG    1       -3.115   2.695   2.019  0.00  0.00    +0.210 HD
ENDBRANCH  22  24
BRANCH   1  26
ATOM     26  O   LIG    1        1.073   5.116  -2.706  0.00  0.00    -0.457 OA
BRANCH  26  28
ATOM     27  C   LIG    1        1.645   7.475  -3.160  0.00  0.00    +0.136 C 
ATOM     28  C   LIG    1        0.647   6.367  -2.940  0.00  0.00    +0.305 C 
ATOM     29  O   LIG    1       -0.537   6.606  -2.975  0.00  0.00    -0.251 OA
ENDBRANCH  26  28
ENDBRANCH   1  26
BRANCH  15  30
ATOM     30  C   LIG    1        3.411   3.268  -3.027  0.00  0.00    +0.205 C 
BRANCH  30  31
ATOM     31  O   LIG    1        4.529   4.154  -2.952  0.00  0.00    -0.379 OA
ATOM     32  C   LIG    1        5.371   3.934  -1.818  0.00  0.00    +0.194 C 
ENDBRANCH  30  31
ENDBRANCH  15  30
TORSDOF 5
