REMARK  Name = ZINC40835651
REMARK                            x       y       z     vdW  Elec       q    Type
REMARK                         _______ _______ _______ _____ _____    ______ ____
ROOT
ATOM      1  C   LIG    1        0.626  -0.618   1.041  0.00  0.00    +0.121 A 
ATOM      2  C   LIG    1        1.203   0.155   2.054  0.00  0.00    +0.046 A 
ATOM      3  C   LIG    1        1.834  -0.431   3.106  0.00  0.00    +0.012 A 
ATOM      4  C   LIG    1        1.909  -1.834   3.182  0.00  0.00    -0.017 A 
ATOM      5  C   LIG    1        2.552  -2.468   4.256  0.00  0.00    +0.012 A 
ATOM      6  C   LIG    1        2.606  -3.849   4.298  0.00  0.00    -0.041 A 
ATOM      7  C   LIG    1        2.022  -4.618   3.276  0.00  0.00    +0.004 A 
ATOM      8  C   LIG    1        1.395  -4.023   2.229  0.00  0.00    +0.009 A 
ATOM      9  C   LIG    1        1.323  -2.620   2.157  0.00  0.00    -0.014 A 
ATOM     10  C   LIG    1        0.675  -1.983   1.086  0.00  0.00    +0.054 A 
ENDROOT
BRANCH   6  11
ATOM     11  C   LIG    1        3.285  -4.525   5.429  0.00  0.00    +0.050 C 
ATOM     12  C   LIG    1        4.564  -4.142   5.817  0.00  0.00    +0.090 C 
ATOM     13  N   LIG    1        5.170  -4.741   6.823  0.00  0.00    -0.315 NA
ATOM     14  H   LIG    1        6.062  -4.455   7.073  0.00  0.00    +0.122 HD
ATOM     15  C   LIG    1        4.599  -5.721   7.501  0.00  0.00    +0.082 C 
ATOM     16  C   LIG    1        3.332  -6.163   7.184  0.00  0.00    +0.034 C 
ATOM     17  C   LIG    1        2.645  -5.559   6.133  0.00  0.00    +0.060 C 
BRANCH  17  18
ATOM     18  N   LIG    1        1.364  -5.973   5.786  0.00  0.00    -0.327 NA
ATOM     19  H   LIG    1        0.934  -6.688   6.281  0.00  0.00    +0.118 HD
ATOM     20  H   LIG    1        0.899  -5.546   5.049  0.00  0.00    +0.118 HD
ENDBRANCH  17  18
ENDBRANCH   6  11
BRANCH   1  22
ATOM     21  C   LIG    1       -0.017   1.425   0.010  0.00  0.00    +0.277 C 
ATOM     22  O   LIG    1        0.002  -0.004   0.002  0.00  0.00    -0.495 OA
ENDBRANCH   1  22
TORSDOF 3
