REMARK  Name = ZINC14191768
REMARK                            x       y       z     vdW  Elec       q    Type
REMARK                         _______ _______ _______ _____ _____    ______ ____
ROOT
ATOM      1  C   LIG    1       -4.181   2.493  -1.423  0.00  0.00    +0.145 C 
ENDROOT
BRANCH   1   2
ATOM      2  C   LIG    1       -4.153   3.877  -2.019  0.00  0.00    +0.135 A 
ATOM      3  N   LIG    1       -3.249   4.724  -1.608  0.00  0.00    -0.223 NA
ATOM      4  C   LIG    1       -3.180   5.955  -2.099  0.00  0.00    +0.135 A 
ATOM      5  C   LIG    1       -4.078   6.412  -3.089  0.00  0.00    +0.095 A 
ATOM      6  C   LIG    1       -5.084   5.427  -3.533  0.00  0.00    +0.264 A 
ATOM      7  O   LIG    1       -5.906   5.712  -4.386  0.00  0.00    -0.267 OA
ATOM      8  C   LIG    1       -3.853   7.735  -3.485  0.00  0.00    +0.062 A 
ATOM      9  C   LIG    1       -4.737   8.356  -4.536  0.00  0.00    +0.067 C 
ATOM     10  N   LIG    1       -2.891   8.436  -2.959  0.00  0.00    -0.213 NA
ATOM     11  S   LIG    1       -2.153   7.376  -1.838  0.00  0.00    +0.032 S 
ATOM     12  N   LIG    1       -5.069   4.204  -2.965  0.00  0.00    -0.290 N 
BRANCH  12  13
ATOM     13  C   LIG    1       -6.058   3.207  -3.382  0.00  0.00    +0.161 C 
BRANCH  13  14
ATOM     14  C   LIG    1       -7.347   3.435  -2.636  0.00  0.00    -0.028 A 
ATOM     15  C   LIG    1       -7.628   2.699  -1.500  0.00  0.00    +0.005 A 
ATOM     16  C   LIG    1       -8.813   2.905  -0.819  0.00  0.00    +0.000 A 
ATOM     17  C   LIG    1       -9.712   3.854  -1.267  0.00  0.00    +0.000 A 
ATOM     18  C   LIG    1       -9.429   4.594  -2.400  0.00  0.00    +0.000 A 
ATOM     19  C   LIG    1       -8.246   4.384  -3.085  0.00  0.00    +0.005 A 
ENDBRANCH  13  14
ENDBRANCH  12  13
ENDBRANCH   1   2
BRANCH   1  21
ATOM     20  C   LIG    1       -4.716   2.029   0.909  0.00  0.00    +0.247 C 
ATOM     21  N   LIG    1       -3.873   2.571   0.007  0.00  0.00    -0.287 N 
ATOM     22  O   LIG    1       -5.656   1.357   0.534  0.00  0.00    -0.270 OA
BRANCH  20  27
ATOM     23  C   LIG    1       -3.863   2.902   6.533  0.00  0.00    +0.044 C 
ATOM     24  C   LIG    1       -4.086   2.673   5.060  0.00  0.00    -0.050 A 
ATOM     25  C   LIG    1       -5.134   1.875   4.638  0.00  0.00    +0.004 A 
ATOM     26  C   LIG    1       -5.345   1.662   3.291  0.00  0.00    +0.013 A 
ATOM     27  C   LIG    1       -4.497   2.254   2.354  0.00  0.00    +0.037 A 
ATOM     28  C   LIG    1       -3.439   3.054   2.786  0.00  0.00    +0.013 A 
ATOM     29  C   LIG    1       -3.243   3.264   4.136  0.00  0.00    +0.004 A 
ENDBRANCH  20  27
BRANCH  21  30
ATOM     30  C   LIG    1       -2.648   3.237   0.458  0.00  0.00    +0.107 C 
BRANCH  30  31
ATOM     31  C   LIG    1       -2.989   4.637   0.973  0.00  0.00    -0.001 C 
BRANCH  31  32
ATOM     32  C   LIG    1       -1.697   5.410   1.244  0.00  0.00    -0.085 C 
BRANCH  32  33
ATOM     33  N   LIG    1       -2.034   6.718   1.831  0.00  0.00    +0.378 N 
ATOM     34  H   LIG    1       -2.598   7.254   1.160  0.00  0.00    -0.090 HD
ATOM     35  H   LIG    1       -1.183   7.238   2.038  0.00  0.00    -0.090 HD
ATOM     36  H   LIG    1       -2.570   6.589   2.687  0.00  0.00    -0.090 HD
ENDBRANCH  32  33
ENDBRANCH  31  32
ENDBRANCH  30  31
ENDBRANCH  21  30
ENDBRANCH   1  21
BRANCH   1  37
ATOM     37  C   LIG    1       -3.141   1.616  -2.122  0.00  0.00    +0.011 C 
ATOM     38  C   LIG    1       -3.527   1.439  -3.592  0.00  0.00    +0.009 C 
ATOM     39  C   LIG    1       -3.087   0.247  -1.440  0.00  0.00    +0.009 C 
ENDBRANCH   1  37
TORSDOF 10
