REMARK  Name = ZINC17857672
REMARK                            x       y       z     vdW  Elec       q    Type
REMARK                         _______ _______ _______ _____ _____    ______ ____
ROOT
ATOM      1  C   LIG    1       -0.021  -2.769  -7.102  0.00  0.00    +0.086 A 
ATOM      2  C   LIG    1       -0.013  -4.166  -7.114  0.00  0.00    +0.031 A 
ATOM      3  C   LIG    1       -0.015  -4.842  -8.316  0.00  0.00    +0.030 A 
ATOM      4  C   LIG    1       -0.025  -4.141  -9.508  0.00  0.00    +0.105 A 
ATOM      5  C   LIG    1       -0.032  -2.757  -9.505  0.00  0.00    +0.030 A 
ATOM      6  C   LIG    1       -0.037  -2.067  -8.310  0.00  0.00    +0.031 A 
ENDROOT
BRANCH   4   7
ATOM      7  S   LIG    1       -0.026  -5.013 -11.039  0.00  0.00    +0.056 S 
ATOM      8  O   LIG    1        0.533  -6.293 -10.777  0.00  0.00    -0.153 OA
ATOM      9  O   LIG    1        0.515  -4.129 -12.011  0.00  0.00    -0.153 OA
BRANCH   7  10
ATOM     10  N   LIG    1       -1.609  -5.265 -11.457  0.00  0.00    -0.204 NA
ATOM     11  H   LIG    1       -1.825  -5.734 -12.278  0.00  0.00    +0.144 HD
ATOM     12  H   LIG    1       -2.320  -4.942 -10.881  0.00  0.00    +0.144 HD
ENDBRANCH   7  10
ENDBRANCH   4   7
BRANCH   1  14
ATOM     13  N   LIG    1       -0.006  -2.742  -4.801  0.00  0.00    -0.149 NA
ATOM     14  N   LIG    1       -0.020  -2.091  -5.915  0.00  0.00    -0.149 NA
BRANCH  13  18
ATOM     15  C   LIG    1        0.000  -0.694  -1.208  0.00  0.00    +0.029 A 
ATOM     16  C   LIG    1        0.013  -2.086  -1.213  0.00  0.00    +0.025 A 
ATOM     17  C   LIG    1        0.011  -2.771  -2.407  0.00  0.00    +0.031 A 
ATOM     18  C   LIG    1       -0.004  -2.067  -3.616  0.00  0.00    +0.086 A 
ATOM     19  C   LIG    1       -0.017  -0.667  -3.606  0.00  0.00    +0.031 A 
ATOM     20  C   LIG    1       -0.021   0.011  -2.408  0.00  0.00    +0.025 A 
BRANCH  15  22
ATOM     21  C   LIG    1       -0.018   1.461   0.010  0.00  0.00    +0.129 C 
ATOM     22  N   LIG    1        0.002  -0.004   0.002  0.00  0.00    -0.336 N 
ATOM     23  C   LIG    1        0.024  -0.743   1.267  0.00  0.00    +0.129 C 
ENDBRANCH  15  22
ENDBRANCH  13  18
ENDBRANCH   1  14
TORSDOF 5
