REMARK  Name = ZINC18202555
REMARK                            x       y       z     vdW  Elec       q    Type
REMARK                         _______ _______ _______ _____ _____    ______ ____
ROOT
ATOM      1  C   UNK A  0       -0.005   1.391  -0.044  0.00  0.00    +0.015 A 
ATOM      2  C   UNK A  0        1.177   2.095  -0.040  0.00  0.00    +0.023 A 
ATOM      3  C   UNK A  0        2.393   1.416  -0.047  0.00  0.00    +0.027 A 
ATOM      4  C   UNK A  0        2.416   0.024  -0.059  0.00  0.00    +0.023 A 
ATOM      5  C   UNK A  0        1.238  -0.685  -0.063  0.00  0.00    +0.015 A 
ATOM      6  C   UNK A  0        0.015  -0.007  -0.056  0.00  0.00    +0.037 A 
ENDROOT
BRANCH   6   7
ATOM      7  C   UNK A  0       -1.251  -0.765  -0.060  0.00  0.00    +0.245 C 
ATOM      8  N   GLU A  1       -1.229  -2.112  -0.071  0.00  0.00    -0.298 N 
ATOM      9  H   GLU A  1       -0.382  -2.584  -0.076  0.00  0.00    +0.150 HD
ATOM     10  O   UNK A  0       -2.313  -0.174  -0.053  0.00  0.00    -0.270 OA
BRANCH   8  11
ATOM     11  CA  GLU A  1       -2.486  -2.865  -0.075  0.00  0.00    +0.182 C 
BRANCH  11  12
ATOM     12  C   GLU A  1       -2.978  -3.029   1.340  0.00  0.00    +0.325 C 
ATOM     13  O   GLU A  1       -4.174  -3.106   1.564  0.00  0.00    -0.249 OA
BRANCH  12  14
ATOM     14  OXT GLU A  1       -2.181  -3.083   2.260  0.00  0.00    -0.479 OA
ATOM     15  HXT GLU A  1       -1.262  -3.023   2.088  0.00  0.00    +0.295 HD
ENDBRANCH  12  14
ENDBRANCH  11  12
BRANCH  11  16
ATOM     16  CB  GLU A  1       -2.253  -4.244  -0.696  0.00  0.00    +0.045 C 
BRANCH  16  17
ATOM     17  CG  GLU A  1       -1.874  -4.082  -2.170  0.00  0.00    +0.123 C 
BRANCH  17  18
ATOM     18  CD  GLU A  1       -1.644  -5.439  -2.782  0.00  0.00    +0.305 C 
ATOM     19  OE1 GLU A  1       -1.772  -6.444  -2.103  0.00  0.00    -0.251 OA
BRANCH  18  20
ATOM     20  OE2 GLU A  1       -1.331  -5.534  -3.956  0.00  0.00    -0.481 OA
ATOM     21  HE2 GLU A  1       -1.232  -4.762  -4.478  0.00  0.00    +0.295 HD
ENDBRANCH  18  20
ENDBRANCH  17  18
ENDBRANCH  16  17
ENDBRANCH  11  16
ENDBRANCH   8  11
ENDBRANCH   6   7
BRANCH   3  22
ATOM     22  N   UNK A  0        3.586   2.131  -0.043  0.00  0.00    -0.342 N 
ATOM     23  H   UNK A  0        3.570   3.100  -0.036  0.00  0.00    +0.146 HD
BRANCH  22  24
ATOM     24  C   UNK A  0        4.866   1.418  -0.051  0.00  0.00    +0.126 C 
BRANCH  24  25
ATOM     25  C   UNK A  0        6.013   2.431  -0.045  0.00  0.00    +0.115 C 
ATOM     26  C   UNK A  0        7.354   1.695   0.091  0.00  0.00    +0.127 C 
ATOM     27  N   UNK A  0        7.375   1.008   1.390  0.00  0.00    -0.326 N 
ATOM     28  H   UNK A  0        7.677   0.088   1.455  0.00  0.00    +0.148 HD
ATOM     29  C   UNK A  0        6.959   1.691   2.519  0.00  0.00    +0.149 A 
ATOM     30  C   UNK A  0        6.206   2.851   2.388  0.00  0.00    +0.142 A 
ATOM     31  C   UNK A  0        5.791   3.527   3.541  0.00  0.00    +0.276 A 
ATOM     32  O   UNK A  0        5.128   4.549   3.461  0.00  0.00    -0.266 OA
ATOM     33  N   UNK A  0        6.141   3.023   4.745  0.00  0.00    -0.294 N 
ATOM     34  H   UNK A  0        5.864   3.475   5.557  0.00  0.00    +0.172 HD
ATOM     35  C   UNK A  0        6.883   1.884   4.820  0.00  0.00    +0.195 A 
ATOM     36  N   UNK A  0        7.276   1.244   3.740  0.00  0.00    -0.199 NA
ATOM     37  N   UNK A  0        5.870   3.337   1.107  0.00  0.00    -0.261 N 
ATOM     38  C   UNK A  0        5.431   4.600   0.940  0.00  0.00    +0.333 C 
ATOM     39  O   UNK A  0        5.225   5.028  -0.176  0.00  0.00    -0.279 OA
BRANCH  35  40
ATOM     40  N   UNK A  0        7.228   1.392   6.052  0.00  0.00    -0.329 N 
ATOM     41  H   UNK A  0        7.756   0.581   6.120  0.00  0.00    +0.145 HD
ATOM     42  H   UNK A  0        6.945   1.855   6.856  0.00  0.00    +0.145 HD
ENDBRANCH  35  40
ENDBRANCH  24  25
ENDBRANCH  22  24
ENDBRANCH   3  22
TORSDOF 12
