REMARK  Name = ZINC38252749
REMARK                            x       y       z     vdW  Elec       q    Type
REMARK                         _______ _______ _______ _____ _____    ______ ____
ROOT
ATOM      1  C   LIG    1       -0.243   1.495  -0.094  0.00  0.00    +0.057 C 
ATOM      2  C   LIG    1        0.001  -0.013   0.005  0.00  0.00    +0.204 C 
ENDROOT
BRANCH   2   3
ATOM      3  C   LIG    1        0.856  -0.305   1.212  0.00  0.00    +0.032 A 
ATOM      4  C   LIG    1        2.209  -0.019   1.187  0.00  0.00    +0.049 A 
ATOM      5 CL   LIG    1        2.923   0.676  -0.235  0.00  0.00    -0.083 Cl
ATOM      6  C   LIG    1        2.994  -0.287   2.293  0.00  0.00    +0.023 A 
ATOM      7  C   LIG    1        2.427  -0.841   3.426  0.00  0.00    +0.041 A 
ATOM      8  C   LIG    1        1.073  -1.127   3.453  0.00  0.00    +0.142 A 
ATOM      9  F   LIG    1        0.518  -1.668   4.560  0.00  0.00    -0.204 F 
ATOM     10  C   LIG    1        0.286  -0.854   2.345  0.00  0.00    +0.084 A 
ATOM     11 CL   LIG    1       -1.414  -1.206   2.380  0.00  0.00    -0.080 Cl
ENDBRANCH   2   3
BRANCH   2  12
ATOM     12  O   LIG    1        0.671  -0.465  -1.174  0.00  0.00    -0.481 OA
BRANCH  12  13
ATOM     13  C   LIG    1       -0.107  -0.775  -2.245  0.00  0.00    +0.162 A 
ATOM     14  C   LIG    1       -1.474  -0.545  -2.212  0.00  0.00    +0.066 A 
ATOM     15  C   LIG    1       -2.229  -0.877  -3.331  0.00  0.00    +0.040 A 
ATOM     16 BR   LIG    1       -4.097  -0.586  -3.343  0.00  0.00    -0.049 Br
ATOM     17  C   LIG    1       -1.601  -1.422  -4.433  0.00  0.00    +0.128 A 
ATOM     18  N   LIG    1       -0.297  -1.631  -4.438  0.00  0.00    -0.236 NA
ATOM     19  C   LIG    1        0.459  -1.324  -3.396  0.00  0.00    +0.158 A 
BRANCH  19  20
ATOM     20  N   LIG    1        1.832  -1.557  -3.447  0.00  0.00    -0.340 N 
ATOM     21  H   LIG    1        2.230  -1.938  -4.245  0.00  0.00    +0.144 HD
ATOM     22  H   LIG    1        2.389  -1.337  -2.685  0.00  0.00    +0.144 HD
ENDBRANCH  19  20
ENDBRANCH  12  13
ENDBRANCH   2  12
TORSDOF 4
