REMARK  Name = ZINC00007489
REMARK                            x       y       z     vdW  Elec       q    Type
REMARK                         _______ _______ _______ _____ _____    ______ ____
ROOT
ATOM      1  C   LIG    1        4.068   1.978  -0.026  0.00  0.00    +0.122 A 
ATOM      2  C   LIG    1        3.283   3.128  -0.013  0.00  0.00    +0.048 A 
ATOM      3  C   LIG    1        1.908   3.034   0.000  0.00  0.00    +0.032 A 
ATOM      4  C   LIG    1        1.300   1.786  -0.001  0.00  0.00    +0.074 A 
ATOM      5  C   LIG    1        2.085   0.621  -0.015  0.00  0.00    +0.093 A 
ATOM      6  N   LIG    1        1.230  -0.434  -0.012  0.00  0.00    -0.235 NA
ATOM      7  C   LIG    1        0.002  -0.004   0.002  0.00  0.00    +0.205 A 
ATOM      8  N   LIG    1       -0.016   1.358   0.009  0.00  0.00    -0.299 N 
ATOM      9  C   LIG    1        3.478   0.730  -0.027  0.00  0.00    +0.075 A 
ENDROOT
BRANCH   8  10
ATOM     10  C   LIG    1       -1.155   2.174   0.020  0.00  0.00    +0.048 A 
ATOM     11  C   LIG    1       -1.269   3.199   0.950  0.00  0.00    +0.026 A 
ATOM     12  C   LIG    1       -2.390   4.005   0.953  0.00  0.00    +0.002 A 
ATOM     13  C   LIG    1       -3.405   3.785   0.039  0.00  0.00    +0.000 A 
ATOM     14  C   LIG    1       -3.297   2.761  -0.884  0.00  0.00    +0.002 A 
ATOM     15  C   LIG    1       -2.176   1.956  -0.897  0.00  0.00    +0.026 A 
ENDBRANCH   8  10
BRANCH   1  17
ATOM     16  C   LIG    1        5.969   3.406  -0.036  0.00  0.00    +0.277 C 
ATOM     17  O   LIG    1        5.423   2.086  -0.038  0.00  0.00    -0.495 OA
ENDBRANCH   1  17
TORSDOF 2
