REMARK  Name = ZINC19815472
REMARK                            x       y       z     vdW  Elec       q    Type
REMARK                         _______ _______ _______ _____ _____    ______ ____
ROOT
ATOM      1  C   LIG    1       -4.948  -3.846  -0.913  0.00  0.00    +0.186 C 
ATOM      2  C   LIG    1       -5.768  -3.852  -2.022  0.00  0.00    +0.110 C 
ATOM      3  N   LIG    1       -7.079  -3.932  -1.893  0.00  0.00    -0.314 NA
ATOM      4  H   LIG    1       -7.631  -3.933  -2.691  0.00  0.00    +0.122 HD
ATOM      5  C   LIG    1       -7.661  -4.010  -0.711  0.00  0.00    +0.082 C 
ATOM      6  C   LIG    1       -6.912  -4.011   0.447  0.00  0.00    +0.036 C 
ATOM      7  C   LIG    1       -5.522  -3.933   0.354  0.00  0.00    +0.082 C 
ENDROOT
BRANCH   1   8
ATOM      8  S   LIG    1       -3.199  -3.740  -1.097  0.00  0.00    +0.079 S 
ATOM      9  O   LIG    1       -2.642  -4.770  -0.292  0.00  0.00    -0.151 OA
ATOM     10  O   LIG    1       -2.942  -3.639  -2.491  0.00  0.00    -0.151 OA
BRANCH   8  12
ATOM     11  C   LIG    1       -1.465  -1.971  -0.423  0.00  0.00    +0.298 C 
ATOM     12  N   LIG    1       -2.723  -2.304  -0.423  0.00  0.00    -0.080 NA
BRANCH  11  13
ATOM     13  N   LIG    1       -1.070  -0.780   0.136  0.00  0.00    -0.296 N 
ATOM     14  H   LIG    1       -1.729  -0.187   0.531  0.00  0.00    +0.151 HD
BRANCH  13  16
ATOM     15  C   LIG    1        0.470   1.118   0.213  0.00  0.00    +0.027 C 
ATOM     16  C   LIG    1        0.346  -0.405   0.137  0.00  0.00    +0.068 C 
ATOM     17  C   LIG    1        1.040  -1.034   1.346  0.00  0.00    +0.027 C 
ENDBRANCH  13  16
ENDBRANCH  11  13
BRANCH  11  18
ATOM     18  O   LIG    1       -0.547  -2.796  -0.972  0.00  0.00    -0.481 OA
ATOM     19  H   LIG    1        0.358  -2.556  -0.972  0.00  0.00    +0.295 HD
ENDBRANCH  11  18
ENDBRANCH   8  12
ENDBRANCH   1   8
BRANCH   7  20
ATOM     20  N   LIG    1       -4.729  -3.936   1.498  0.00  0.00    -0.308 NA
ATOM     21  H   LIG    1       -3.764  -3.878   1.420  0.00  0.00    +0.123 HD
BRANCH  20  22
ATOM     22  C   LIG    1       -5.353  -4.027   2.821  0.00  0.00    +0.057 C 
ATOM     23  C   LIG    1       -4.320  -4.494   3.872  0.00  0.00    +0.022 C 
ATOM     24  C   LIG    1       -4.242  -3.321   4.896  0.00  0.00    -0.009 C 
ATOM     25  C   LIG    1       -3.506  -2.181   4.129  0.00  0.00    +0.004 C 
ATOM     26  C   LIG    1       -4.523  -1.705   3.066  0.00  0.00    +0.005 C 
ATOM     27  C   LIG    1       -5.725  -2.809   4.865  0.00  0.00    +0.008 C 
ATOM     28  C   LIG    1       -5.804  -2.616   3.308  0.00  0.00    +0.006 C 
ENDBRANCH  20  22
ENDBRANCH   7  20
TORSDOF 7
