REMARK  Name = ZINC22418572
REMARK                            x       y       z     vdW  Elec       q    Type
REMARK                         _______ _______ _______ _____ _____    ______ ____
ROOT
ATOM      1  C   LIG    1       -0.074   1.577   0.029  0.00  0.00    +0.104 C 
ENDROOT
BRANCH   1   7
ATOM      2  C   LIG    1       -4.215   2.247  -3.753  0.00  0.00    -0.096 C 
ATOM      3  N   LIG    1       -3.317   2.258  -2.590  0.00  0.00    +0.379 N 
ATOM      4  H   LIG    1       -3.782   2.881  -1.812  0.00  0.00    -0.082 HD
ATOM      5  C   LIG    1       -3.145   0.904  -2.045  0.00  0.00    -0.064 C 
ATOM      6  C   LIG    1       -2.270   0.970  -0.791  0.00  0.00    +0.066 C 
ATOM      7  N   LIG    1       -0.971   1.566  -1.134  0.00  0.00    -0.297 NA
ATOM      8  C   LIG    1       -1.143   2.920  -1.679  0.00  0.00    +0.066 C 
ATOM      9  C   LIG    1       -2.018   2.854  -2.933  0.00  0.00    -0.064 C 
ENDBRANCH   1   7
BRANCH   1  10
ATOM     10  C   LIG    1        1.230   2.231  -0.349  0.00  0.00    -0.029 A 
ATOM     11  C   LIG    1        1.798   1.974  -1.583  0.00  0.00    +0.007 A 
ATOM     12  C   LIG    1        2.990   2.576  -1.935  0.00  0.00    +0.023 A 
ATOM     13  C   LIG    1        3.624   3.432  -1.043  0.00  0.00    +0.029 A 
ATOM     14  C   LIG    1        3.054   3.683   0.198  0.00  0.00    +0.023 A 
ATOM     15  C   LIG    1        1.859   3.082   0.541  0.00  0.00    +0.007 A 
BRANCH  13  16
ATOM     16  N   LIG    1        4.833   4.037  -1.393  0.00  0.00    -0.336 N 
ATOM     17  C   LIG    1        5.368   3.876  -2.748  0.00  0.00    +0.129 C 
ATOM     18  C   LIG    1        5.567   4.834  -0.406  0.00  0.00    +0.129 C 
ENDBRANCH  13  16
ENDBRANCH   1  10
BRANCH   1  19
ATOM     19  C   LIG    1        0.189   0.141   0.485  0.00  0.00    +0.129 C 
BRANCH  19  20
ATOM     20  N   LIG    1        0.995   0.156   1.708  0.00  0.00    -0.297 N 
ATOM     21  H   LIG    1        1.238   1.112   2.195  0.00  0.00    +0.150 HD
ATOM     22  C   LIG    1        1.440  -1.002   2.236  0.00  0.00    +0.304 C 
ATOM     23  N   LIG    1        2.182  -0.988   3.361  0.00  0.00    -0.269 N 
ATOM     24  H   LIG    1        2.489  -0.029   3.806  0.00  0.00    +0.156 HD
ATOM     25  O   LIG    1        1.172  -2.058   1.698  0.00  0.00    -0.253 OA
BRANCH  23  26
ATOM     26  C   LIG    1        2.561  -2.193   3.965  0.00  0.00    +0.035 A 
ATOM     27  C   LIG    1        2.643  -2.283   5.348  0.00  0.00    +0.026 A 
ATOM     28  C   LIG    1        3.011  -3.474   5.942  0.00  0.00    +0.040 A 
ATOM     29  C   LIG    1        3.311  -4.575   5.158  0.00  0.00    +0.124 A 
ATOM     30  F   LIG    1        3.676  -5.739   5.740  0.00  0.00    -0.205 F 
ATOM     31  C   LIG    1        3.236  -4.487   3.778  0.00  0.00    +0.040 A 
ATOM     32  C   LIG    1        2.862  -3.299   3.181  0.00  0.00    +0.026 A 
ENDBRANCH  23  26
ENDBRANCH  19  20
ENDBRANCH   1  19
TORSDOF 6
