REMARK  Name = ZINC27646193
REMARK                            x       y       z     vdW  Elec       q    Type
REMARK                         _______ _______ _______ _____ _____    ______ ____
ROOT
ATOM      1  O   LIG    1        2.366   1.119  -0.014  0.00  0.00    -0.412 OA
ENDROOT
BRANCH   1   2
ATOM      2  C   LIG    1        1.183   1.786   0.021  0.00  0.00    +0.134 A 
ATOM      3  C   LIG    1        0.701   2.404  -1.125  0.00  0.00    +0.046 A 
ATOM      4  C   LIG    1       -0.500   3.088  -1.093  0.00  0.00    +0.004 A 
ATOM      5  C   LIG    1       -1.232   3.150   0.076  0.00  0.00    +0.009 A 
ATOM      6  C   LIG    1       -0.756   2.532   1.230  0.00  0.00    -0.014 A 
ATOM      7  C   LIG    1        0.457   1.848   1.199  0.00  0.00    +0.055 A 
BRANCH   6   8
ATOM      8  C   LIG    1       -1.538   2.602   2.489  0.00  0.00    -0.017 A 
ATOM      9  C   LIG    1       -1.063   1.978   3.642  0.00  0.00    +0.008 A 
ATOM     10  C   LIG    1       -1.787   2.046   4.817  0.00  0.00    +0.001 A 
ATOM     11  C   LIG    1       -2.990   2.723   4.855  0.00  0.00    +0.013 A 
ATOM     12  C   LIG    1       -3.479   3.347   3.705  0.00  0.00    +0.037 A 
ATOM     13  C   LIG    1       -2.749   3.285   2.519  0.00  0.00    +0.021 A 
BRANCH  12  14
ATOM     14  C   LIG    1       -4.767   4.071   3.746  0.00  0.00    +0.242 C 
ATOM     15  N   LIG    1       -5.471   4.130   4.894  0.00  0.00    -0.325 N 
ATOM     16  H   LIG    1       -5.087   3.639   5.801  0.00  0.00    +0.145 HD
ATOM     17  H   LIG    1       -6.430   4.668   4.925  0.00  0.00    +0.145 HD
ATOM     18  O   LIG    1       -5.192   4.613   2.745  0.00  0.00    -0.270 OA
ENDBRANCH  12  14
ENDBRANCH   6   8
ENDBRANCH   1   2
BRANCH   1  21
ATOM     19  N   LIG    1        3.455  -0.937   0.178  0.00  0.00    -0.281 N 
ATOM     20  H   LIG    1        4.427  -0.422   0.173  0.00  0.00    +0.152 HD
ATOM     21  C   LIG    1        2.315  -0.224   0.084  0.00  0.00    +0.406 C 
ATOM     22  O   LIG    1        1.241  -0.792   0.089  0.00  0.00    -0.226 OA
BRANCH  19  23
ATOM     23  C   LIG    1        3.399  -2.397   0.285  0.00  0.00    +0.107 C 
BRANCH  23  24
ATOM     24  C   LIG    1        4.820  -2.956   0.377  0.00  0.00    +0.019 C 
BRANCH  24  25
ATOM     25  C   LIG    1        4.762  -4.481   0.488  0.00  0.00    +0.002 C 
BRANCH  25  26
ATOM     26  C   LIG    1        6.183  -5.040   0.580  0.00  0.00    +0.000 C 
BRANCH  26  27
ATOM     27  C   LIG    1        6.125  -6.565   0.692  0.00  0.00    +0.005 C 
BRANCH  27  28
ATOM     28  C   LIG    1        7.546  -7.124   0.784  0.00  0.00    +0.035 C 
BRANCH  28  32
ATOM     29  C   LIG    1        7.383 -11.382   1.095  0.00  0.00    +0.000 A 
ATOM     30  C   LIG    1        7.452 -10.782  -0.148  0.00  0.00    +0.000 A 
ATOM     31  C   LIG    1        7.504  -9.404  -0.249  0.00  0.00    +0.003 A 
ATOM     32  C   LIG    1        7.488  -8.626   0.894  0.00  0.00    -0.047 A 
ATOM     33  C   LIG    1        7.426  -9.226   2.137  0.00  0.00    +0.003 A 
ATOM     34  C   LIG    1        7.368 -10.604   2.238  0.00  0.00    +0.000 A 
ENDBRANCH  28  32
ENDBRANCH  27  28
ENDBRANCH  26  27
ENDBRANCH  25  26
ENDBRANCH  24  25
ENDBRANCH  23  24
ENDBRANCH  19  23
ENDBRANCH   1  21
TORSDOF 11
