REMARK  Name = ZINC13834247
REMARK                            x       y       z     vdW  Elec       q    Type
REMARK                         _______ _______ _______ _____ _____    ______ ____
ROOT
ATOM      1  C   LIG    1        3.123   2.398   1.185  0.00  0.00    +0.051 A 
ATOM      2  C   LIG    1        3.741   2.695  -0.017  0.00  0.00    +0.021 A 
ATOM      3  C   LIG    1        3.105   2.413  -1.213  0.00  0.00    +0.174 A 
ATOM      4  F   LIG    1        3.711   2.704  -2.385  0.00  0.00    -0.201 F 
ATOM      5  C   LIG    1        1.845   1.831  -1.209  0.00  0.00    +0.197 A 
ATOM      6  C   LIG    1        1.224   1.533  -0.001  0.00  0.00    +0.197 A 
ATOM      7  C   LIG    1        1.865   1.823   1.195  0.00  0.00    +0.169 A 
ATOM      8  F   LIG    1        1.261   1.540   2.370  0.00  0.00    -0.202 F 
ENDROOT
BRANCH   5   9
ATOM      9  O   LIG    1        1.219   1.553  -2.384  0.00  0.00    -0.501 OA
ATOM     10  H   LIG    1        0.667   2.275  -2.716  0.00  0.00    +0.292 HD
ENDBRANCH   5   9
BRANCH   6  11
ATOM     11  O   LIG    1       -0.011   0.963   0.007  0.00  0.00    -0.501 OA
ATOM     12  H   LIG    1        0.002  -0.004   0.002  0.00  0.00    +0.292 HD
ENDBRANCH   6  11
BRANCH   2  13
ATOM     13  C   LIG    1        5.109   3.326  -0.023  0.00  0.00    +0.130 C 
BRANCH  13  14
ATOM     14  O   LIG    1        5.789   3.001   1.191  0.00  0.00    -0.389 OA
ATOM     15  H   LIG    1        5.337   3.307   1.990  0.00  0.00    +0.210 HD
ENDBRANCH  13  14
BRANCH  13  16
ATOM     16  C   LIG    1        4.969   4.846  -0.138  0.00  0.00    -0.050 C 
BRANCH  16  17
ATOM     17  N   LIG    1        6.311   5.445  -0.242  0.00  0.00    +0.380 N 
ATOM     18  H   LIG    1        6.843   5.231   0.610  0.00  0.00    -0.090 HD
ATOM     19  H   LIG    1        6.236   6.456  -0.342  0.00  0.00    -0.090 HD
ATOM     20  H   LIG    1        6.804   5.061  -1.047  0.00  0.00    -0.090 HD
ENDBRANCH  16  17
ENDBRANCH  13  16
ENDBRANCH   2  13
TORSDOF 6
