REMARK  Name = ZINC13831927
REMARK                            x       y       z     vdW  Elec       q    Type
REMARK                         _______ _______ _______ _____ _____    ______ ____
ROOT
ATOM      1  C   LIG    1       -0.782   1.596   1.290  0.00  0.00    +0.088 A 
ATOM      2  N   LIG    1       -1.672   0.938   1.989  0.00  0.00    -0.349 N 
ATOM      3  H   LIG    1       -2.026   0.001   1.764  0.00  0.00    +0.166 HD
ATOM      4  C   LIG    1       -2.049   1.671   3.039  0.00  0.00    +0.110 A 
ATOM      5  C   LIG    1       -1.349   2.861   2.991  0.00  0.00    +0.060 A 
ATOM      6  N   LIG    1       -0.544   2.788   1.870  0.00  0.00    -0.325 N 
ENDROOT
BRANCH   5   7
ATOM      7  C   LIG    1       -1.436   3.937   3.909  0.00  0.00    +0.034 C 
ATOM      8  C   LIG    1       -2.196   3.816   5.027  0.00  0.00    +0.093 C 
BRANCH   8   9
ATOM      9  C   LIG    1       -2.198   4.846   5.994  0.00  0.00    +0.330 C 
ATOM     10  O   LIG    1       -1.518   5.841   5.825  0.00  0.00    -0.246 OA
BRANCH   9  11
ATOM     11  O   LIG    1       -2.954   4.726   7.106  0.00  0.00    -0.478 OA
ATOM     12  H   LIG    1       -3.477   3.960   7.236  0.00  0.00    +0.295 HD
ENDBRANCH   9  11
ENDBRANCH   8   9
ENDBRANCH   5   7
BRANCH   1  13
ATOM     13  C   LIG    1       -0.120   1.094   0.032  0.00  0.00    +0.072 C 
BRANCH  13  14
ATOM     14  C   LIG    1       -0.881   1.616  -1.188  0.00  0.00    +0.007 C 
BRANCH  14  16
ATOM     15  C   LIG    1       -0.901   1.732  -3.684  0.00  0.00    +0.004 C 
ATOM     16  C   LIG    1       -0.140   1.209  -2.463  0.00  0.00    -0.003 C 
ENDBRANCH  14  16
ENDBRANCH  13  14
ENDBRANCH   1  13
BRANCH   6  17
ATOM     17  C   LIG    1        0.389   3.815   1.400  0.00  0.00    +0.158 C 
BRANCH  17  18
ATOM     18  C   LIG    1        1.762   3.537   1.954  0.00  0.00    -0.028 A 
ATOM     19  C   LIG    1        2.091   3.968   3.227  0.00  0.00    +0.006 A 
ATOM     20  C   LIG    1        3.345   3.713   3.742  0.00  0.00    +0.015 A 
ATOM     21  C   LIG    1        4.287   3.027   2.972  0.00  0.00    +0.059 A 
ATOM     22  C   LIG    1        3.950   2.600   1.686  0.00  0.00    +0.015 A 
ATOM     23  C   LIG    1        2.690   2.857   1.185  0.00  0.00    +0.006 A 
BRANCH  21  24
ATOM     24  C   LIG    1        5.633   2.755   3.515  0.00  0.00    +0.337 C 
ATOM     25  O   LIG    1        6.450   2.158   2.843  0.00  0.00    -0.245 OA
BRANCH  24  26
ATOM     26  O   LIG    1        5.955   3.169   4.756  0.00  0.00    -0.477 OA
ATOM     27  H   LIG    1        5.325   3.629   5.275  0.00  0.00    +0.295 HD
ENDBRANCH  24  26
ENDBRANCH  21  24
ENDBRANCH  17  18
ENDBRANCH   6  17
TORSDOF 10
