REMARK  Name = ZINC19365773
REMARK                            x       y       z     vdW  Elec       q    Type
REMARK                         _______ _______ _______ _____ _____    ______ ____
ROOT
ATOM      1  C   LIG    1        1.216  -2.690  -1.467  0.00  0.00    +0.088 C 
ENDROOT
BRANCH   1   3
ATOM      2  C   LIG    1        2.497  -4.674  -0.933  0.00  0.00    +0.104 C 
ATOM      3  N   LIG    1        1.232  -4.159  -1.475  0.00  0.00    -0.307 NA
BRANCH   3   4
ATOM      4  C   LIG    1        0.987  -4.681  -2.826  0.00  0.00    +0.065 C 
BRANCH   4   5
ATOM      5  C   LIG    1        0.763  -6.192  -2.756  0.00  0.00    -0.063 C 
BRANCH   5   6
ATOM      6  N   LIG    1        0.518  -6.714  -4.107  0.00  0.00    +0.381 N 
ATOM      7  H   LIG    1       -0.464  -6.320  -4.406  0.00  0.00    -0.082 HD
ATOM      8  C   LIG    1        1.591  -6.292  -5.043  0.00  0.00    -0.079 C 
ATOM      9  C   LIG    1        1.474  -7.315  -6.201  0.00  0.00    -0.020 C 
ATOM     10  C   LIG    1        1.129  -8.631  -5.466  0.00  0.00    -0.020 C 
ATOM     11  C   LIG    1        0.534  -8.193  -4.115  0.00  0.00    -0.079 C 
ENDBRANCH   5   6
ENDBRANCH   4   5
ENDBRANCH   3   4
ENDBRANCH   1   3
BRANCH   1  12
ATOM     12  C   LIG    1        1.224  -2.188  -0.021  0.00  0.00    +0.050 C 
BRANCH  12  13
ATOM     13  C   LIG    1        1.208  -0.681  -0.013  0.00  0.00    -0.046 A 
ATOM     14  C   LIG    1        0.002  -0.004   0.002  0.00  0.00    +0.005 A 
ATOM     15  C   LIG    1       -0.017   1.377   0.010  0.00  0.00    +0.023 A 
ATOM     16  C   LIG    1        1.178   2.086   0.002  0.00  0.00    +0.025 A 
ATOM     17  C   LIG    1        2.387   1.403  -0.012  0.00  0.00    +0.023 A 
ATOM     18  C   LIG    1        2.399   0.022  -0.020  0.00  0.00    +0.005 A 
BRANCH  16  19
ATOM     19  N   LIG    1        1.162   3.483   0.010  0.00  0.00    -0.358 N 
ATOM     20  H   LIG    1        0.204   4.022   0.022  0.00  0.00    +0.142 HD
ATOM     21  H   LIG    1        2.109   4.043   0.004  0.00  0.00    +0.142 HD
ENDBRANCH  16  19
ENDBRANCH  12  13
ENDBRANCH   1  12
TORSDOF 7
