REMARK  Name = ZINC66080466
REMARK                            x       y       z     vdW  Elec       q    Type
REMARK                         _______ _______ _______ _____ _____    ______ ____
ROOT
ATOM      1  C   LIG    1       -3.166  -3.674  -0.082  0.00  0.00    +0.053 A 
ATOM      2  C   LIG    1       -2.135  -4.604  -0.090  0.00  0.00    +0.028 A 
ATOM      3  C   LIG    1       -2.421  -5.951  -0.182  0.00  0.00    +0.048 A 
ATOM      4  C   LIG    1       -3.739  -6.378  -0.267  0.00  0.00    +0.132 A 
ATOM      5  C   LIG    1       -4.770  -5.450  -0.260  0.00  0.00    +0.068 A 
ATOM      6  C   LIG    1       -4.486  -4.101  -0.162  0.00  0.00    +0.066 A 
ATOM      7 CL   LIG    1       -5.777  -2.941  -0.146  0.00  0.00    -0.082 Cl
ENDROOT
BRANCH   1  11
ATOM      8  N   LIG    1       -1.536  -0.482  -0.561  0.00  0.00    -0.299 N 
ATOM      9  H   LIG    1       -2.166   0.116  -0.129  0.00  0.00    +0.150 HD
ATOM     10  C   LIG    1       -1.769  -1.810  -0.574  0.00  0.00    +0.304 C 
ATOM     11  N   LIG    1       -2.877  -2.306   0.012  0.00  0.00    -0.268 N 
ATOM     12  H   LIG    1       -3.473  -1.716   0.498  0.00  0.00    +0.156 HD
ATOM     13  O   LIG    1       -0.979  -2.560  -1.115  0.00  0.00    -0.253 OA
BRANCH   8  15
ATOM     14  C   LIG    1       -0.310   1.579  -1.040  0.00  0.00    +0.024 C 
ATOM     15  C   LIG    1       -0.332   0.057  -1.197  0.00  0.00    +0.102 C 
ENDBRANCH   8  15
ENDBRANCH   1  11
BRANCH   4  16
ATOM     16  O   LIG    1       -4.019  -7.705  -0.358  0.00  0.00    -0.437 OA
BRANCH  16  17
ATOM     17  C   LIG    1       -3.903  -8.457   0.762  0.00  0.00    +0.234 A 
ATOM     18  C   LIG    1       -4.273  -9.812   0.754  0.00  0.00    +0.097 A 
ATOM     19  C   LIG    1       -4.130 -10.543   1.948  0.00  0.00    +0.132 A 
ATOM     20  N   LIG    1       -3.655  -9.923   3.025  0.00  0.00    -0.220 NA
ATOM     21  C   LIG    1       -3.321  -8.649   2.983  0.00  0.00    +0.227 A 
ATOM     22  N   LIG    1       -3.432  -7.928   1.886  0.00  0.00    -0.200 NA
BRANCH  19  23
ATOM     23  N   LIG    1       -4.478 -11.879   2.002  0.00  0.00    -0.342 N 
ATOM     24  H   LIG    1       -4.445 -12.355   2.847  0.00  0.00    +0.144 HD
ATOM     25  H   LIG    1       -4.755 -12.341   1.195  0.00  0.00    +0.144 HD
ENDBRANCH  19  23
BRANCH  18  26
ATOM     26  C   LIG    1       -4.795 -10.449  -0.467  0.00  0.00    +0.169 C 
ATOM     27  N   LIG    1       -4.827  -9.787  -1.580  0.00  0.00    -0.093 NA
BRANCH  27  28
ATOM     28  O   LIG    1       -5.329 -10.399  -2.753  0.00  0.00    -0.397 OA
ATOM     29  C   LIG    1       -5.305  -9.555  -3.906  0.00  0.00    +0.313 C 
ENDBRANCH  27  28
ENDBRANCH  18  26
ENDBRANCH  16  17
ENDBRANCH   4  16
TORSDOF 7
