REMARK  Name = ZINC19901366
REMARK                            x       y       z     vdW  Elec       q    Type
REMARK                         _______ _______ _______ _____ _____    ______ ____
ROOT
ATOM      1  N   LIG    1        2.040   5.669   0.271  0.00  0.00    +0.383 N 
ATOM      2  H   LIG    1        1.353   5.769   1.125  0.00  0.00    -0.082 HD
ATOM      3  C   LIG    1        1.351   6.170  -0.927  0.00  0.00    -0.063 C 
ATOM      4  C   LIG    1        0.948   7.630  -0.707  0.00  0.00    +0.066 C 
ATOM      5  N   LIG    1        2.147   8.429  -0.419  0.00  0.00    -0.304 NA
ATOM      6  C   LIG    1        2.836   7.928   0.778  0.00  0.00    +0.066 C 
ATOM      7  C   LIG    1        3.239   6.468   0.558  0.00  0.00    -0.063 C 
ENDROOT
BRANCH   1   8
ATOM      8  C   LIG    1        2.376   4.246   0.128  0.00  0.00    -0.044 C 
BRANCH   8   9
ATOM      9  C   LIG    1        2.628   3.640   1.510  0.00  0.00    +0.135 C 
BRANCH   9  10
ATOM     10  O   LIG    1        1.448   3.763   2.306  0.00  0.00    -0.390 OA
ATOM     11  H   LIG    1        1.032   4.757   2.524  0.00  0.00    +0.210 HD
ENDBRANCH   9  10
BRANCH   9  12
ATOM     12  C   LIG    1        2.992   2.162   1.360  0.00  0.00    +0.258 C 
BRANCH  12  13
ATOM     13  O   LIG    1        3.341   1.625   2.638  0.00  0.00    -0.489 OA
BRANCH  13  19
ATOM     14  C   LIG    1        4.068  -2.597   0.300  0.00  0.00    +0.044 C 
ATOM     15  C   LIG    1        4.058  -1.776   1.563  0.00  0.00    -0.047 A 
ATOM     16  C   LIG    1        4.407  -2.358   2.768  0.00  0.00    +0.004 A 
ATOM     17  C   LIG    1        4.399  -1.607   3.929  0.00  0.00    +0.008 A 
ATOM     18  C   LIG    1        4.048  -0.272   3.887  0.00  0.00    -0.003 A 
ATOM     19  C   LIG    1        3.692   0.313   2.681  0.00  0.00    +0.124 A 
ATOM     20  C   LIG    1        3.701  -0.443   1.517  0.00  0.00    +0.049 A 
BRANCH  18  21
ATOM     21  C   LIG    1        4.045   0.547   5.152  0.00  0.00    +0.016 C 
ATOM     22  C   LIG    1        5.451   0.559   5.755  0.00  0.00    +0.012 C 
ATOM     23  C   LIG    1        3.066  -0.066   6.155  0.00  0.00    +0.012 C 
ENDBRANCH  18  21
ENDBRANCH  13  19
ENDBRANCH  12  13
ENDBRANCH   9  12
ENDBRANCH   8   9
ENDBRANCH   1   8
BRANCH   5  24
ATOM     24  C   LIG    1        1.811   9.852  -0.276  0.00  0.00    +0.106 C 
BRANCH  24  25
ATOM     25  C   LIG    1        0.885  10.274  -1.419  0.00  0.00    +0.144 C 
BRANCH  25  26
ATOM     26  N   LIG    1        0.549  11.693  -1.276  0.00  0.00    -0.274 N 
ATOM     27  C   LIG    1       -0.542  12.033  -0.563  0.00  0.00    +0.262 A 
ATOM     28  C   LIG    1       -0.908  13.446  -0.394  0.00  0.00    +0.048 A 
ATOM     29  C   LIG    1       -2.020  13.841   0.335  0.00  0.00    +0.014 A 
ATOM     30  C   LIG    1       -2.329  15.190   0.463  0.00  0.00    +0.001 A 
ATOM     31  C   LIG    1       -1.559  16.158  -0.117  0.00  0.00    +0.008 A 
ATOM     32  C   LIG    1       -0.423  15.800  -0.864  0.00  0.00    -0.016 A 
ATOM     33  C   LIG    1        0.400  16.759  -1.480  0.00  0.00    +0.008 A 
ATOM     34  C   LIG    1        1.493  16.362  -2.196  0.00  0.00    +0.001 A 
ATOM     35  C   LIG    1        1.822  15.019  -2.339  0.00  0.00    +0.014 A 
ATOM     36  C   LIG    1        1.035  14.042  -1.746  0.00  0.00    +0.048 A 
ATOM     37  C   LIG    1       -0.100  14.434  -1.001  0.00  0.00    +0.007 A 
ATOM     38  O   LIG    1       -1.225  11.165  -0.054  0.00  0.00    -0.267 OA
ATOM     39  C   LIG    1        1.340  12.609  -1.867  0.00  0.00    +0.262 A 
ATOM     40  O   LIG    1        2.311  12.249  -2.504  0.00  0.00    -0.267 OA
ENDBRANCH  25  26
ENDBRANCH  24  25
ENDBRANCH   5  24
TORSDOF 10
