REMARK  Name = ZINC21525625
REMARK                            x       y       z     vdW  Elec       q    Type
REMARK                         _______ _______ _______ _____ _____    ______ ____
ROOT
ATOM      1  C   LIG    1       -1.229   2.022   0.019  0.00  0.00    +0.223 A 
ATOM      2  N   LIG    1       -2.354   1.327   0.015  0.00  0.00    -0.214 NA
ATOM      3  C   LIG    1       -3.537   1.940   0.029  0.00  0.00    +0.077 A 
ATOM      4  C   LIG    1       -3.576   3.335   0.036  0.00  0.00    +0.057 A 
ATOM      5  C   LIG    1       -2.367   4.031   0.035  0.00  0.00    +0.077 A 
ATOM      6  N   LIG    1       -1.225   3.345   0.026  0.00  0.00    -0.214 NA
ENDROOT
BRANCH   3   7
ATOM      7  C   LIG    1       -4.793   1.152   0.030  0.00  0.00    +0.001 A 
ATOM      8  C   LIG    1       -6.026   1.802   0.044  0.00  0.00    +0.010 A 
ATOM      9  C   LIG    1       -7.192   1.064   0.041  0.00  0.00    +0.004 A 
ATOM     10  C   LIG    1       -7.139  -0.319   0.033  0.00  0.00    -0.050 A 
ATOM     11  C   LIG    1       -8.415  -1.119   0.035  0.00  0.00    +0.044 C 
ATOM     12  C   LIG    1       -5.918  -0.969   0.024  0.00  0.00    +0.004 A 
ATOM     13  C   LIG    1       -4.745  -0.241   0.022  0.00  0.00    +0.010 A 
ENDBRANCH   3   7
BRANCH   5  14
ATOM     14  C   LIG    1       -2.353   5.514   0.043  0.00  0.00    +0.001 A 
ATOM     15  C   LIG    1       -3.552   6.225   0.046  0.00  0.00    +0.010 A 
ATOM     16  C   LIG    1       -3.533   7.605   0.059  0.00  0.00    +0.004 A 
ATOM     17  C   LIG    1       -2.327   8.283   0.058  0.00  0.00    -0.050 A 
ATOM     18  C   LIG    1       -2.313   9.789   0.066  0.00  0.00    +0.044 C 
ATOM     19  C   LIG    1       -1.134   7.582   0.050  0.00  0.00    +0.004 A 
ATOM     20  C   LIG    1       -1.141   6.202   0.042  0.00  0.00    +0.010 A 
ENDBRANCH   5  14
BRANCH   1  22
ATOM     21  C   LIG    1        0.002  -0.004   0.002  0.00  0.00    +0.219 C 
ATOM     22  N   LIG    1       -0.016   1.344   0.009  0.00  0.00    -0.254 N 
ATOM     23  H   LIG    1        0.929   1.907   0.008  0.00  0.00    +0.158 HD
ATOM     24  O   LIG    1       -1.040  -0.625   0.009  0.00  0.00    -0.275 OA
BRANCH  21  25
ATOM     25  C   LIG    1        1.317  -0.740  -0.015  0.00  0.00    +0.096 C 
BRANCH  25  27
ATOM     26  C   LIG    1        2.393  -2.994  -0.037  0.00  0.00    +0.004 C 
ATOM     27  C   LIG    1        1.058  -2.248  -0.020  0.00  0.00    +0.006 C 
ENDBRANCH  25  27
ENDBRANCH  21  25
ENDBRANCH   1  22
TORSDOF 5
