REMARK  Name = ZINC28637597
REMARK                            x       y       z     vdW  Elec       q    Type
REMARK                         _______ _______ _______ _____ _____    ______ ____
ROOT
ATOM      1  S   LIG    1        0.706   1.199   0.614  0.00  0.00    +0.050 S 
ATOM      2  O   LIG    1       -0.155   0.890   1.701  0.00  0.00    -0.155 OA
ATOM      3  O   LIG    1        1.800   2.089   0.786  0.00  0.00    -0.155 OA
ENDROOT
BRANCH   1   9
ATOM      4  C   LIG    1       -0.667   3.123  -0.714  0.00  0.00    +0.058 C 
ATOM      5  C   LIG    1       -0.628   3.983  -1.707  0.00  0.00    -0.014 C 
ATOM      6  C   LIG    1       -0.165   3.636  -3.092  0.00  0.00    +0.028 C 
ATOM      7  C   LIG    1       -0.169   2.118  -3.284  0.00  0.00    +0.006 C 
ATOM      8  C   LIG    1        0.568   1.476  -2.102  0.00  0.00    +0.033 C 
ATOM      9  C   LIG    1       -0.269   1.681  -0.838  0.00  0.00    +0.188 C 
BRANCH   4  10
ATOM     10  C   LIG    1       -1.133   3.602   0.595  0.00  0.00    +0.337 C 
ATOM     11  O   LIG    1       -1.342   4.787   0.769  0.00  0.00    -0.245 OA
BRANCH  10  12
ATOM     12  O   LIG    1       -1.328   2.728   1.603  0.00  0.00    -0.462 OA
BRANCH  12  14
ATOM     13  C   LIG    1       -1.750   2.159   3.933  0.00  0.00    +0.048 C 
ATOM     14  C   LIG    1       -1.688   3.282   2.896  0.00  0.00    +0.229 C 
ENDBRANCH  12  14
ENDBRANCH  10  12
ENDBRANCH   4  10
ENDBRANCH   1   9
BRANCH   1  15
ATOM     15  N   LIG    1        1.399  -0.247   0.200  0.00  0.00    -0.217 N 
ATOM     16  H   LIG    1        1.164  -1.155   0.775  0.00  0.00    +0.173 HD
BRANCH  15  17
ATOM     17  C   LIG    1        2.284  -0.314  -0.882  0.00  0.00    +0.083 A 
ATOM     18  C   LIG    1        3.149   0.741  -1.139  0.00  0.00    +0.029 A 
ATOM     19  C   LIG    1        4.025   0.670  -2.205  0.00  0.00    +0.022 A 
ATOM     20  C   LIG    1        4.035  -0.447  -3.023  0.00  0.00    +0.044 A 
ATOM     21 CL   LIG    1        5.134  -0.528  -4.364  0.00  0.00    -0.083 Cl
ATOM     22  C   LIG    1        3.171  -1.498  -2.773  0.00  0.00    +0.060 A 
ATOM     23  C   LIG    1        2.295  -1.436  -1.704  0.00  0.00    +0.147 A 
ATOM     24  F   LIG    1        1.451  -2.462  -1.460  0.00  0.00    -0.203 F 
ENDBRANCH  15  17
ENDBRANCH   1  15
TORSDOF 6
