REMARK  Name = ZINC21989874
REMARK                            x       y       z     vdW  Elec       q    Type
REMARK                         _______ _______ _______ _____ _____    ______ ____
ROOT
ATOM      1  C   LIG    1       -1.298  -1.447  -4.381  0.00  0.00    +0.016 C 
ATOM      2  C   LIG    1       -0.030  -1.412  -3.526  0.00  0.00    +0.062 C 
ATOM      3  C   LIG    1       -0.033  -0.173  -2.620  0.00  0.00    +0.050 C 
ATOM      4  C   LIG    1       -0.006  -0.687  -1.200  0.00  0.00    +0.009 A 
ATOM      5  C   LIG    1        0.019  -2.084  -1.209  0.00  0.00    +0.025 A 
ATOM      6  C   LIG    1        0.040  -2.782   0.011  0.00  0.00    +0.015 A 
ATOM      7  C   LIG    1        0.042  -2.094   1.202  0.00  0.00    +0.050 A 
ATOM      8  C   LIG    1        0.023  -0.706   1.207  0.00  0.00    +0.162 A 
ATOM      9  C   LIG    1        0.002  -0.004   0.002  0.00  0.00    +0.165 A 
ATOM     10  C   LIG    1        0.013  -2.594  -2.587  0.00  0.00    +0.167 C 
ATOM     11  O   LIG    1        0.026  -3.762  -2.914  0.00  0.00    -0.292 OA
ENDROOT
BRANCH   8  12
ATOM     12  O   LIG    1        0.025  -0.031   2.385  0.00  0.00    -0.491 OA
ATOM     13  C   LIG    1        0.047  -0.814   3.580  0.00  0.00    +0.277 C 
ENDBRANCH   8  12
BRANCH   9  14
ATOM     14  O   LIG    1       -0.016   1.356   0.009  0.00  0.00    -0.491 OA
ATOM     15  C   LIG    1        1.248   2.022   0.001  0.00  0.00    +0.277 C 
ENDBRANCH   9  14
TORSDOF 2
