REMARK  Name = ZINC17995199
REMARK                            x       y       z     vdW  Elec       q    Type
REMARK                         _______ _______ _______ _____ _____    ______ ____
ROOT
ATOM      1  C   LIG    1        0.002  -0.004   0.002  0.00  0.00    +0.176 C 
ATOM      2  C   LIG    1       -0.018   1.508   0.010  0.00  0.00    +0.176 C 
ATOM      3  C   LIG    1        1.368   2.116   0.000  0.00  0.00    +0.177 C 
ATOM      4  C   LIG    1        2.295   1.454   1.009  0.00  0.00    +0.181 C 
ATOM      5  C   LIG    1        1.978   0.076   1.566  0.00  0.00    +0.181 C 
ATOM      6  O   LIG    1        2.957   0.287   0.559  0.00  0.00    -0.363 OA
ATOM      7  C   LIG    1        0.659  -0.591   1.233  0.00  0.00    +0.177 C 
ENDROOT
BRANCH   1   8
ATOM      8  O   LIG    1       -1.343  -0.482  -0.072  0.00  0.00    -0.386 OA
ATOM      9  H   LIG    1       -1.993  -0.169  -0.902  0.00  0.00    +0.210 HD
ENDBRANCH   1   8
BRANCH   2  10
ATOM     10  O   LIG    1       -0.730   1.966  -1.141  0.00  0.00    -0.386 OA
ATOM     11  H   LIG    1       -0.856   3.044  -1.318  0.00  0.00    +0.210 HD
ENDBRANCH   2  10
BRANCH   3  12
ATOM     12  O   LIG    1        1.267   3.508   0.308  0.00  0.00    -0.386 OA
ATOM     13  H   LIG    1        2.173   4.130   0.349  0.00  0.00    +0.210 HD
ENDBRANCH   3  12
BRANCH   7  14
ATOM     14  O   LIG    1        0.889  -1.984   1.014  0.00  0.00    -0.386 OA
ATOM     15  H   LIG    1        1.362  -2.594   1.797  0.00  0.00    +0.210 HD
ENDBRANCH   7  14
TORSDOF 4
