REMARK  Name = ZINC29039133
REMARK                            x       y       z     vdW  Elec       q    Type
REMARK                         _______ _______ _______ _____ _____    ______ ____
ROOT
ATOM      1  C   LIG    1       -0.761   1.658   1.212  0.00  0.00    -0.004 C 
ATOM      2  C   LIG    1       -2.270   1.472   0.999  0.00  0.00    -0.082 C 
ATOM      3  N   LIG    1       -2.694   2.224  -0.184  0.00  0.00    +0.379 N 
ATOM      4  H   LIG    1       -2.465   3.290  -0.043  0.00  0.00    -0.086 HD
ATOM      5  H   LIG    1       -3.777   2.098  -0.330  0.00  0.00    -0.086 HD
ATOM      6  C   LIG    1       -2.030   1.787  -1.401  0.00  0.00    -0.074 C 
ATOM      7  C   LIG    1       -0.535   1.686  -1.308  0.00  0.00    +0.009 C 
ATOM      8  C   LIG    1        0.175   2.948  -1.658  0.00  0.00    -0.002 C 
ATOM      9  C   LIG    1        1.345   3.207  -1.095  0.00  0.00    +0.047 C 
ATOM     10 BR   LIG    1        2.441   4.720  -1.387  0.00  0.00    -0.043 Br
ATOM     11  S   LIG    1        1.676   1.834  -0.004  0.00  0.00    -0.114 S 
ATOM     12  C   LIG    1       -0.013   1.086   0.008  0.00  0.00    +0.055 C 
ENDROOT
TORSDOF 0
