REMARK  Name = ZINC20324905
REMARK                            x       y       z     vdW  Elec       q    Type
REMARK                         _______ _______ _______ _____ _____    ______ ____
ROOT
ATOM      1  C   LIG    1       -1.062  -3.902   0.410  0.00  0.00    +0.393 C 
ATOM      2  N   LIG    1       -0.948  -4.328   1.636  0.00  0.00    -0.129 NA
ATOM      3  H   LIG    1       -0.732  -5.258   1.808  0.00  0.00    +0.306 HD
ENDROOT
BRANCH   1   4
ATOM      4  N   LIG    1       -1.266  -2.564   0.163  0.00  0.00    -0.240 N 
ATOM      5  H   LIG    1       -1.442  -2.259  -0.741  0.00  0.00    +0.265 HD
BRANCH   4  12
ATOM      6  C   LIG    1       -1.887  -0.424   1.109  0.00  0.00    +0.158 A 
ATOM      7  C   LIG    1       -1.844   0.482   2.156  0.00  0.00    +0.050 A 
ATOM      8  C   LIG    1       -1.134   0.179   3.304  0.00  0.00    +0.024 A 
ATOM      9  C   LIG    1       -0.466  -1.028   3.410  0.00  0.00    +0.044 A 
ATOM     10 CL   LIG    1        0.423  -1.402   4.853  0.00  0.00    -0.083 Cl
ATOM     11  C   LIG    1       -0.505  -1.937   2.369  0.00  0.00    +0.066 A 
ATOM     12  C   LIG    1       -1.220  -1.642   1.217  0.00  0.00    +0.143 A 
BRANCH   6  14
ATOM     13  C   LIG    1       -3.245   1.139  -0.061  0.00  0.00    +0.277 C 
ATOM     14  O   LIG    1       -2.585  -0.128  -0.020  0.00  0.00    -0.492 OA
ENDBRANCH   6  14
ENDBRANCH   4  12
ENDBRANCH   1   4
BRANCH   1  15
ATOM     15  N   LIG    1       -0.977  -4.793  -0.641  0.00  0.00    -0.189 N 
ATOM     16  H   LIG    1       -0.928  -5.746  -0.467  0.00  0.00    +0.271 HD
BRANCH  15  17
ATOM     17  C   LIG    1       -0.961  -4.330  -1.934  0.00  0.00    +0.350 C 
ATOM     18  N   LIG    1       -1.335  -5.128  -2.931  0.00  0.00    -0.291 N 
ATOM     19  H   LIG    1       -1.324  -4.801  -3.844  0.00  0.00    +0.255 HD
ATOM     20  H   LIG    1       -1.619  -6.037  -2.744  0.00  0.00    +0.255 HD
BRANCH  17  21
ATOM     21  N   LIG    1       -0.571  -3.083  -2.190  0.00  0.00    -0.291 N 
ATOM     22  H   LIG    1       -0.758  -2.684  -3.054  0.00  0.00    +0.255 HD
ATOM     23  H   LIG    1       -0.100  -2.574  -1.512  0.00  0.00    +0.255 HD
ENDBRANCH  17  21
ENDBRANCH  15  17
ENDBRANCH   1  15
TORSDOF 6
