REMARK  Name = ZINC20148983
REMARK                            x       y       z     vdW  Elec       q    Type
REMARK                         _______ _______ _______ _____ _____    ______ ____
ROOT
ATOM      1  N   LIG    1        1.893   7.726  -0.005  0.00  0.00    -0.243 N 
ATOM      2  C   LIG    1        3.088   7.729   0.651  0.00  0.00    +0.164 A 
ATOM      3  C   LIG    1        3.389   6.388   0.957  0.00  0.00    +0.086 A 
ATOM      4  C   LIG    1        4.583   6.108   1.641  0.00  0.00    +0.131 A 
ATOM      5  N   LIG    1        5.376   7.124   1.969  0.00  0.00    -0.220 NA
ATOM      6  C   LIG    1        5.054   8.368   1.661  0.00  0.00    +0.225 A 
ATOM      7  C   LIG    1        2.283   5.586   0.435  0.00  0.00    +0.105 A 
ATOM      8  N   LIG    1        3.947   8.678   1.022  0.00  0.00    -0.216 NA
ATOM      9  N   LIG    1        1.431   6.411  -0.125  0.00  0.00    -0.168 NA
ENDROOT
BRANCH   7  10
ATOM     10  C   LIG    1        2.152   4.112   0.519  0.00  0.00    +0.004 A 
ATOM     11  C   LIG    1        1.746   3.382  -0.611  0.00  0.00    +0.012 A 
ATOM     12  C   LIG    1        1.619   2.032  -0.561  0.00  0.00    +0.029 A 
ATOM     13  C   LIG    1        1.896   1.341   0.633  0.00  0.00    +0.071 A 
ATOM     14  C   LIG    1        2.306   2.069   1.779  0.00  0.00    +0.001 A 
ATOM     15  C   LIG    1        2.580   1.370   2.970  0.00  0.00    +0.011 A 
ATOM     16  C   LIG    1        2.437   0.011   2.968  0.00  0.00    +0.020 A 
ATOM     17  C   LIG    1        2.030  -0.642   1.807  0.00  0.00    +0.111 A 
ATOM     18  N   LIG    1        1.776   0.011   0.700  0.00  0.00    -0.255 NA
ATOM     19  C   LIG    1        2.432   3.464   1.708  0.00  0.00    +0.020 A 
ENDBRANCH   7  10
BRANCH   1  21
ATOM     20  C   LIG    1        1.025   8.798  -2.025  0.00  0.00    +0.032 C 
ATOM     21  C   LIG    1        1.202   8.915  -0.509  0.00  0.00    +0.103 C 
ATOM     22  C   LIG    1       -0.171   9.029   0.156  0.00  0.00    +0.032 C 
ENDBRANCH   1  21
BRANCH   4  23
ATOM     23  N   LIG    1        4.926   4.810   1.966  0.00  0.00    -0.342 N 
ATOM     24  H   LIG    1        5.612   4.641   2.630  0.00  0.00    +0.144 HD
ATOM     25  H   LIG    1        4.480   4.067   1.529  0.00  0.00    +0.144 HD
ENDBRANCH   4  23
TORSDOF 3
