REMARK  Name = ZINC24912441
REMARK                            x       y       z     vdW  Elec       q    Type
REMARK                         _______ _______ _______ _____ _____    ______ ____
ROOT
ATOM      1  N   LIG    1       -1.717   7.377  -5.022  0.00  0.00    -0.300 N 
ATOM      2  C   LIG    1       -2.794   8.389  -5.130  0.00  0.00    +0.214 C 
ATOM      3  N   LIG    1       -3.752   8.084  -4.059  0.00  0.00    -0.298 N 
ATOM      4  H   LIG    1       -4.769   8.499  -4.098  0.00  0.00    +0.150 HD
ATOM      5  C   LIG    1       -3.166   7.284  -3.143  0.00  0.00    +0.238 C 
ATOM      6  O   LIG    1       -3.686   6.864  -2.132  0.00  0.00    -0.273 OA
ATOM      7  C   LIG    1       -1.754   7.003  -3.593  0.00  0.00    +0.109 C 
ATOM      8  C   LIG    1       -0.763   7.853  -2.802  0.00  0.00    +0.017 C 
ATOM      9  C   LIG    1       -0.783   7.421  -1.333  0.00  0.00    -0.076 C 
ATOM     10  N   LIG    1       -0.442   5.995  -1.238  0.00  0.00    +0.384 N 
ATOM     11  H   LIG    1        0.531   5.851  -1.732  0.00  0.00    -0.081 HD
ATOM     12  C   LIG    1       -1.427   5.163  -1.940  0.00  0.00    -0.076 C 
ATOM     13  C   LIG    1       -1.428   5.521  -3.430  0.00  0.00    +0.017 C 
ENDROOT
BRANCH   1  17
ATOM     14  C   LIG    1        1.974   9.009  -6.045  0.00  0.00    +0.000 A 
ATOM     15  C   LIG    1        1.907   7.733  -5.517  0.00  0.00    +0.002 A 
ATOM     16  C   LIG    1        0.684   7.188  -5.176  0.00  0.00    +0.023 A 
ATOM     17  C   LIG    1       -0.479   7.924  -5.365  0.00  0.00    +0.032 A 
ATOM     18  C   LIG    1       -0.408   9.204  -5.901  0.00  0.00    +0.023 A 
ATOM     19  C   LIG    1        0.818   9.744  -6.234  0.00  0.00    +0.002 A 
ENDBRANCH   1  17
BRANCH  10  20
ATOM     20  C   LIG    1       -0.305   5.580   0.164  0.00  0.00    -0.022 C 
BRANCH  20  21
ATOM     21  C   LIG    1       -0.199   4.078   0.234  0.00  0.00    +0.025 A 
ATOM     22  C   LIG    1        1.047   3.482   0.278  0.00  0.00    +0.021 A 
ATOM     23  C   LIG    1        1.133   2.100   0.342  0.00  0.00    +0.003 A 
ATOM     24  C   LIG    1       -0.043   1.365   0.360  0.00  0.00    +0.020 A 
ATOM     25  C   LIG    1       -1.253   2.031   0.308  0.00  0.00    +0.111 A 
ATOM     26  N   LIG    1       -1.297   3.348   0.253  0.00  0.00    -0.262 NA
ENDBRANCH  20  21
ENDBRANCH  10  20
TORSDOF 3
