REMARK  Name = ZINC72178500
REMARK                            x       y       z     vdW  Elec       q    Type
REMARK                         _______ _______ _______ _____ _____    ______ ____
ROOT
ATOM      1  C   LIG    1        4.932  -2.706   0.191  0.00  0.00    +0.156 A 
ATOM      2  C   LIG    1        5.118  -4.161   0.291  0.00  0.00    +0.033 A 
ATOM      3  C   LIG    1        4.242  -5.246   0.342  0.00  0.00    +0.012 A 
ATOM      4  C   LIG    1        4.737  -6.515   0.438  0.00  0.00    +0.001 A 
ATOM      5  C   LIG    1        6.107  -6.736   0.487  0.00  0.00    +0.002 A 
ATOM      6  C   LIG    1        6.990  -5.679   0.439  0.00  0.00    +0.028 A 
ATOM      7  C   LIG    1        6.505  -4.379   0.340  0.00  0.00    +0.079 A 
ATOM      8  N   LIG    1        7.108  -3.142   0.274  0.00  0.00    -0.195 N 
ATOM      9  C   LIG    1        8.437  -2.920   0.292  0.00  0.00    +0.279 C 
ATOM     10  O   LIG    1        9.210  -3.857   0.276  0.00  0.00    -0.265 OA
ATOM     11  N   LIG    1        6.123  -2.154   0.179  0.00  0.00    -0.158 NA
ENDROOT
BRANCH   9  12
ATOM     12  C   LIG    1        8.954  -1.538   0.333  0.00  0.00    +0.041 A 
ATOM     13  C   LIG    1        8.073  -0.457   0.236  0.00  0.00    +0.016 A 
ATOM     14  C   LIG    1        8.561   0.831   0.275  0.00  0.00    +0.039 A 
ATOM     15  C   LIG    1        9.923   1.056   0.408  0.00  0.00    +0.123 A 
ATOM     16  F   LIG    1       10.396   2.321   0.444  0.00  0.00    -0.205 F 
ATOM     17  C   LIG    1       10.802  -0.013   0.504  0.00  0.00    +0.039 A 
ATOM     18  C   LIG    1       10.325  -1.306   0.473  0.00  0.00    +0.016 A 
ENDBRANCH   9  12
BRANCH   1  21
ATOM     19  N   LIG    1        3.617  -0.651   0.016  0.00  0.00    -0.280 N 
ATOM     20  H   LIG    1        4.447  -0.156  -0.063  0.00  0.00    +0.155 HD
ATOM     21  C   LIG    1        3.642  -1.996   0.111  0.00  0.00    +0.269 C 
ATOM     22  O   LIG    1        2.600  -2.623   0.131  0.00  0.00    -0.268 OA
BRANCH  19  26
ATOM     23  C   LIG    1       -0.022   1.374   0.063  0.00  0.00    +0.000 A 
ATOM     24  C   LIG    1        1.090   1.941   0.657  0.00  0.00    +0.002 A 
ATOM     25  C   LIG    1        2.298   1.272   0.643  0.00  0.00    +0.023 A 
ATOM     26  C   LIG    1        2.395   0.028   0.032  0.00  0.00    +0.034 A 
ATOM     27  C   LIG    1        1.275  -0.538  -0.563  0.00  0.00    +0.023 A 
ATOM     28  C   LIG    1        0.070   0.136  -0.546  0.00  0.00    +0.002 A 
ENDBRANCH  19  26
ENDBRANCH   1  21
TORSDOF 3
