REMARK  Name = ZINC13779164
REMARK                            x       y       z     vdW  Elec       q    Type
REMARK                         _______ _______ _______ _____ _____    ______ ____
ROOT
ATOM      1  C   LIG    1       -1.114  -2.041   0.003  0.00  0.00    +0.290 A 
ATOM      2  N   LIG    1       -1.140  -0.734   0.009  0.00  0.00    -0.198 NA
ATOM      3  C   LIG    1        0.002  -0.004   0.002  0.00  0.00    +0.083 A 
ATOM      4  C   LIG    1       -0.017   1.392   0.010  0.00  0.00    +0.029 A 
ATOM      5  C   LIG    1        1.170   2.090   0.002  0.00  0.00    +0.002 A 
ATOM      6  C   LIG    1        2.388   1.422  -0.013  0.00  0.00    +0.001 A 
ATOM      7  C   LIG    1        2.433   0.045  -0.021  0.00  0.00    +0.017 A 
ATOM      8  C   LIG    1        1.244  -0.680  -0.013  0.00  0.00    +0.085 A 
ATOM      9  C   LIG    1        1.226  -2.149  -0.021  0.00  0.00    +0.349 A 
ATOM     10  O   LIG    1        2.259  -2.793  -0.034  0.00  0.00    -0.244 OA
ATOM     11  O   LIG    1        0.020  -2.759  -0.012  0.00  0.00    -0.391 OA
ENDROOT
BRANCH   1  13
ATOM     12  C   LIG    1       -2.323  -4.179   0.003  0.00  0.00    +0.130 C 
ATOM     13  N   LIG    1       -2.308  -2.714   0.010  0.00  0.00    -0.302 N 
ATOM     14  H   LIG    1       -3.143  -2.220   0.021  0.00  0.00    +0.150 HD
ENDBRANCH   1  13
TORSDOF 1
