REMARK  Name = ZINC16994962
REMARK                            x       y       z     vdW  Elec       q    Type
REMARK                         _______ _______ _______ _____ _____    ______ ____
ROOT
ATOM      1  C   LIG    1        5.629  -0.735   1.019  0.00  0.00    +0.020 C 
ATOM      2  C   LIG    1        6.265  -1.918   0.709  0.00  0.00    +0.079 C 
ATOM      3  C   LIG    1        7.686  -2.175   0.401  0.00  0.00    +0.276 C 
ATOM      4  N   LIG    1        8.012  -3.422   0.140  0.00  0.00    -0.154 NA
ATOM      5  C   LIG    1        7.125  -4.404   0.150  0.00  0.00    +0.156 C 
ATOM      6  O   LIG    1        8.514  -1.277   0.389  0.00  0.00    -0.267 OA
ATOM      7  S   LIG    1        5.603  -3.574   0.576  0.00  0.00    -0.051 S 
ENDROOT
BRANCH   1   9
ATOM      8  C   LIG    1        3.624   0.441   1.592  0.00  0.00    +0.046 C 
ATOM      9  C   LIG    1        4.252  -0.728   1.286  0.00  0.00    +0.005 C 
BRANCH   8  12
ATOM     10  C   LIG    1        0.161   1.097   2.363  0.00  0.00    +0.042 A 
ATOM     11  C   LIG    1        1.475   1.555   2.182  0.00  0.00    +0.049 A 
ATOM     12  C   LIG    1        2.236   0.448   1.861  0.00  0.00    +0.128 A 
ATOM     13  O   LIG    1        1.418  -0.625   1.849  0.00  0.00    -0.464 OA
ATOM     14  C   LIG    1        0.170  -0.238   2.150  0.00  0.00    +0.195 A 
ENDBRANCH   8  12
ENDBRANCH   1   9
BRANCH   5  15
ATOM     15  N   LIG    1        7.327  -5.738  -0.102  0.00  0.00    -0.294 N 
ATOM     16  H   LIG    1        6.556  -6.342  -0.201  0.00  0.00    +0.154 HD
BRANCH  15  17
ATOM     17  C   LIG    1        8.628  -6.239  -0.218  0.00  0.00    +0.051 A 
ATOM     18  C   LIG    1        9.688  -5.567   0.378  0.00  0.00    +0.026 A 
ATOM     19  C   LIG    1       10.971  -6.064   0.262  0.00  0.00    +0.022 A 
ATOM     20  C   LIG    1       11.203  -7.230  -0.447  0.00  0.00    +0.042 A 
ATOM     21 CL   LIG    1       12.818  -7.850  -0.591  0.00  0.00    -0.083 Cl
ATOM     22  C   LIG    1       10.150  -7.902  -1.042  0.00  0.00    +0.041 A 
ATOM     23  C   LIG    1        8.862  -7.412  -0.925  0.00  0.00    +0.063 A 
ATOM     24 CL   LIG    1        7.540  -8.259  -1.665  0.00  0.00    -0.082 Cl
ENDBRANCH  15  17
ENDBRANCH   5  15
TORSDOF 4
