REMARK  Name = ZINC49035123
REMARK                            x       y       z     vdW  Elec       q    Type
REMARK                         _______ _______ _______ _____ _____    ______ ____
ROOT
ATOM      1  N   LIG    1        2.594  -3.789   4.275  0.00  0.00    -0.175 NA
ATOM      2  C   LIG    1        3.200  -4.385   5.285  0.00  0.00    +0.172 C 
ATOM      3  C   LIG    1        3.368  -5.837   5.504  0.00  0.00    +0.121 C 
ATOM      4  N   LIG    1        4.025  -5.988   6.622  0.00  0.00    -0.177 NA
ATOM      5  N   LIG    1        4.330  -4.757   7.201  0.00  0.00    -0.201 N 
ATOM      6  H   LIG    1        4.814  -4.641   8.033  0.00  0.00    +0.178 HD
ATOM      7  C   LIG    1        3.863  -3.751   6.435  0.00  0.00    +0.285 C 
ATOM      8  O   LIG    1        3.966  -2.556   6.653  0.00  0.00    -0.267 OA
ENDROOT
BRANCH   3   9
ATOM      9  C   LIG    1        2.880  -6.921   4.619  0.00  0.00    +0.008 A 
ATOM     10  C   LIG    1        2.192  -6.610   3.446  0.00  0.00    +0.010 A 
ATOM     11  C   LIG    1        1.739  -7.621   2.624  0.00  0.00    +0.004 A 
ATOM     12  C   LIG    1        1.964  -8.944   2.959  0.00  0.00    +0.045 A 
ATOM     13  C   LIG    1        2.647  -9.262   4.125  0.00  0.00    +0.121 A 
ATOM     14  C   LIG    1        3.111  -8.254   4.954  0.00  0.00    +0.055 A 
BRANCH  13  15
ATOM     15  O   LIG    1        2.865 -10.563   4.451  0.00  0.00    -0.495 OA
ATOM     16  C   LIG    1        2.364 -11.551   3.548  0.00  0.00    +0.277 C 
ENDBRANCH  13  15
ENDBRANCH   3   9
BRANCH   1  17
ATOM     17  N   LIG    1        2.538  -2.501   4.227  0.00  0.00    -0.237 N 
ATOM     18  H   LIG    1        2.941  -1.971   4.932  0.00  0.00    +0.174 HD
BRANCH  17  22
ATOM     19  C   LIG    1        0.626  -0.619   1.042  0.00  0.00    +0.120 A 
ATOM     20  C   LIG    1        1.202   0.140   2.051  0.00  0.00    +0.047 A 
ATOM     21  C   LIG    1        1.836  -0.482   3.107  0.00  0.00    +0.028 A 
ATOM     22  C   LIG    1        1.897  -1.870   3.160  0.00  0.00    +0.049 A 
ATOM     23  C   LIG    1        1.319  -2.629   2.148  0.00  0.00    +0.028 A 
ATOM     24  C   LIG    1        0.681  -2.004   1.096  0.00  0.00    +0.047 A 
BRANCH  19  26
ATOM     25  C   LIG    1       -0.017   1.425   0.010  0.00  0.00    +0.277 C 
ATOM     26  O   LIG    1        0.002  -0.004   0.002  0.00  0.00    -0.495 OA
ENDBRANCH  19  26
ENDBRANCH  17  22
ENDBRANCH   1  17
TORSDOF 5
