REMARK  Name = ZINC27561851
REMARK                            x       y       z     vdW  Elec       q    Type
REMARK                         _______ _______ _______ _____ _____    ______ ____
ROOT
ATOM      1  C   LIG    1       -7.596  -0.026  -3.268  0.00  0.00    +0.149 C 
ATOM      2  N   LIG    1       -6.354   0.386  -2.609  0.00  0.00    -0.349 N 
ATOM      3  C   LIG    1       -5.197   0.770  -3.270  0.00  0.00    +0.090 A 
ATOM      4  C   LIG    1       -4.253   1.085  -2.397  0.00  0.00    -0.020 A 
ATOM      5  C   LIG    1       -4.858   0.890  -1.079  0.00  0.00    +0.009 A 
ATOM      6  C   LIG    1       -4.228   1.112   0.149  0.00  0.00    -0.008 A 
ATOM      7  C   LIG    1       -2.815   1.605   0.089  0.00  0.00    +0.166 C 
ATOM      8  C   LIG    1       -2.119   1.109  -1.179  0.00  0.00    +0.094 C 
ATOM      9  N   LIG    1       -0.725   1.573  -1.182  0.00  0.00    -0.297 NA
ATOM     10  C   LIG    1       -0.036   1.163  -2.413  0.00  0.00    +0.105 C 
ATOM     11  C   LIG    1       -0.013   1.086   0.008  0.00  0.00    +0.112 C 
ATOM     12  C   LIG    1       -0.730   1.580   1.267  0.00  0.00    +0.176 C 
ATOM     13  O   LIG    1       -2.094   1.147   1.235  0.00  0.00    -0.369 OA
ATOM     14  C   LIG    1       -4.987   0.852   1.246  0.00  0.00    +0.007 A 
ATOM     15  C   LIG    1       -6.299   0.403   1.106  0.00  0.00    +0.002 A 
ATOM     16  C   LIG    1       -6.925   0.190  -0.115  0.00  0.00    +0.026 A 
ATOM     17  C   LIG    1       -2.814   1.572  -2.467  0.00  0.00    +0.059 C 
ATOM     18  C   LIG    1       -6.172   0.446  -1.260  0.00  0.00    +0.049 A 
ENDROOT
TORSDOF 0
