REMARK  Name = ZINC18269677
REMARK                            x       y       z     vdW  Elec       q    Type
REMARK                         _______ _______ _______ _____ _____    ______ ____
ROOT
ATOM      1  C   LIG    1       -0.019   1.526   0.010  0.00  0.00    +0.011 C 
ATOM      2  C   LIG    1        0.002  -0.004   0.002  0.00  0.00    +0.025 C 
ATOM      3  C   LIG    1       -1.436  -0.565   0.061  0.00  0.00    +0.025 C 
ATOM      4  C   LIG    1       -2.455   0.575   0.107  0.00  0.00    +0.011 C 
ATOM      5  C   LIG    1       -1.469  -1.377   1.375  0.00  0.00    +0.152 C 
ATOM      6  O   LIG    1       -0.090  -1.724   1.628  0.00  0.00    -0.364 OA
ATOM      7  C   LIG    1        0.672  -0.543   1.286  0.00  0.00    +0.152 C 
ENDROOT
BRANCH   5   8
ATOM      8  C   LIG    1       -2.302  -2.621   1.202  0.00  0.00    -0.015 A 
ATOM      9  C   LIG    1       -1.730  -3.767   0.681  0.00  0.00    +0.010 A 
ATOM     10  C   LIG    1       -2.490  -4.911   0.521  0.00  0.00    +0.050 A 
ATOM     11  C   LIG    1       -3.828  -4.910   0.883  0.00  0.00    +0.162 A 
ATOM     12  C   LIG    1       -4.403  -3.757   1.407  0.00  0.00    +0.162 A 
ATOM     13  C   LIG    1       -3.635  -2.615   1.570  0.00  0.00    +0.055 A 
BRANCH  11  14
ATOM     14  O   LIG    1       -4.577  -6.034   0.725  0.00  0.00    -0.491 OA
ATOM     15  C   LIG    1       -3.920  -7.181   0.180  0.00  0.00    +0.277 C 
ENDBRANCH  11  14
BRANCH  12  16
ATOM     16  O   LIG    1       -5.715  -3.751   1.764  0.00  0.00    -0.491 OA
ATOM     17  C   LIG    1       -6.238  -2.532   2.295  0.00  0.00    +0.277 C 
ENDBRANCH  12  16
ENDBRANCH   5   8
BRANCH   7  18
ATOM     18  C   LIG    1        2.110  -0.903   1.015  0.00  0.00    -0.015 A 
ATOM     19  C   LIG    1        2.417  -2.102   0.399  0.00  0.00    +0.010 A 
ATOM     20  C   LIG    1        3.735  -2.436   0.149  0.00  0.00    +0.050 A 
ATOM     21  C   LIG    1        4.752  -1.569   0.516  0.00  0.00    +0.162 A 
ATOM     22  C   LIG    1        4.442  -0.362   1.136  0.00  0.00    +0.162 A 
ATOM     23  C   LIG    1        3.119  -0.031   1.379  0.00  0.00    +0.055 A 
BRANCH  21  24
ATOM     24  O   LIG    1        6.049  -1.896   0.272  0.00  0.00    -0.491 OA
ATOM     25  C   LIG    1        6.291  -3.151  -0.367  0.00  0.00    +0.277 C 
ENDBRANCH  21  24
BRANCH  22  26
ATOM     26  O   LIG    1        5.436   0.493   1.498  0.00  0.00    -0.491 OA
ATOM     27  C   LIG    1        5.044   1.713   2.130  0.00  0.00    +0.277 C 
ENDBRANCH  22  26
ENDBRANCH   7  18
TORSDOF 6
