REMARK  Name = ZINC64512573
REMARK                            x       y       z     vdW  Elec       q    Type
REMARK                         _______ _______ _______ _____ _____    ______ ____
ROOT
ATOM      1  C   LIG    1       -1.272  -0.765   0.011  0.00  0.00    +0.018 A 
ATOM      2  C   LIG    1       -2.142  -0.691   1.121  0.00  0.00    +0.123 A 
ATOM      3  N   LIG    1       -3.265  -1.365   1.124  0.00  0.00    -0.235 NA
ATOM      4  C   LIG    1       -3.612  -2.132   0.081  0.00  0.00    +0.169 A 
ATOM      5  C   LIG    1       -4.722  -2.931  -0.166  0.00  0.00    +0.082 A 
ATOM      6 BR   LIG    1       -6.191  -3.190   0.996  0.00  0.00    -0.045 Br
ATOM      7  C   LIG    1       -4.557  -3.503  -1.419  0.00  0.00    +0.152 A 
ATOM      8  N   LIG    1       -3.418  -3.094  -1.930  0.00  0.00    -0.172 NA
ATOM      9  N   LIG    1       -2.797  -2.232  -1.018  0.00  0.00    -0.220 N 
ATOM     10  C   LIG    1       -1.621  -1.541  -1.058  0.00  0.00    +0.124 A 
ENDROOT
BRANCH   1  16
ATOM     11  C   LIG    1       -0.017   1.389   0.010  0.00  0.00    +0.012 A 
ATOM     12  C   LIG    1        1.169   2.094   0.002  0.00  0.00    +0.046 A 
ATOM     13  C   LIG    1        2.380   1.416  -0.013  0.00  0.00    +0.117 A 
ATOM     14  C   LIG    1        2.402   0.028  -0.021  0.00  0.00    +0.046 A 
ATOM     15  C   LIG    1        1.220  -0.682  -0.014  0.00  0.00    +0.012 A 
ATOM     16  C   LIG    1        0.002  -0.004   0.002  0.00  0.00    -0.015 A 
BRANCH  13  17
ATOM     17  O   LIG    1        3.547   2.113  -0.021  0.00  0.00    -0.507 OA
ATOM     18  H   LIG    1        3.893   2.310   0.860  0.00  0.00    +0.292 HD
ENDBRANCH  13  17
ENDBRANCH   1  16
TORSDOF 2
