REMARK  Name = ZINC13802755
REMARK                            x       y       z     vdW  Elec       q    Type
REMARK                         _______ _______ _______ _____ _____    ______ ____
ROOT
ATOM      1  C   LIG    1       -0.718   1.572   1.248  0.00  0.00    +0.052 A 
ATOM      2  C   LIG    1       -1.704   0.835   1.821  0.00  0.00    +0.018 A 
ATOM      3  S   LIG    1       -2.139   1.885   3.200  0.00  0.00    -0.076 S 
ATOM      4  C   LIG    1       -1.000   3.157   2.882  0.00  0.00    +0.079 A 
ATOM      5  N   LIG    1       -0.390   2.719   1.805  0.00  0.00    -0.249 NA
ENDROOT
BRANCH   1   7
ATOM      6  C   LIG    1       -0.753   1.593  -1.232  0.00  0.00    +0.010 C 
ATOM      7  C   LIG    1       -0.013   1.086   0.008  0.00  0.00    +0.053 C 
ENDBRANCH   1   7
BRANCH   4   8
ATOM      8  C   LIG    1       -0.767   4.433   3.649  0.00  0.00    +0.059 C 
ATOM      9  C   LIG    1       -1.667   5.536   3.088  0.00  0.00    +0.011 C 
ENDBRANCH   4   8
BRANCH   2  10
ATOM     10  C   LIG    1       -2.273  -0.498   1.409  0.00  0.00    +0.101 C 
BRANCH  10  11
ATOM     11  C   LIG    1       -1.498  -1.604   2.079  0.00  0.00    +0.064 A 
ATOM     12  C   LIG    1       -2.018  -2.583   2.844  0.00  0.00    +0.107 A 
ATOM     13  N   LIG    1       -0.972  -3.367   3.248  0.00  0.00    -0.351 N 
ATOM     14  C   LIG    1        0.152  -2.840   2.716  0.00  0.00    +0.196 A 
ATOM     15  H   LIG    1       -1.029  -4.179   3.829  0.00  0.00    +0.166 HD
ATOM     16  N   LIG    1       -0.172  -1.788   2.014  0.00  0.00    -0.241 NA
ENDBRANCH  10  11
ENDBRANCH   2  10
TORSDOF 4
