REMARK  Name = ZINC34229645
REMARK                            x       y       z     vdW  Elec       q    Type
REMARK                         _______ _______ _______ _____ _____    ______ ____
ROOT
ATOM      1  C   LIG    1       -0.017   1.376   0.010  0.00  0.00    +0.001 A 
ATOM      2  C   LIG    1        1.169   2.090   0.002  0.00  0.00    +0.000 A 
ATOM      3  C   LIG    1        2.384   1.426  -0.014  0.00  0.00    +0.008 A 
ATOM      4  C   LIG    1        2.414   0.051  -0.022  0.00  0.00    +0.010 A 
ATOM      5  C   LIG    1        1.222  -0.680  -0.013  0.00  0.00    +0.066 A 
ATOM      6  C   LIG    1        1.577  -2.111  -0.024  0.00  0.00    +0.340 C 
ATOM      7  O   LIG    1        2.913  -2.253  -0.038  0.00  0.00    -0.450 OA
ATOM      8  O   LIG    1        0.779  -3.027  -0.021  0.00  0.00    -0.245 OA
ATOM      9  C   LIG    1        3.528  -0.964  -0.040  0.00  0.00    +0.142 C 
ATOM     10  C   LIG    1        4.404  -0.799   1.202  0.00  0.00    +0.072 C 
ATOM     11  C   LIG    1        5.501  -1.869   1.194  0.00  0.00    +0.112 C 
ATOM     12  N   LIG    1        6.229  -1.792  -0.080  0.00  0.00    -0.301 N 
ATOM     13  C   LIG    1        5.467  -1.860  -1.334  0.00  0.00    +0.112 C 
ATOM     14  C   LIG    1        4.371  -0.789  -1.304  0.00  0.00    +0.072 C 
ATOM     15  C   LIG    1        0.002  -0.004   0.002  0.00  0.00    +0.015 A 
ENDROOT
BRANCH  12  16
ATOM     16  C   LIG    1        7.601  -1.657  -0.098  0.00  0.00    +0.197 A 
ATOM     17  N   LIG    1        8.365  -1.594   0.964  0.00  0.00    -0.214 NA
ATOM     18  C   LIG    1        9.663  -1.463   0.585  0.00  0.00    +0.091 A 
ATOM     19  C   LIG    1       10.863  -1.353   1.293  0.00  0.00    +0.042 A 
ATOM     20  C   LIG    1       12.052  -1.230   0.608  0.00  0.00    +0.057 A 
ATOM     21  C   LIG    1       12.067  -1.215  -0.779  0.00  0.00    +0.014 A 
ATOM     22  C   LIG    1       10.890  -1.322  -1.492  0.00  0.00    +0.028 A 
ATOM     23  C   LIG    1        9.684  -1.447  -0.819  0.00  0.00    +0.067 A 
ATOM     24  N   LIG    1        8.367  -1.577  -1.226  0.00  0.00    -0.326 N 
ATOM     25  H   LIG    1        8.047  -1.604  -2.141  0.00  0.00    +0.169 HD
BRANCH  20  26
ATOM     26  C   LIG    1       13.345  -1.111   1.372  0.00  0.00    +0.417 C 
ATOM     27  F   LIG    1       13.106  -0.483   2.599  0.00  0.00    -0.166 F 
ATOM     28  F   LIG    1       14.256  -0.351   0.629  0.00  0.00    -0.166 F 
ATOM     29  F   LIG    1       13.874  -2.386   1.595  0.00  0.00    -0.166 F 
ENDBRANCH  20  26
ENDBRANCH  12  16
TORSDOF 2
