REMARK  Name = ZINC13755738
REMARK                            x       y       z     vdW  Elec       q    Type
REMARK                         _______ _______ _______ _____ _____    ______ ____
ROOT
ATOM      1  C   LIG    1        1.451  -0.494  -0.015  0.00  0.00    +0.057 C 
ENDROOT
BRANCH   1   2
ATOM      2  C   LIG    1        1.472  -2.001  -0.023  0.00  0.00    -0.004 A 
ATOM      3  C   LIG    1        1.603  -2.697   1.163  0.00  0.00    +0.007 A 
ATOM      4  C   LIG    1        1.617  -4.080   1.157  0.00  0.00    +0.000 A 
ATOM      5  C   LIG    1        1.510  -4.769  -0.037  0.00  0.00    +0.004 A 
ATOM      6  C   LIG    1        1.385  -4.078  -1.226  0.00  0.00    +0.046 A 
ATOM      7  C   LIG    1        1.365  -2.690  -1.222  0.00  0.00    +0.123 A 
BRANCH   7   8
ATOM      8  O   LIG    1        1.242  -2.008  -2.390  0.00  0.00    -0.495 OA
ATOM      9  C   LIG    1        1.137  -2.783  -3.587  0.00  0.00    +0.277 C 
ENDBRANCH   7   8
ENDBRANCH   1   2
BRANCH   1  10
ATOM     10  C   LIG    1        0.002  -0.004   0.002  0.00  0.00    +0.109 C 
BRANCH  10  12
ATOM     11  C   LIG    1       -1.194   2.119   0.019  0.00  0.00    +0.213 C 
ATOM     12  N   LIG    1       -0.018   1.461   0.010  0.00  0.00    -0.315 N 
ATOM     13  H   LIG    1        0.816   1.957   0.005  0.00  0.00    +0.149 HD
ATOM     14  O   LIG    1       -2.236   1.498   0.021  0.00  0.00    -0.276 OA
BRANCH  11  16
ATOM     15  C   LIG    1       -2.664   4.116   0.037  0.00  0.00    +0.013 C 
ATOM     16  C   LIG    1       -1.214   3.626   0.028  0.00  0.00    +0.092 C 
ENDBRANCH  11  16
ENDBRANCH  10  12
ENDBRANCH   1  10
TORSDOF 5
