REMARK  Name = ZINC49035878
REMARK                            x       y       z     vdW  Elec       q    Type
REMARK                         _______ _______ _______ _____ _____    ______ ____
ROOT
ATOM      1  N   LIG    1       -4.856  -2.803   0.034  0.00  0.00    -0.268 N 
ATOM      2  H   LIG    1       -4.885  -3.769  -0.045  0.00  0.00    +0.156 HD
ATOM      3  C   LIG    1       -6.002  -2.101   0.146  0.00  0.00    +0.304 C 
ATOM      4  N   LIG    1       -7.180  -2.748   0.255  0.00  0.00    -0.299 N 
ATOM      5  H   LIG    1       -7.203  -3.717   0.253  0.00  0.00    +0.150 HD
ATOM      6  O   LIG    1       -5.973  -0.886   0.147  0.00  0.00    -0.253 OA
ENDROOT
BRANCH   1  10
ATOM      7  C   LIG    1       -1.198  -0.899  -0.021  0.00  0.00    +0.071 A 
ATOM      8  C   LIG    1       -2.222  -0.344   0.746  0.00  0.00    +0.030 A 
ATOM      9  C   LIG    1       -3.455  -0.970   0.776  0.00  0.00    +0.027 A 
ATOM     10  C   LIG    1       -3.626  -2.137   0.033  0.00  0.00    +0.053 A 
ATOM     11  C   LIG    1       -2.560  -2.631  -0.708  0.00  0.00    +0.134 A 
ATOM     12  N   LIG    1       -1.400  -2.008  -0.719  0.00  0.00    -0.253 NA
BRANCH   7  19
ATOM     13  C   LIG    1        1.157  -0.780  -0.829  0.00  0.00    +0.013 A 
ATOM     14  C   LIG    1        2.390  -0.162  -0.864  0.00  0.00    +0.039 A 
ATOM     15  C   LIG    1        2.606   0.998  -0.136  0.00  0.00    +0.123 A 
ATOM     16  F   LIG    1        3.815   1.600  -0.172  0.00  0.00    -0.205 F 
ATOM     17  C   LIG    1        1.586   1.541   0.628  0.00  0.00    +0.039 A 
ATOM     18  C   LIG    1        0.350   0.929   0.669  0.00  0.00    +0.013 A 
ATOM     19  C   LIG    1        0.128  -0.237  -0.061  0.00  0.00    +0.001 A 
ENDBRANCH   7  19
ENDBRANCH   1  10
BRANCH   4  20
ATOM     20  C   LIG    1       -8.425  -1.985   0.376  0.00  0.00    +0.105 C 
BRANCH  20  21
ATOM     21  C   LIG    1       -9.606  -2.952   0.484  0.00  0.00    +0.017 C 
BRANCH  21  22
ATOM     22  C   LIG    1      -10.907  -2.156   0.610  0.00  0.00    -0.017 C 
BRANCH  22  23
ATOM     23  C   LIG    1      -12.088  -3.122   0.718  0.00  0.00    -0.079 C 
BRANCH  23  24
ATOM     24  N   LIG    1      -13.336  -2.358   0.840  0.00  0.00    +0.380 N 
ATOM     25  H   LIG    1      -13.413  -1.716   0.065  0.00  0.00    -0.082 HD
ATOM     26  C   LIG    1      -13.325  -1.602   2.098  0.00  0.00    -0.079 C 
ATOM     27  C   LIG    1      -14.587  -0.742   2.191  0.00  0.00    -0.019 C 
ATOM     28  C   LIG    1      -15.821  -1.648   2.149  0.00  0.00    -0.004 C 
ATOM     29  C   LIG    1      -15.783  -2.485   0.867  0.00  0.00    -0.019 C 
ATOM     30  C   LIG    1      -14.477  -3.281   0.823  0.00  0.00    -0.079 C 
ENDBRANCH  23  24
ENDBRANCH  22  23
ENDBRANCH  21  22
ENDBRANCH  20  21
ENDBRANCH   4  20
TORSDOF 7
