REMARK  Name = ZINC33404884
REMARK                            x       y       z     vdW  Elec       q    Type
REMARK                         _______ _______ _______ _____ _____    ______ ____
ROOT
ATOM      1  C   LIG    1        1.159   3.594   0.009  0.00  0.00    +0.028 C 
ATOM      2  C   LIG    1        2.193   4.331   0.488  0.00  0.00    +0.080 C 
ATOM      3  C   LIG    1        2.388   5.794   0.482  0.00  0.00    +0.260 C 
ATOM      4  N   LIG    1        3.506   6.245   1.026  0.00  0.00    -0.230 N 
ATOM      5  C   LIG    1        4.420   5.408   1.557  0.00  0.00    +0.286 C 
ATOM      6  O   LIG    1        5.481   5.683   2.083  0.00  0.00    -0.262 OA
ATOM      7  O   LIG    1        1.562   6.547   0.001  0.00  0.00    -0.269 OA
ATOM      8  S   LIG    1        3.690   3.797   1.306  0.00  0.00    -0.026 S 
ENDROOT
BRANCH   1  12
ATOM      9  C   LIG    1        1.443  -0.630  -0.108  0.00  0.00    +0.029 A 
ATOM     10  C   LIG    1        0.229  -0.008  -0.387  0.00  0.00    +0.023 A 
ATOM     11  C   LIG    1        0.132   1.359  -0.350  0.00  0.00    +0.010 A 
ATOM     12  C   LIG    1        1.257   2.130  -0.031  0.00  0.00    -0.024 A 
ATOM     13  C   LIG    1        2.477   1.500   0.248  0.00  0.00    +0.010 A 
ATOM     14  C   LIG    1        2.564   0.133   0.210  0.00  0.00    +0.023 A 
BRANCH   9  16
ATOM     15  C   LIG    1        0.336  -2.827  -0.370  0.00  0.00    +0.129 C 
ATOM     16  N   LIG    1        1.537  -2.018  -0.146  0.00  0.00    -0.336 N 
ATOM     17  C   LIG    1        2.836  -2.670   0.037  0.00  0.00    +0.129 C 
ENDBRANCH   9  16
ENDBRANCH   1  12
BRANCH   4  18
ATOM     18  C   LIG    1        3.758   7.689   1.051  0.00  0.00    +0.098 C 
BRANCH  18  19
ATOM     19  C   LIG    1        3.187   8.283   2.340  0.00  0.00    -0.067 C 
BRANCH  19  20
ATOM     20  N   LIG    1        3.439   9.730   2.365  0.00  0.00    +0.379 N 
ATOM     21  H   LIG    1        4.523   9.914   2.326  0.00  0.00    -0.090 HD
ATOM     22  H   LIG    1        2.955  10.202   1.497  0.00  0.00    -0.090 HD
ATOM     23  H   LIG    1        3.028  10.158   3.292  0.00  0.00    -0.090 HD
ENDBRANCH  19  20
ENDBRANCH  18  19
ENDBRANCH   4  18
TORSDOF 5
