REMARK  Name = ZINC16577257
REMARK                            x       y       z     vdW  Elec       q    Type
REMARK                         _______ _______ _______ _____ _____    ______ ____
ROOT
ATOM      1  C   LIG    1       -0.013   1.086   0.008  0.00  0.00    +0.046 C 
ATOM      2  C   LIG    1       -0.742   1.585  -1.213  0.00  0.00    -0.024 A 
ATOM      3  C   LIG    1       -0.038   1.840  -2.394  0.00  0.00    +0.081 A 
ATOM      4  N   LIG    1        1.294   1.650  -2.476  0.00  0.00    -0.229 NA
ATOM      5  C   LIG    1        1.955   1.887  -3.580  0.00  0.00    +0.141 A 
ATOM      6  N   LIG    1        1.358   2.342  -4.724  0.00  0.00    -0.306 N 
ATOM      7  C   LIG    1        0.023   2.559  -4.761  0.00  0.00    +0.259 A 
ATOM      8  O   LIG    1       -0.524   2.962  -5.771  0.00  0.00    -0.267 OA
ATOM      9  H   LIG    1        1.895   2.502  -5.516  0.00  0.00    +0.170 HD
ATOM     10  C   LIG    1       -0.740   2.304  -3.530  0.00  0.00    +0.065 A 
ATOM     11  C   LIG    1       -2.116   2.510  -3.461  0.00  0.00    +0.015 A 
ATOM     12  C   LIG    1       -2.781   2.255  -2.282  0.00  0.00    +0.001 A 
ATOM     13  C   LIG    1       -2.091   1.795  -1.167  0.00  0.00    +0.005 A 
ENDROOT
BRANCH   5  14
ATOM     14  C   LIG    1        3.414   1.654  -3.591  0.00  0.00    +0.017 A 
ATOM     15  C   LIG    1        4.155   1.902  -4.748  0.00  0.00    +0.011 A 
ATOM     16  C   LIG    1        5.517   1.682  -4.751  0.00  0.00    +0.001 A 
ATOM     17  C   LIG    1        6.149   1.217  -3.611  0.00  0.00    +0.000 A 
ATOM     18  C   LIG    1        5.420   0.970  -2.461  0.00  0.00    +0.001 A 
ATOM     19  C   LIG    1        4.059   1.191  -2.442  0.00  0.00    +0.011 A 
ENDBRANCH   5  14
TORSDOF 1
