REMARK  Name = ZINC24789264
REMARK                            x       y       z     vdW  Elec       q    Type
REMARK                         _______ _______ _______ _____ _____    ______ ____
ROOT
ATOM      1  C   LIG    1        0.796   2.859   3.283  0.00  0.00    -0.073 C 
ATOM      2  C   LIG    1        1.666   1.644   3.092  0.00  0.00    +0.039 C 
ATOM      3  C   LIG    1        1.071   3.969   2.642  0.00  0.00    +0.015 C 
ENDROOT
BRANCH   1   4
ATOM      4  C   LIG    1       -0.389   2.799   4.212  0.00  0.00    +0.034 C 
BRANCH   4   5
ATOM      5  C   LIG    1       -1.597   2.234   3.461  0.00  0.00    +0.031 C 
BRANCH   5   8
ATOM      6  C   LIG    1       -3.890   2.801   4.079  0.00  0.00    -0.076 C 
ATOM      7  C   LIG    1       -4.018   3.487   2.743  0.00  0.00    +0.039 C 
ATOM      8  C   LIG    1       -2.782   2.174   4.389  0.00  0.00    -0.028 C 
BRANCH   6   9
ATOM      9  C   LIG    1       -5.035   2.836   5.057  0.00  0.00    +0.034 C 
BRANCH   9  10
ATOM     10  C   LIG    1       -4.966   4.125   5.878  0.00  0.00    +0.031 C 
BRANCH  10  14
ATOM     11  C   LIG    1       -4.455   4.073   8.648  0.00  0.00    +0.038 C 
ATOM     12  C   LIG    1       -5.873   4.154   8.144  0.00  0.00    -0.080 C 
ATOM     13  C   LIG    1       -7.017   4.227   9.123  0.00  0.00    +0.038 C 
ATOM     14  C   LIG    1       -6.112   4.160   6.856  0.00  0.00    -0.028 C 
ENDBRANCH  10  14
ENDBRANCH   9  10
ENDBRANCH   6   9
ENDBRANCH   5   8
ENDBRANCH   4   5
ENDBRANCH   1   4
BRANCH   3  15
ATOM     15  C   LIG    1        2.340   4.079   1.837  0.00  0.00    +0.251 C 
BRANCH  15  16
ATOM     16  P   LIG    1        3.296   5.524   2.404  0.00  0.00    +0.360 P 
ATOM     17  O   LIG    1        2.488   6.751   2.224  0.00  0.00    -0.256 OA
BRANCH  16  18
ATOM     18  O   LIG    1        4.651   5.642   1.543  0.00  0.00    -0.322 OA
ATOM     19  H   LIG    1        5.361   6.459   1.744  0.00  0.00    +0.220 HD
ENDBRANCH  16  18
BRANCH  16  20
ATOM     20  O   LIG    1        3.663   5.347   3.961  0.00  0.00    -0.322 OA
ATOM     21  H   LIG    1        2.846   5.275   4.480  0.00  0.00    +0.220 HD
ENDBRANCH  16  20
ENDBRANCH  15  16
BRANCH  15  22
ATOM     22  O   LIG    1        2.014   4.237   0.454  0.00  0.00    -0.376 OA
ATOM     23  H   LIG    1        2.816   4.334  -0.292  0.00  0.00    +0.211 HD
ENDBRANCH  15  22
ENDBRANCH   3  15
TORSDOF 11
