REMARK  Name = ZINC40834809
REMARK                            x       y       z     vdW  Elec       q    Type
REMARK                         _______ _______ _______ _____ _____    ______ ____
ROOT
ATOM      1  C   LIG    1        2.870  -0.461  -2.526  0.00  0.00    +0.016 C 
ENDROOT
BRANCH   1   2
ATOM      2  C   LIG    1        2.890  -1.968  -2.535  0.00  0.00    +0.202 C 
ATOM      3  N   LIG    1        3.800  -2.634  -1.797  0.00  0.00    -0.287 N 
ATOM      4  C   LIG    1        4.825  -2.017  -0.935  0.00  0.00    +0.109 C 
ATOM      5  C   LIG    1        5.165  -3.102   0.117  0.00  0.00    +0.022 C 
ATOM      6  C   LIG    1        5.087  -4.396  -0.735  0.00  0.00    +0.039 C 
ATOM      7  C   LIG    1        3.932  -4.096  -1.713  0.00  0.00    +0.179 C 
ATOM      8  O   LIG    1        2.087  -2.582  -3.205  0.00  0.00    -0.277 OA
BRANCH   7   9
ATOM      9  C   LIG    1        4.247  -4.647  -3.041  0.00  0.00    +0.085 C 
ATOM     10  N   LIG    1        4.491  -5.072  -4.066  0.00  0.00    -0.195 NA
ENDBRANCH   7   9
ENDBRANCH   1   2
BRANCH   1  14
ATOM     11  C   LIG    1       -0.019   1.526   0.010  0.00  0.00    +0.000 C 
ATOM     12  C   LIG    1        1.417   2.055  -0.000  0.00  0.00    +0.000 C 
ATOM     13  C   LIG    1        2.133   1.562  -1.259  0.00  0.00    +0.002 C 
ATOM     14  C   LIG    1        2.154   0.032  -1.268  0.00  0.00    -0.017 C 
ATOM     15  C   LIG    1        0.718  -0.497  -1.257  0.00  0.00    +0.002 C 
ATOM     16  C   LIG    1        0.002  -0.004   0.002  0.00  0.00    +0.000 C 
ENDBRANCH   1  14
BRANCH   1  17
ATOM     17  N   LIG    1        2.159   0.025  -3.717  0.00  0.00    +0.386 N 
ATOM     18  H   LIG    1        2.631  -0.300  -4.547  0.00  0.00    -0.089 HD
ATOM     19  H   LIG    1        2.146   1.034  -3.711  0.00  0.00    -0.089 HD
ATOM     20  H   LIG    1        1.213  -0.324  -3.709  0.00  0.00    -0.089 HD
ENDBRANCH   1  17
TORSDOF 4
