REMARK  Name = ZINC18279672
REMARK                            x       y       z     vdW  Elec       q    Type
REMARK                         _______ _______ _______ _____ _____    ______ ____
ROOT
ATOM      1  C   UNK A  0        4.838   6.217   1.454  0.00  0.00    +0.069 A 
ATOM      2  C   UNK A  0        4.089   7.202   0.843  0.00  0.00    +0.032 A 
ATOM      3  C   UNK A  0        2.758   6.974   0.621  0.00  0.00    +0.022 A 
ATOM      4  C   UNK A  0        2.244   5.751   1.031  0.00  0.00    +0.076 A 
ATOM      5  S   UNK A  0        3.679   4.958   1.733  0.00  0.00    -0.069 S 
ENDROOT
BRANCH   4   6
ATOM      6  C   UNK A  0        0.919   5.261   0.924  0.00  0.00    +0.251 C 
ATOM      7  N   GLU A  1        0.615   4.032   1.387  0.00  0.00    -0.298 N 
ATOM      8  H   GLU A  1        1.304   3.483   1.794  0.00  0.00    +0.150 HD
ATOM      9  O   UNK A  0        0.054   5.951   0.414  0.00  0.00    -0.270 OA
BRANCH   7  10
ATOM     10  CA  GLU A  1       -0.755   3.526   1.278  0.00  0.00    +0.182 C 
BRANCH  10  11
ATOM     11  C   GLU A  1       -1.566   4.011   2.452  0.00  0.00    +0.325 C 
ATOM     12  O   GLU A  1       -1.052   4.708   3.294  0.00  0.00    -0.249 OA
BRANCH  11  13
ATOM     13  OXT GLU A  1       -2.859   3.668   2.562  0.00  0.00    -0.479 OA
ATOM     14  HXT GLU A  1       -3.258   3.128   1.909  0.00  0.00    +0.295 HD
ENDBRANCH  11  13
ENDBRANCH  10  11
BRANCH  10  15
ATOM     15  CB  GLU A  1       -0.735   1.996   1.269  0.00  0.00    +0.045 C 
BRANCH  15  16
ATOM     16  CG  GLU A  1       -0.018   1.503   0.010  0.00  0.00    +0.123 C 
BRANCH  16  17
ATOM     17  CD  GLU A  1        0.002  -0.004   0.002  0.00  0.00    +0.305 C 
ATOM     18  OE1 GLU A  1       -0.504  -0.620   0.910  0.00  0.00    -0.251 OA
BRANCH  17  19
ATOM     19  OE2 GLU A  1        0.583  -0.662  -1.014  0.00  0.00    -0.481 OA
ATOM     20  HE2 GLU A  1        0.975  -0.184  -1.718  0.00  0.00    +0.295 HD
ENDBRANCH  17  19
ENDBRANCH  16  17
ENDBRANCH  15  16
ENDBRANCH  10  15
ENDBRANCH   7  10
ENDBRANCH   4   6
BRANCH   1  21
ATOM     21  N   UNK A  0        6.186   6.233   1.772  0.00  0.00    -0.323 N 
ATOM     22  C   UNK A  0        7.000   7.409   1.454  0.00  0.00    +0.130 C 
BRANCH  21  23
ATOM     23  C   UNK A  0        6.798   5.074   2.426  0.00  0.00    +0.140 C 
BRANCH  23  30
ATOM     24  C   UNK A  0       10.391   0.621  -2.994  0.00  0.00    +0.086 C 
ATOM     25  C   UNK A  0        9.932   1.603  -1.947  0.00  0.00    +0.107 A 
ATOM     26  N   UNK A  0       10.808   2.553  -1.527  0.00  0.00    -0.311 N 
ATOM     27  C   UNK A  0       10.444   3.459  -0.589  0.00  0.00    +0.259 A 
ATOM     28  C   UNK A  0        9.078   3.368  -0.054  0.00  0.00    +0.065 A 
ATOM     29  C   UNK A  0        8.604   4.251   0.914  0.00  0.00    +0.020 A 
ATOM     30  C   UNK A  0        7.314   4.121   1.379  0.00  0.00    -0.029 A 
ATOM     31  C   UNK A  0        6.488   3.115   0.896  0.00  0.00    +0.007 A 
ATOM     32  C   UNK A  0        6.934   2.234  -0.063  0.00  0.00    +0.029 A 
ATOM     33  C   UNK A  0        8.238   2.347  -0.551  0.00  0.00    +0.078 A 
ATOM     34  O   UNK A  0       11.219   4.315  -0.203  0.00  0.00    -0.267 OA
ATOM     35  H   UNK A  0       11.702   2.583  -1.903  0.00  0.00    +0.170 HD
ATOM     36  N   UNK A  0        8.720   1.499  -1.494  0.00  0.00    -0.234 NA
ENDBRANCH  23  30
ENDBRANCH  21  23
ENDBRANCH   1  21
TORSDOF 11
