REMARK  Name = ZINC13808154
REMARK                            x       y       z     vdW  Elec       q    Type
REMARK                         _______ _______ _______ _____ _____    ______ ____
ROOT
ATOM      1  S   LIG    1        3.890   2.319  -0.024  0.00  0.00    +0.086 S 
ATOM      2  O   LIG    1        3.595   3.599  -0.566  0.00  0.00    -0.151 OA
ATOM      3  O   LIG    1        4.872   1.461  -0.589  0.00  0.00    -0.151 OA
ENDROOT
BRANCH   1   6
ATOM      4  C   LIG    1       -0.017   1.385   0.010  0.00  0.00    +0.024 A 
ATOM      5  C   LIG    1        1.171   2.090   0.002  0.00  0.00    +0.030 A 
ATOM      6  C   LIG    1        2.377   1.415  -0.013  0.00  0.00    +0.108 A 
ATOM      7  C   LIG    1        2.400   0.032  -0.021  0.00  0.00    +0.030 A 
ATOM      8  C   LIG    1        1.216  -0.679  -0.014  0.00  0.00    +0.024 A 
ATOM      9  C   LIG    1        0.002  -0.004   0.002  0.00  0.00    +0.025 A 
BRANCH   9  10
ATOM     10  N   LIG    1       -1.197  -0.720   0.010  0.00  0.00    -0.358 N 
ATOM     11  H   LIG    1       -1.183  -1.690   0.005  0.00  0.00    +0.142 HD
ATOM     12  H   LIG    1       -2.044  -0.248   0.021  0.00  0.00    +0.142 HD
ENDBRANCH   9  10
ENDBRANCH   1   6
BRANCH   1  13
ATOM     13  N   LIG    1        4.326   2.562   1.555  0.00  0.00    -0.050 NA
ATOM     14  H   LIG    1        4.424   3.464   1.897  0.00  0.00    +0.191 HD
BRANCH  13  15
ATOM     15  N   LIG    1        4.554   1.464   2.395  0.00  0.00    -0.182 N 
ATOM     16  H   LIG    1        3.868   0.788   2.506  0.00  0.00    +0.285 HD
BRANCH  15  17
ATOM     17  C   LIG    1        5.750   1.347   3.064  0.00  0.00    +0.394 C 
ATOM     18  N   LIG    1        6.671   2.257   2.915  0.00  0.00    -0.128 NA
ATOM     19  H   LIG    1        6.514   3.017   2.333  0.00  0.00    +0.306 HD
BRANCH  17  20
ATOM     20  N   LIG    1        5.973   0.270   3.889  0.00  0.00    -0.288 N 
ATOM     21  H   LIG    1        6.817   0.188   4.361  0.00  0.00    +0.255 HD
ATOM     22  H   LIG    1        5.287  -0.407   3.999  0.00  0.00    +0.255 HD
ENDBRANCH  17  20
ENDBRANCH  15  17
ENDBRANCH  13  15
ENDBRANCH   1  13
TORSDOF 6
