REMARK  Name = ZINC17970415
REMARK                            x       y       z     vdW  Elec       q    Type
REMARK                         _______ _______ _______ _____ _____    ______ ____
ROOT
ATOM      1  C   LIG    1       -0.035  -4.180   2.384  0.00  0.00    +0.394 C 
ATOM      2  N   LIG    1        0.518  -4.858   3.346  0.00  0.00    +0.154 NA
ENDROOT
BRANCH   1   3
ATOM      3  C   LIG    1       -0.595  -4.885   1.208  0.00  0.00    +0.242 A 
ATOM      4  C   LIG    1       -0.672  -6.341   1.034  0.00  0.00    +0.196 A 
ATOM      5  N   LIG    1       -1.226  -6.587  -0.121  0.00  0.00    -0.033 NA
ATOM      6  O   LIG    1       -1.526  -5.346  -0.734  0.00  0.00    -0.240 OA
ATOM      7  N   LIG    1       -1.112  -4.318   0.149  0.00  0.00    -0.039 NA
BRANCH   4   8
ATOM      8  N   LIG    1       -0.231  -7.293   1.944  0.00  0.00    -0.338 N 
ATOM      9  H   LIG    1       -0.324  -8.237   1.741  0.00  0.00    +0.144 HD
ATOM     10  H   LIG    1        0.171  -7.014   2.781  0.00  0.00    +0.144 HD
ENDBRANCH   4   8
ENDBRANCH   1   3
BRANCH   1  11
ATOM     11  N   LIG    1       -0.101  -2.798   2.459  0.00  0.00    -0.195 N 
ATOM     12  H   LIG    1       -0.130  -2.360   3.324  0.00  0.00    +0.299 HD
BRANCH  11  18
ATOM     13  C   LIG    1       -1.503   1.275   0.092  0.00  0.00    +0.044 C 
ATOM     14  C   LIG    1       -0.798  -0.057   0.112  0.00  0.00    -0.047 A 
ATOM     15  C   LIG    1       -0.173  -0.525  -1.030  0.00  0.00    +0.003 A 
ATOM     16  C   LIG    1        0.475  -1.746  -1.015  0.00  0.00    +0.004 A 
ATOM     17  C   LIG    1        0.502  -2.502   0.140  0.00  0.00    +0.049 A 
ATOM     18  C   LIG    1       -0.125  -2.035   1.288  0.00  0.00    +0.119 A 
ATOM     19  C   LIG    1       -0.771  -0.805   1.272  0.00  0.00    +0.052 A 
ENDBRANCH  11  18
ENDBRANCH   1  11
BRANCH   2  20
ATOM     20  O   LIG    1        0.940  -4.198   4.526  0.00  0.00    -0.311 OA
ATOM     21  H   LIG    1        1.407  -4.770   5.151  0.00  0.00    +0.361 HD
ENDBRANCH   2  20
TORSDOF 5
