REMARK  Name = ZINC26920345
REMARK                            x       y       z     vdW  Elec       q    Type
REMARK                         _______ _______ _______ _____ _____    ______ ____
ROOT
ATOM      1  C   LIG    1        7.608   7.032  -2.114  0.00  0.00    +0.028 C 
ATOM      2  C   LIG    1        8.275   7.537  -1.046  0.00  0.00    +0.080 C 
ATOM      3  C   LIG    1        9.478   8.393  -1.006  0.00  0.00    +0.261 C 
ATOM      4  N   LIG    1        9.918   8.742   0.191  0.00  0.00    -0.224 N 
ATOM      5  C   LIG    1        9.297   8.333   1.316  0.00  0.00    +0.286 C 
ATOM      6  O   LIG    1        9.591   8.575   2.472  0.00  0.00    -0.262 OA
ATOM      7  O   LIG    1       10.035   8.760  -2.024  0.00  0.00    -0.269 OA
ATOM      8  S   LIG    1        7.935   7.357   0.700  0.00  0.00    -0.026 S 
ENDROOT
BRANCH   1  12
ATOM      9  C   LIG    1        4.524   4.180  -1.532  0.00  0.00    +0.121 A 
ATOM     10  C   LIG    1        5.323   4.564  -0.461  0.00  0.00    +0.046 A 
ATOM     11  C   LIG    1        6.329   5.486  -0.646  0.00  0.00    +0.011 A 
ATOM     12  C   LIG    1        6.540   6.044  -1.912  0.00  0.00    -0.024 A 
ATOM     13  C   LIG    1        5.729   5.657  -2.986  0.00  0.00    +0.011 A 
ATOM     14  C   LIG    1        4.729   4.731  -2.792  0.00  0.00    +0.046 A 
BRANCH   9  15
ATOM     15  O   LIG    1        3.537   3.267  -1.345  0.00  0.00    -0.487 OA
BRANCH  15  16
ATOM     16  C   LIG    1        3.381   2.741  -0.026  0.00  0.00    +0.264 C 
BRANCH  16  20
ATOM     17  C   LIG    1        0.161  -0.066   0.009  0.00  0.00    +0.000 A 
ATOM     18  C   LIG    1        1.448  -0.495  -0.253  0.00  0.00    +0.000 A 
ATOM     19  C   LIG    1        2.490   0.414  -0.267  0.00  0.00    +0.007 A 
ATOM     20  C   LIG    1        2.245   1.750  -0.012  0.00  0.00    -0.010 A 
ATOM     21  C   LIG    1        0.958   2.178   0.257  0.00  0.00    +0.007 A 
ATOM     22  C   LIG    1       -0.084   1.270   0.270  0.00  0.00    +0.000 A 
ENDBRANCH  16  20
ENDBRANCH  15  16
ENDBRANCH   9  15
ENDBRANCH   1  12
BRANCH   4  23
ATOM     23  C   LIG    1       11.107   9.590   0.297  0.00  0.00    +0.152 C 
BRANCH  23  24
ATOM     24  C   LIG    1       10.692  11.039   0.300  0.00  0.00    -0.030 A 
ATOM     25  C   LIG    1       10.596  11.730  -0.895  0.00  0.00    +0.006 A 
ATOM     26  C   LIG    1       10.211  13.054  -0.901  0.00  0.00    +0.015 A 
ATOM     27  C   LIG    1        9.930  13.701   0.304  0.00  0.00    +0.059 A 
ATOM     28  C   LIG    1       10.035  13.000   1.507  0.00  0.00    +0.015 A 
ATOM     29  C   LIG    1       10.415  11.674   1.497  0.00  0.00    +0.006 A 
BRANCH  27  30
ATOM     30  C   LIG    1        9.524  15.122   0.307  0.00  0.00    +0.337 C 
ATOM     31  O   LIG    1        9.280  15.682   1.357  0.00  0.00    -0.245 OA
BRANCH  30  32
ATOM     32  O   LIG    1        9.423  15.796  -0.856  0.00  0.00    -0.477 OA
ATOM     33  H   LIG    1        9.611  15.363  -1.665  0.00  0.00    +0.295 HD
ENDBRANCH  30  32
ENDBRANCH  27  30
ENDBRANCH  23  24
ENDBRANCH   4  23
TORSDOF 8
