REMARK  Name = ZINC13759258
REMARK                            x       y       z     vdW  Elec       q    Type
REMARK                         _______ _______ _______ _____ _____    ______ ____
ROOT
ATOM      1  C   LIG    1       -1.366   3.537   2.416  0.00  0.00    +0.125 C 
ATOM      2  C   LIG    1       -0.837   3.183   3.653  0.00  0.00    +0.035 C 
ATOM      3  C   LIG    1       -1.423   3.680   4.803  0.00  0.00    +0.005 C 
ATOM      4  C   LIG    1       -2.529   4.510   4.677  0.00  0.00    +0.029 C 
ATOM      5  C   LIG    1       -3.005   4.817   3.418  0.00  0.00    +0.118 C 
ATOM      6  I   LIG    1       -4.673   6.069   3.219  0.00  0.00    -0.065 I 
ATOM      7  N   LIG    1       -2.422   4.331   2.337  0.00  0.00    -0.290 NA
ATOM      8  H   LIG    1       -2.835   4.601   1.354  0.00  0.00    +0.124 HD
ENDROOT
BRANCH   1  13
ATOM      9  C   LIG    1       -0.109   1.057  -2.412  0.00  0.00    +0.105 C 
ATOM     10  N   LIG    1       -0.724   1.573  -1.182  0.00  0.00    -0.303 NA
ATOM     11  C   LIG    1       -0.013   1.086   0.008  0.00  0.00    +0.099 C 
ATOM     12  C   LIG    1       -0.730   1.580   1.267  0.00  0.00    +0.101 C 
ATOM     13  N   LIG    1       -0.783   3.048   1.252  0.00  0.00    -0.285 NA
ATOM     14  C   LIG    1       -1.495   3.536   0.062  0.00  0.00    +0.101 C 
ATOM     15  C   LIG    1       -0.777   3.042  -1.196  0.00  0.00    +0.099 C 
ENDBRANCH   1  13
TORSDOF 1
