REMARK  Name = ZINC34173977
REMARK                            x       y       z     vdW  Elec       q    Type
REMARK                         _______ _______ _______ _____ _____    ______ ____
ROOT
ATOM      1  C   LIG    1       -0.013   1.086   0.008  0.00  0.00    +0.172 C 
ATOM      2  C   LIG    1       -0.638   1.625  -1.295  0.00  0.00    +0.172 C 
ATOM      3  C   LIG    1        0.529   1.921  -2.253  0.00  0.00    +0.134 C 
ATOM      4  C   LIG    1        1.823   1.553  -1.498  0.00  0.00    -0.012 C 
ATOM      5  C   LIG    1        1.431   1.648  -0.003  0.00  0.00    +0.134 C 
ENDROOT
BRANCH   4   6
ATOM      6  N   LIG    1        2.892   2.511  -1.811  0.00  0.00    +0.383 N 
ATOM      7  H   LIG    1        3.075   2.498  -2.803  0.00  0.00    -0.089 HD
ATOM      8  H   LIG    1        3.729   2.256  -1.310  0.00  0.00    -0.089 HD
ATOM      9  H   LIG    1        2.603   3.438  -1.535  0.00  0.00    -0.089 HD
ENDBRANCH   4   6
BRANCH   1  10
ATOM     10  O   LIG    1       -0.729   1.569   1.146  0.00  0.00    -0.387 OA
ATOM     11  H   LIG    1       -1.648   1.271   1.188  0.00  0.00    +0.210 HD
ENDBRANCH   1  10
BRANCH   2  12
ATOM     12  O   LIG    1       -1.503   0.641  -1.866  0.00  0.00    -0.387 OA
ATOM     13  H   LIG    1       -2.248   0.395  -1.300  0.00  0.00    +0.210 HD
ENDBRANCH   2  12
BRANCH   3  14
ATOM     14  O   LIG    1        0.407   1.127  -3.434  0.00  0.00    -0.391 OA
ATOM     15  H   LIG    1       -0.398   1.298  -3.942  0.00  0.00    +0.210 HD
ENDBRANCH   3  14
BRANCH   5  16
ATOM     16  O   LIG    1        1.449   3.006   0.441  0.00  0.00    -0.391 OA
ATOM     17  H   LIG    1        1.134   3.128   1.347  0.00  0.00    +0.210 HD
ENDBRANCH   5  16
TORSDOF 5
