REMARK  Name = ZINC13946918
REMARK                            x       y       z     vdW  Elec       q    Type
REMARK                         _______ _______ _______ _____ _____    ______ ____
ROOT
ATOM      1  S   LIG    1        1.910   0.351   1.969  0.00  0.00    +0.063 S 
ATOM      2  O   LIG    1        2.377  -0.040   3.253  0.00  0.00    -0.153 OA
ATOM      3  O   LIG    1        0.918   1.353   1.792  0.00  0.00    -0.153 OA
ENDROOT
BRANCH   1  11
ATOM      4  C   LIG    1       -0.157   0.515   0.041  0.00  0.00    +0.026 C 
ATOM      5  C   LIG    1        0.323  -0.932   0.176  0.00  0.00    +0.077 C 
ATOM      6  C   LIG    1       -0.861  -1.833   0.544  0.00  0.00    +0.020 C 
ATOM      7  C   LIG    1       -0.353  -3.251   0.813  0.00  0.00    +0.003 C 
ATOM      8  C   LIG    1        0.623  -3.230   1.992  0.00  0.00    +0.020 C 
ATOM      9  C   LIG    1        1.823  -2.345   1.641  0.00  0.00    +0.077 C 
ATOM     10  C   LIG    1        2.735  -2.210   2.861  0.00  0.00    +0.026 C 
ATOM     11  N   LIG    1        1.335  -1.019   1.238  0.00  0.00    -0.171 NA
ENDBRANCH   1  11
BRANCH   1  12
ATOM     12  C   LIG    1        3.323   0.874   1.056  0.00  0.00    +0.135 A 
ATOM     13  C   LIG    1        3.596   0.313  -0.177  0.00  0.00    +0.031 A 
ATOM     14  C   LIG    1        4.705   0.724  -0.893  0.00  0.00    +0.002 A 
ATOM     15  C   LIG    1        5.541   1.696  -0.376  0.00  0.00    +0.002 A 
ATOM     16  C   LIG    1        5.268   2.257   0.858  0.00  0.00    +0.034 A 
ATOM     17  C   LIG    1        4.156   1.849   1.572  0.00  0.00    +0.148 A 
BRANCH  17  18
ATOM     18  N   LIG    1        3.861   2.454   2.890  0.00  0.00    +0.008 N 
ATOM     19  O   LIG    1        4.654   3.211   3.399  0.00  0.00    -0.130 OA
BRANCH  18  20
ATOM     20  O   LIG    1        2.827   2.191   3.458  0.00  0.00    -0.396 OA
ATOM     21  H   LIG    1        2.212   1.604   3.063  0.00  0.00    +0.329 HD
ENDBRANCH  18  20
ENDBRANCH  17  18
ENDBRANCH   1  12
TORSDOF 4
