REMARK  Name = ZINC64491718
REMARK                            x       y       z     vdW  Elec       q    Type
REMARK                         _______ _______ _______ _____ _____    ______ ____
ROOT
ATOM      1  C   LIG    1        0.713  -0.491   1.192  0.00  0.00    -0.051 C 
ENDROOT
BRANCH   1   3
ATOM      2  C   LIG    1       -0.018   1.465   0.010  0.00  0.00    -0.071 C 
ATOM      3  N   LIG    1        0.002  -0.004   0.002  0.00  0.00    +0.384 N 
ATOM      4  H   LIG    1       -0.945  -0.353   0.009  0.00  0.00    -0.057 HD
BRANCH   3   5
ATOM      5  N   LIG    1        0.683  -0.473  -1.194  0.00  0.00    -0.379 NA
ATOM      6  H   LIG    1        0.213  -0.151  -2.027  0.00  0.00    +0.099 HD
ATOM      7  H   LIG    1        0.766  -1.478  -1.192  0.00  0.00    +0.099 HD
ENDBRANCH   3   5
ENDBRANCH   1   3
BRANCH   1   8
ATOM      8  C   LIG    1        0.626  -2.017   1.249  0.00  0.00    +0.019 C 
BRANCH   8   9
ATOM      9  C   LIG    1        1.355  -2.516   2.470  0.00  0.00    -0.049 A 
ATOM     10  C   LIG    1        2.701  -2.821   2.395  0.00  0.00    +0.003 A 
ATOM     11  C   LIG    1        3.370  -3.279   3.515  0.00  0.00    +0.000 A 
ATOM     12  C   LIG    1        2.692  -3.432   4.710  0.00  0.00    +0.000 A 
ATOM     13  C   LIG    1        1.346  -3.126   4.785  0.00  0.00    +0.000 A 
ATOM     14  C   LIG    1        0.678  -2.664   3.667  0.00  0.00    +0.003 A 
ENDBRANCH   8   9
ENDBRANCH   1   8
TORSDOF 4
