REMARK  Name = ZINC13836790
REMARK                            x       y       z     vdW  Elec       q    Type
REMARK                         _______ _______ _______ _____ _____    ______ ____
ROOT
ATOM      1  C   LIG    1        2.163   1.109   1.237  0.00  0.00    +0.093 C 
ENDROOT
BRANCH   1   6
ATOM      2  C   LIG    1        4.796   0.872   0.085  0.00  0.00    +0.093 C 
ATOM      3  C   LIG    1        6.129   0.693   0.846  0.00  0.00    +0.153 C 
ATOM      4  C   LIG    1        6.001   0.844   2.355  0.00  0.00    +0.158 C 
ATOM      5  C   LIG    1        4.564   1.148   2.834  0.00  0.00    +0.094 C 
ATOM      6  S   LIG    1        3.815   1.854   1.301  0.00  0.00    -0.195 S 
BRANCH   3   7
ATOM      7  O   LIG    1        7.061   1.664   0.368  0.00  0.00    -0.388 OA
ATOM      8  H   LIG    1        7.202   1.636  -0.589  0.00  0.00    +0.210 HD
ENDBRANCH   3   7
BRANCH   4   9
ATOM      9  O   LIG    1        6.441  -0.368   2.970  0.00  0.00    -0.388 OA
ATOM     10  H   LIG    1        7.337  -0.633   2.723  0.00  0.00    +0.210 HD
ENDBRANCH   4   9
BRANCH   5  11
ATOM     11  C   LIG    1        4.568   2.175   3.968  0.00  0.00    +0.171 C 
BRANCH  11  12
ATOM     12  O   LIG    1        5.257   1.635   5.097  0.00  0.00    -0.394 OA
ATOM     13  H   LIG    1        5.298   2.234   5.856  0.00  0.00    +0.209 HD
ENDBRANCH  11  12
ENDBRANCH   5  11
ENDBRANCH   1   6
BRANCH   1  14
ATOM     14  C   LIG    1        1.423   1.615  -0.003  0.00  0.00    +0.157 C 
BRANCH  14  15
ATOM     15  O   LIG    1        2.091   1.155  -1.179  0.00  0.00    -0.388 OA
ATOM     16  H   LIG    1        2.142   0.192  -1.250  0.00  0.00    +0.210 HD
ENDBRANCH  14  15
BRANCH  14  17
ATOM     17  C   LIG    1       -0.013   1.086   0.008  0.00  0.00    +0.206 C 
BRANCH  17  18
ATOM     18  O   LIG    1       -0.682   1.547   1.184  0.00  0.00    -0.208 OA
BRANCH  18  19
ATOM     19  S   LIG    1       -1.673   0.548   1.763  0.00  0.00    +0.208 S 
ATOM     20  O   LIG    1       -2.322  -0.068   0.659  0.00  0.00    -0.118 OA
ATOM     21  O   LIG    1       -2.389   1.232   2.783  0.00  0.00    -0.118 OA
BRANCH  19  22
ATOM     22  O   LIG    1       -0.864  -0.540   2.455  0.00  0.00    -0.231 OA
ATOM     23  H   LIG    1       -0.402  -0.163   3.219  0.00  0.00    +0.247 HD
ENDBRANCH  19  22
ENDBRANCH  18  19
ENDBRANCH  17  18
BRANCH  17  24
ATOM     24  C   LIG    1       -0.753   1.593  -1.232  0.00  0.00    +0.192 C 
BRANCH  24  25
ATOM     25  O   LIG    1       -0.672   3.018  -1.285  0.00  0.00    -0.392 OA
ATOM     26  H   LIG    1       -1.120   3.410  -2.047  0.00  0.00    +0.210 HD
ENDBRANCH  24  25
ENDBRANCH  17  24
ENDBRANCH  14  17
ENDBRANCH   1  14
TORSDOF 13
