REMARK  Name = ZINC43154043
REMARK                            x       y       z     vdW  Elec       q    Type
REMARK                         _______ _______ _______ _____ _____    ______ ____
ROOT
ATOM      1  C   LIG    1        3.116  -1.539  -5.208  0.00  0.00    +0.142 C 
ATOM      2  C   LIG    1        3.116  -0.155  -5.045  0.00  0.00    +0.062 C 
ATOM      3  C   LIG    1        3.749   0.626  -6.009  0.00  0.00    +0.092 C 
ATOM      4  N   LIG    1        4.331   0.026  -7.048  0.00  0.00    -0.282 NA
ATOM      5  H   LIG    1        4.774   0.562  -7.724  0.00  0.00    +0.125 HD
ATOM      6  C   LIG    1        4.310  -1.291  -7.169  0.00  0.00    +0.199 C 
ATOM      7  N   LIG    1        3.722  -2.065  -6.269  0.00  0.00    -0.271 NA
ATOM      8  H   LIG    1        3.016  -2.607  -6.768  0.00  0.00    +0.126 HD
ENDROOT
BRANCH   3   9
ATOM      9  C   LIG    1        3.777   2.103  -5.881  0.00  0.00    +0.006 A 
ATOM     10  C   LIG    1        4.405   2.894  -6.847  0.00  0.00    +0.121 A 
ATOM     11  N   LIG    1        4.408   4.207  -6.698  0.00  0.00    -0.223 NA
ATOM     12  C   LIG    1        3.825   4.773  -5.651  0.00  0.00    +0.212 A 
ATOM     13  N   LIG    1        3.219   4.057  -4.714  0.00  0.00    -0.223 NA
ATOM     14  C   LIG    1        3.169   2.740  -4.795  0.00  0.00    +0.121 A 
BRANCH  12  15
ATOM     15  N   LIG    1        3.850   6.150  -5.532  0.00  0.00    -0.327 N 
ATOM     16  H   LIG    1        3.428   6.579  -4.771  0.00  0.00    +0.145 HD
ATOM     17  H   LIG    1        4.290   6.688  -6.209  0.00  0.00    +0.145 HD
ENDBRANCH  12  15
ENDBRANCH   3   9
BRANCH   6  18
ATOM     18  N   LIG    1        4.924  -1.877  -8.263  0.00  0.00    -0.271 NA
ATOM     19  C   LIG    1        5.713  -1.073  -9.209  0.00  0.00    +0.115 C 
ATOM     20  C   LIG    1        7.076  -1.750  -9.399  0.00  0.00    +0.175 C 
ATOM     21  O   LIG    1        6.875  -3.122  -9.746  0.00  0.00    -0.377 OA
ATOM     22  C   LIG    1        6.214  -3.889  -8.737  0.00  0.00    +0.175 C 
ATOM     23  C   LIG    1        4.812  -3.323  -8.510  0.00  0.00    +0.115 C 
ENDBRANCH   6  18
BRANCH   1  24
ATOM     24  N   LIG    1        2.498  -2.357  -4.275  0.00  0.00    -0.327 N 
ATOM     25  H   LIG    1        2.020  -1.965  -3.527  0.00  0.00    +0.148 HD
BRANCH  24  29
ATOM     26  C   LIG    1        2.696  -6.464  -4.593  0.00  0.00    +0.214 A 
ATOM     27  C   LIG    1        2.620  -5.715  -5.761  0.00  0.00    +0.069 A 
ATOM     28  C   LIG    1        2.553  -4.336  -5.675  0.00  0.00    +0.029 A 
ATOM     29  C   LIG    1        2.564  -3.749  -4.411  0.00  0.00    +0.047 A 
ATOM     30  C   LIG    1        2.642  -4.561  -3.289  0.00  0.00    +0.137 A 
ATOM     31  N   LIG    1        2.699  -5.874  -3.410  0.00  0.00    -0.219 NA
BRANCH  26  33
ATOM     32  C   LIG    1        2.833  -8.533  -3.433  0.00  0.00    +0.279 C 
ATOM     33  O   LIG    1        2.763  -7.818  -4.668  0.00  0.00    -0.480 OA
ENDBRANCH  26  33
ENDBRANCH  24  29
ENDBRANCH   1  24
TORSDOF 6
