REMARK  Name = ZINC14951170
REMARK                            x       y       z     vdW  Elec       q    Type
REMARK                         _______ _______ _______ _____ _____    ______ ____
ROOT
ATOM      1  N   LIG    1       -1.726  -1.017  -1.368  0.00  0.00    -0.364 N 
ATOM      2  H   LIG    1       -1.192  -0.691  -2.108  0.00  0.00    +0.162 HD
ATOM      3  C   LIG    1       -2.830  -1.672  -1.599  0.00  0.00    +0.125 C 
ENDROOT
BRANCH   3   4
ATOM      4  N   LIG    1       -3.237  -1.900  -2.893  0.00  0.00    -0.339 N 
ATOM      5  H   LIG    1       -4.058  -2.386  -3.065  0.00  0.00    +0.144 HD
ATOM      6  H   LIG    1       -2.703  -1.573  -3.634  0.00  0.00    +0.144 HD
ENDBRANCH   3   4
BRANCH   1   7
ATOM      7  C   LIG    1       -1.293  -0.775   0.011  0.00  0.00    +0.150 C 
BRANCH   7  14
ATOM      8  C   LIG    1       -0.017   1.378   0.010  0.00  0.00    +0.007 A 
ATOM      9  C   LIG    1        1.171   2.086   0.002  0.00  0.00    +0.020 A 
ATOM     10  C   LIG    1        2.378   1.410  -0.013  0.00  0.00    +0.041 A 
ATOM     11 CL   LIG    1        3.870   2.298  -0.023  0.00  0.00    -0.084 Cl
ATOM     12  C   LIG    1        2.396   0.027  -0.021  0.00  0.00    +0.020 A 
ATOM     13  C   LIG    1        1.208  -0.679  -0.013  0.00  0.00    +0.007 A 
ATOM     14  C   LIG    1        0.002  -0.004   0.002  0.00  0.00    -0.028 A 
ENDBRANCH   7  14
ENDBRANCH   1   7
BRANCH   3  15
ATOM     15  S   LIG    1       -3.801  -2.265  -0.253  0.00  0.00    -0.093 S 
BRANCH  15  16
ATOM     16  C   LIG    1       -5.203  -3.091  -1.054  0.00  0.00    +0.077 C 
BRANCH  16  17
ATOM     17  C   LIG    1       -6.139  -3.659   0.015  0.00  0.00    +0.017 C 
BRANCH  17  18
ATOM     18  C   LIG    1       -7.322  -4.356  -0.660  0.00  0.00    +0.055 C 
BRANCH  18  19
ATOM     19  C   LIG    1       -8.243  -4.916   0.393  0.00  0.00    +0.033 A 
ATOM     20  C   LIG    1       -8.111  -6.107   1.008  0.00  0.00    +0.105 A 
ATOM     21  N   LIG    1       -9.154  -6.217   1.886  0.00  0.00    -0.352 N 
ATOM     22  H   LIG    1       -9.333  -6.966   2.477  0.00  0.00    +0.166 HD
ATOM     23  C   LIG    1       -9.889  -5.089   1.778  0.00  0.00    +0.171 A 
ATOM     24  N   LIG    1       -9.335  -4.314   0.887  0.00  0.00    -0.350 N 
ATOM     25  H   LIG    1       -9.662  -3.440   0.622  0.00  0.00    +0.166 HD
ENDBRANCH  18  19
ENDBRANCH  17  18
ENDBRANCH  16  17
ENDBRANCH  15  16
ENDBRANCH   3  15
TORSDOF 8
