REMARK  Name = ZINC28710853
REMARK                            x       y       z     vdW  Elec       q    Type
REMARK                         _______ _______ _______ _____ _____    ______ ____
ROOT
ATOM      1  C   LIG    1       -7.103  -6.554  -5.122  0.00  0.00    +0.004 C 
ENDROOT
BRANCH   1   2
ATOM      2  C   LIG    1       -8.173  -7.635  -4.952  0.00  0.00    +0.027 C 
BRANCH   2   4
ATOM      3  C   LIG    1       -8.626  -9.388  -6.590  0.00  0.00    -0.027 C 
ATOM      4  C   LIG    1       -8.628  -8.109  -6.308  0.00  0.00    -0.031 C 
BRANCH   3   5
ATOM      5  C   LIG    1       -8.334 -10.397  -5.509  0.00  0.00    +0.053 C 
BRANCH   5   7
ATOM      6  C   LIG    1       -9.166 -12.692  -5.510  0.00  0.00    -0.031 C 
ATOM      7  C   LIG    1       -9.445 -11.414  -5.456  0.00  0.00    -0.027 C 
BRANCH   6   8
ATOM      8  C   LIG    1       -7.732 -13.154  -5.454  0.00  0.00    +0.027 C 
BRANCH   8   9
ATOM      9  C   LIG    1       -7.572 -14.186  -4.335  0.00  0.00    +0.004 C 
BRANCH   9  10
ATOM     10  C   LIG    1       -6.117 -14.654  -4.277  0.00  0.00    +0.000 C 
BRANCH  10  12
ATOM     11  C   LIG    1       -4.502 -16.155  -3.102  0.00  0.00    +0.004 C 
ATOM     12  C   LIG    1       -5.957 -15.686  -3.159  0.00  0.00    -0.003 C 
ENDBRANCH  10  12
ENDBRANCH   9  10
ENDBRANCH   8   9
ENDBRANCH   6   8
ENDBRANCH   5   7
ENDBRANCH   3   5
ENDBRANCH   2   4
ENDBRANCH   1   2
BRANCH   1  13
ATOM     13  C   LIG    1       -6.641  -6.073  -3.745  0.00  0.00    +0.000 C 
BRANCH  13  14
ATOM     14  C   LIG    1       -5.572  -4.992  -3.915  0.00  0.00    +0.000 C 
BRANCH  14  15
ATOM     15  C   LIG    1       -5.110  -4.511  -2.538  0.00  0.00    +0.001 C 
BRANCH  15  16
ATOM     16  C   LIG    1       -4.040  -3.430  -2.708  0.00  0.00    +0.011 C 
BRANCH  16  17
ATOM     17  C   LIG    1       -3.578  -2.949  -1.331  0.00  0.00    +0.120 C 
BRANCH  17  18
ATOM     18  C   LIG    1       -2.524  -1.885  -1.499  0.00  0.00    +0.307 C 
ATOM     19  O   LIG    1       -2.179  -1.546  -2.606  0.00  0.00    -0.251 OA
BRANCH  18  20
ATOM     20  O   LIG    1       -1.970  -1.313  -0.418  0.00  0.00    -0.462 OA
BRANCH  20  21
ATOM     21  C   LIG    1       -0.962  -0.295  -0.654  0.00  0.00    +0.266 C 
BRANCH  21  22
ATOM     22  C   LIG    1       -0.450   0.236   0.686  0.00  0.00    +0.181 C 
ATOM     23  C   LIG    1        0.665   1.283   0.659  0.00  0.00    +0.195 C 
ATOM     24  O   LIG    1       -0.685   1.613   0.990  0.00  0.00    -0.368 OA
ENDBRANCH  21  22
ENDBRANCH  20  21
ENDBRANCH  18  20
ENDBRANCH  17  18
ENDBRANCH  16  17
ENDBRANCH  15  16
ENDBRANCH  14  15
ENDBRANCH  13  14
ENDBRANCH   1  13
TORSDOF 17
