REMARK  Name = ZINC43130513
REMARK                            x       y       z     vdW  Elec       q    Type
REMARK                         _______ _______ _______ _____ _____    ______ ____
ROOT
ATOM      1  C   LIG    1       -0.214   1.286  -0.096  0.00  0.00    +0.135 C 
ATOM      2  N   LIG    1       -0.209  -0.175   0.008  0.00  0.00    -0.271 N 
ATOM      3  C   LIG    1       -0.290  -1.063  -1.006  0.00  0.00    +0.316 C 
ATOM      4  N   LIG    1       -0.259  -2.332  -0.576  0.00  0.00    -0.192 N 
ATOM      5  C   LIG    1       -0.153  -2.398   0.771  0.00  0.00    +0.253 C 
ATOM      6  O   LIG    1       -0.100  -3.394   1.460  0.00  0.00    -0.272 OA
ATOM      7  O   LIG    1       -0.382  -0.748  -2.176  0.00  0.00    -0.252 OA
ATOM      8  C   LIG    1       -0.109  -0.968   1.228  0.00  0.00    +0.139 C 
ATOM      9  C   LIG    1       -1.230  -0.648   2.225  0.00  0.00    +0.142 C 
ATOM     10  N   LIG    1       -0.687  -1.046   3.540  0.00  0.00    -0.312 N 
ATOM     11  C   LIG    1        0.782  -1.048   3.465  0.00  0.00    +0.117 C 
ATOM     12  C   LIG    1        1.170  -0.654   2.021  0.00  0.00    +0.070 C 
ENDROOT
BRANCH   4  13
ATOM     13  C   LIG    1       -0.328  -3.452  -1.417  0.00  0.00    +0.048 A 
ATOM     14  C   LIG    1       -0.167  -4.727  -0.891  0.00  0.00    +0.044 A 
ATOM     15  C   LIG    1       -0.235  -5.829  -1.723  0.00  0.00    +0.044 A 
ATOM     16 CL   LIG    1       -0.035  -7.424  -1.067  0.00  0.00    -0.083 Cl
ATOM     17  C   LIG    1       -0.464  -5.662  -3.077  0.00  0.00    +0.040 A 
ATOM     18  C   LIG    1       -0.624  -4.393  -3.603  0.00  0.00    +0.044 A 
ATOM     19 CL   LIG    1       -0.910  -4.188  -5.303  0.00  0.00    -0.083 Cl
ATOM     20  C   LIG    1       -0.562  -3.288  -2.775  0.00  0.00    +0.044 A 
ENDBRANCH   4  13
BRANCH  10  21
ATOM     21  C   LIG    1       -1.437  -1.363   4.659  0.00  0.00    +0.121 A 
ATOM     22  C   LIG    1       -2.827  -1.426   4.559  0.00  0.00    +0.044 A 
ATOM     23  C   LIG    1       -3.565  -1.740   5.667  0.00  0.00    +0.020 A 
ATOM     24  C   LIG    1       -2.890  -1.990   6.874  0.00  0.00    +0.077 A 
ATOM     25  C   LIG    1       -1.496  -1.909   6.900  0.00  0.00    +0.127 A 
ATOM     26  N   LIG    1       -0.824  -1.608   5.809  0.00  0.00    -0.240 NA
BRANCH  24  27
ATOM     27  C   LIG    1       -3.642  -2.331   8.092  0.00  0.00    +0.338 C 
ATOM     28  O   LIG    1       -4.863  -2.399   8.059  0.00  0.00    -0.245 OA
BRANCH  27  29
ATOM     29  O   LIG    1       -3.045  -2.547   9.138  0.00  0.00    -0.477 OA
ATOM     30  H   LIG    1       -2.109  -2.495   9.164  0.00  0.00    +0.295 HD
ENDBRANCH  27  29
ENDBRANCH  24  27
ENDBRANCH  10  21
BRANCH  12  31
ATOM     31  C   LIG    1        2.322  -1.492   1.530  0.00  0.00    -0.040 A 
ATOM     32  C   LIG    1        3.264  -0.937   0.682  0.00  0.00    +0.005 A 
ATOM     33  C   LIG    1        4.322  -1.698   0.229  0.00  0.00    +0.019 A 
ATOM     34  C   LIG    1        4.440  -3.031   0.627  0.00  0.00    +0.052 A 
ATOM     35  C   LIG    1        3.486  -3.584   1.484  0.00  0.00    +0.019 A 
ATOM     36  C   LIG    1        2.436  -2.810   1.933  0.00  0.00    +0.005 A 
BRANCH  34  37
ATOM     37  C   LIG    1        5.535  -3.827   0.160  0.00  0.00    +0.099 C 
ATOM     38  N   LIG    1        6.403  -4.459  -0.210  0.00  0.00    -0.191 NA
ENDBRANCH  34  37
ENDBRANCH  12  31
TORSDOF 6
