REMARK  Name = ZINC20108598
REMARK                            x       y       z     vdW  Elec       q    Type
REMARK                         _______ _______ _______ _____ _____    ______ ____
ROOT
ATOM      1  C   LIG    1       -4.404  -2.872  -1.454  0.00  0.00    +0.125 C 
ATOM      2  C   LIG    1       -4.386  -4.236  -1.129  0.00  0.00    +0.038 C 
ATOM      3  C   LIG    1       -5.172  -5.109  -1.820  0.00  0.00    -0.007 C 
ATOM      4  C   LIG    1       -5.169  -6.579  -1.490  0.00  0.00    +0.008 C 
ATOM      5  C   LIG    1       -5.988  -4.601  -2.852  0.00  0.00    +0.011 C 
ATOM      6  C   LIG    1       -6.821  -5.445  -3.601  0.00  0.00    +0.027 C 
ATOM      7  C   LIG    1       -7.604  -4.912  -4.601  0.00  0.00    +0.074 C 
ATOM      8  C   LIG    1       -7.574  -3.540  -4.873  0.00  0.00    +0.024 C 
ATOM      9  C   LIG    1       -6.774  -2.703  -4.160  0.00  0.00    +0.021 C 
ATOM     10  C   LIG    1       -5.962  -3.213  -3.132  0.00  0.00    +0.059 C 
ATOM     11  N   LIG    1       -5.172  -2.403  -2.416  0.00  0.00    -0.298 NA
ATOM     12  H   LIG    1       -5.163  -1.453  -2.611  0.00  0.00    +0.124 HD
ENDROOT
BRANCH   1  16
ATOM     13  N   LIG    1       -1.326  -0.561  -0.005  0.00  0.00    -0.300 NA
ATOM     14  C   LIG    1       -2.024  -0.204  -1.247  0.00  0.00    +0.100 C 
ATOM     15  C   LIG    1       -3.505  -0.578  -1.122  0.00  0.00    +0.101 C 
ATOM     16  N   LIG    1       -3.599  -1.995  -0.742  0.00  0.00    -0.285 NA
ATOM     17  C   LIG    1       -2.816  -2.458   0.414  0.00  0.00    +0.101 C 
ATOM     18  C   LIG    1       -1.363  -2.011   0.229  0.00  0.00    +0.100 C 
BRANCH  13  20
ATOM     19  C   LIG    1        0.048   1.466  -0.012  0.00  0.00    +0.020 C 
ATOM     20  C   LIG    1        0.056  -0.064  -0.017  0.00  0.00    +0.081 C 
ENDBRANCH  13  20
ENDBRANCH   1  16
BRANCH   7  21
ATOM     21  N   LIG    1       -8.437  -5.749  -5.351  0.00  0.00    -0.308 N 
ATOM     22  H   LIG    1       -8.588  -5.567  -6.292  0.00  0.00    +0.149 HD
ATOM     23  C   LIG    1       -9.029  -6.810  -4.767  0.00  0.00    +0.248 C 
ATOM     24  O   LIG    1       -8.920  -6.983  -3.568  0.00  0.00    -0.270 OA
BRANCH  23  25
ATOM     25  C   LIG    1       -9.809  -7.761  -5.582  0.00  0.00    +0.080 A 
ATOM     26  C   LIG    1       -9.932  -7.568  -6.960  0.00  0.00    +0.036 A 
ATOM     27  C   LIG    1      -10.663  -8.461  -7.716  0.00  0.00    +0.042 A 
ATOM     28 CL   LIG    1      -10.815  -8.221  -9.428  0.00  0.00    -0.084 Cl
ATOM     29  C   LIG    1      -11.277  -9.548  -7.114  0.00  0.00    +0.023 A 
ATOM     30  C   LIG    1      -11.162  -9.749  -5.753  0.00  0.00    +0.048 A 
ATOM     31  C   LIG    1      -10.426  -8.865  -4.978  0.00  0.00    +0.132 A 
BRANCH  31  32
ATOM     32  O   LIG    1      -10.308  -9.065  -3.642  0.00  0.00    -0.494 OA
ATOM     33  C   LIG    1      -10.964 -10.211  -3.097  0.00  0.00    +0.277 C 
ENDBRANCH  31  32
ENDBRANCH  23  25
ENDBRANCH   7  21
TORSDOF 5
