REMARK  Name = ZINC28238014
REMARK                            x       y       z     vdW  Elec       q    Type
REMARK                         _______ _______ _______ _____ _____    ______ ____
ROOT
ATOM      1  N   LIG    1       -1.672   4.784   2.658  0.00  0.00    -0.333 N 
ATOM      2  C   LIG    1       -0.320   5.359   2.629  0.00  0.00    +0.086 C 
ATOM      3  C   LIG    1        0.370   4.967   1.320  0.00  0.00    -0.059 C 
ATOM      4  N   LIG    1        0.422   3.502   1.216  0.00  0.00    +0.385 N 
ATOM      5  H   LIG    1        0.973   3.119   2.088  0.00  0.00    -0.081 HD
ATOM      6  C   LIG    1       -0.930   2.927   1.246  0.00  0.00    -0.059 C 
ATOM      7  C   LIG    1       -1.620   3.319   2.554  0.00  0.00    +0.086 C 
ENDROOT
BRANCH   1  11
ATOM      8  C   LIG    1       -3.722   5.965   6.084  0.00  0.00    +0.000 A 
ATOM      9  C   LIG    1       -4.337   5.137   5.164  0.00  0.00    +0.002 A 
ATOM     10  C   LIG    1       -3.660   4.743   4.026  0.00  0.00    +0.023 A 
ATOM     11  C   LIG    1       -2.360   5.181   3.807  0.00  0.00    +0.030 A 
ATOM     12  C   LIG    1       -1.743   6.009   4.737  0.00  0.00    +0.023 A 
ATOM     13  C   LIG    1       -2.428   6.403   5.870  0.00  0.00    +0.002 A 
ENDBRANCH   1  11
BRANCH   4  14
ATOM     14  C   LIG    1        1.145   3.085   0.008  0.00  0.00    -0.039 C 
ATOM     15  C   LIG    1        0.559   3.802  -1.210  0.00  0.00    -0.013 C 
ATOM     16  C   LIG    1        1.312   3.368  -2.469  0.00  0.00    -0.001 C 
ATOM     17  C   LIG    1        2.792   3.729  -2.328  0.00  0.00    +0.002 C 
ATOM     18  C   LIG    1        3.378   3.012  -1.110  0.00  0.00    +0.030 C 
ATOM     19  C   LIG    1        2.625   3.446   0.149  0.00  0.00    +0.101 C 
BRANCH  19  20
ATOM     20  O   LIG    1        3.172   2.777   1.286  0.00  0.00    -0.393 OA
ATOM     21  H   LIG    1        4.231   2.916   1.549  0.00  0.00    +0.210 HD
ENDBRANCH  19  20
ENDBRANCH   4  14
TORSDOF 3
