REMARK  Name = ZINC14711632
REMARK                            x       y       z     vdW  Elec       q    Type
REMARK                         _______ _______ _______ _____ _____    ______ ____
ROOT
ATOM      1  C   LIG    1        4.704  -1.460   1.038  0.00  0.00    +0.037 A 
ATOM      2  C   LIG    1        5.267  -2.686   0.706  0.00  0.00    +0.127 A 
ATOM      3  C   LIG    1        4.584  -3.583  -0.105  0.00  0.00    +0.092 A 
ATOM      4  C   LIG    1        3.330  -3.261  -0.594  0.00  0.00    +0.138 A 
ATOM      5  C   LIG    1        2.758  -2.022  -0.265  0.00  0.00    +0.101 A 
ATOM      6  C   LIG    1        1.434  -1.650  -0.776  0.00  0.00    +0.174 C 
ATOM      7  O   LIG    1        0.890  -2.282  -1.658  0.00  0.00    -0.292 OA
ATOM      8  C   LIG    1        0.780  -0.434  -0.146  0.00  0.00    +0.129 C 
ATOM      9  C   LIG    1        1.881   0.617   0.062  0.00  0.00    +0.215 C 
ATOM     10  O   LIG    1        2.901   0.073   0.898  0.00  0.00    -0.482 OA
ATOM     11  C   LIG    1        3.450  -1.118   0.562  0.00  0.00    +0.142 A 
ENDROOT
BRANCH   9  12
ATOM     12  C   LIG    1        1.292   1.839   0.718  0.00  0.00    +0.035 A 
ATOM     13  C   LIG    1        1.348   1.980   2.092  0.00  0.00    +0.014 A 
ATOM     14  C   LIG    1        0.814   3.102   2.696  0.00  0.00    +0.046 A 
ATOM     15  C   LIG    1        0.209   4.085   1.925  0.00  0.00    +0.120 A 
ATOM     16  C   LIG    1        0.146   3.943   0.547  0.00  0.00    +0.091 A 
ATOM     17  C   LIG    1        0.688   2.819  -0.057  0.00  0.00    +0.127 A 
BRANCH  15  18
ATOM     18  O   LIG    1       -0.321   5.186   2.520  0.00  0.00    -0.507 OA
ATOM     19  H   LIG    1       -1.250   5.088   2.771  0.00  0.00    +0.292 HD
ENDBRANCH  15  18
BRANCH  17  20
ATOM     20  O   LIG    1        0.628   2.677  -1.407  0.00  0.00    -0.506 OA
ATOM     21  H   LIG    1       -0.165   2.220  -1.720  0.00  0.00    +0.292 HD
ENDBRANCH  17  20
ENDBRANCH   9  12
BRANCH   2  22
ATOM     22  O   LIG    1        6.497  -3.009   1.178  0.00  0.00    -0.506 OA
ATOM     23  H   LIG    1        6.481  -3.534   1.990  0.00  0.00    +0.292 HD
ENDBRANCH   2  22
BRANCH   4  24
ATOM     24  O   LIG    1        2.659  -4.136  -1.383  0.00  0.00    -0.494 OA
ATOM     25  C   LIG    1        3.307  -5.376  -1.674  0.00  0.00    +0.277 C 
ENDBRANCH   4  24
BRANCH   1  26
ATOM     26  C   LIG    1        5.460  -0.500   1.919  0.00  0.00    +0.050 C 
BRANCH  26  27
ATOM     27  C   LIG    1        6.384   0.363   1.057  0.00  0.00    +0.022 C 
BRANCH  27  28
ATOM     28  C   LIG    1        5.555   1.237   0.151  0.00  0.00    -0.076 C 
ATOM     29  C   LIG    1        4.716   2.345   0.735  0.00  0.00    +0.039 C 
ATOM     30  C   LIG    1        5.564   1.034  -1.143  0.00  0.00    +0.007 C 
ENDBRANCH  27  28
BRANCH  27  31
ATOM     31  C   LIG    1        7.251   1.242   1.961  0.00  0.00    +0.035 C 
BRANCH  31  35
ATOM     32  C   LIG    1        9.991   1.190   2.622  0.00  0.00    +0.038 C 
ATOM     33  C   LIG    1        9.523   1.940   1.402  0.00  0.00    -0.080 C 
ATOM     34  C   LIG    1       10.525   2.620   0.505  0.00  0.00    +0.038 C 
ATOM     35  C   LIG    1        8.245   2.001   1.120  0.00  0.00    -0.028 C 
ENDBRANCH  31  35
ENDBRANCH  27  31
ENDBRANCH  26  27
ENDBRANCH   1  26
TORSDOF 10
