REMARK  Name = ZINC64485594
REMARK                            x       y       z     vdW  Elec       q    Type
REMARK                         _______ _______ _______ _____ _____    ______ ____
ROOT
ATOM      1  C   LIG    1        0.626  -2.017   1.249  0.00  0.00    +0.019 C 
ENDROOT
BRANCH   1   2
ATOM      2  C   LIG    1        1.355  -2.516   2.470  0.00  0.00    -0.046 A 
ATOM      3  C   LIG    1        2.701  -2.821   2.394  0.00  0.00    +0.004 A 
ATOM      4  C   LIG    1        3.373  -3.279   3.512  0.00  0.00    +0.004 A 
ATOM      5  C   LIG    1        2.700  -3.434   4.709  0.00  0.00    +0.045 A 
ATOM      6  C   LIG    1        1.349  -3.129   4.787  0.00  0.00    +0.120 A 
ATOM      7  C   LIG    1        0.678  -2.664   3.665  0.00  0.00    +0.049 A 
BRANCH   6   8
ATOM      8  O   LIG    1        0.684  -3.281   5.963  0.00  0.00    -0.495 OA
ATOM      9  C   LIG    1        1.439  -3.759   7.078  0.00  0.00    +0.277 C 
ENDBRANCH   6   8
ENDBRANCH   1   2
BRANCH   1  10
ATOM     10  C   LIG    1        0.713  -0.491   1.192  0.00  0.00    -0.051 C 
BRANCH  10  12
ATOM     11  C   LIG    1       -0.018   1.465   0.010  0.00  0.00    -0.071 C 
ATOM     12  N   LIG    1        0.002  -0.004   0.002  0.00  0.00    +0.384 N 
ATOM     13  H   LIG    1       -0.945  -0.353   0.009  0.00  0.00    -0.057 HD
BRANCH  12  14
ATOM     14  N   LIG    1        0.683  -0.473  -1.194  0.00  0.00    -0.379 NA
ATOM     15  H   LIG    1        1.633  -0.136  -1.225  0.00  0.00    +0.099 HD
ATOM     16  H   LIG    1        0.177  -0.206  -2.026  0.00  0.00    +0.099 HD
ENDBRANCH  12  14
ENDBRANCH  10  12
ENDBRANCH   1  10
TORSDOF 5
