REMARK  Name = ZINC28880806
REMARK                            x       y       z     vdW  Elec       q    Type
REMARK                         _______ _______ _______ _____ _____    ______ ____
ROOT
ATOM      1  N   LIG    1       -3.511   2.659   0.067  0.00  0.00    -0.281 N 
ATOM      2  H   LIG    1       -3.308   3.739   0.017  0.00  0.00    +0.155 HD
ATOM      3  C   LIG    1       -2.492   1.789   0.214  0.00  0.00    +0.250 C 
ATOM      4  O   LIG    1       -2.721   0.605   0.366  0.00  0.00    -0.270 OA
ENDROOT
BRANCH   3   5
ATOM      5  C   LIG    1       -1.099   2.274   0.191  0.00  0.00    +0.058 A 
ATOM      6  C   LIG    1       -0.833   3.632   0.012  0.00  0.00    +0.015 A 
ATOM      7  C   LIG    1        0.467   4.088  -0.003  0.00  0.00    +0.001 A 
ATOM      8  C   LIG    1        1.517   3.196   0.154  0.00  0.00    +0.006 A 
ATOM      9  C   LIG    1        1.267   1.854   0.325  0.00  0.00    -0.017 A 
ATOM     10  C   LIG    1        2.170   0.656   0.517  0.00  0.00    +0.133 C 
ATOM     11  C   LIG    1        1.211  -0.509   0.640  0.00  0.00    +0.222 C 
ATOM     12  O   LIG    1        1.508  -1.673   0.807  0.00  0.00    -0.275 OA
ATOM     13  N   LIG    1       -0.032  -0.009   0.529  0.00  0.00    -0.284 N 
ATOM     14  H   LIG    1       -0.983  -0.560   0.570  0.00  0.00    +0.155 HD
ATOM     15  C   LIG    1       -0.034   1.367   0.345  0.00  0.00    +0.049 A 
ENDBRANCH   3   5
BRANCH   1  18
ATOM     16  C   LIG    1       -7.167   2.475   0.409  0.00  0.00    +0.003 A 
ATOM     17  C   LIG    1       -5.870   2.941   0.498  0.00  0.00    +0.023 A 
ATOM     18  C   LIG    1       -4.825   2.189  -0.022  0.00  0.00    +0.035 A 
ATOM     19  C   LIG    1       -5.088   0.971  -0.636  0.00  0.00    +0.043 A 
ATOM     20  C   LIG    1       -6.387   0.507  -0.718  0.00  0.00    +0.043 A 
ATOM     21 CL   LIG    1       -6.717  -1.017  -1.480  0.00  0.00    -0.083 Cl
ATOM     22  C   LIG    1       -7.426   1.260  -0.198  0.00  0.00    +0.020 A 
ENDBRANCH   1  18
TORSDOF 2
