REMARK  Name = ZINC19168077
REMARK                            x       y       z     vdW  Elec       q    Type
REMARK                         _______ _______ _______ _____ _____    ______ ____
ROOT
ATOM      1  C   LIG    1       -2.136  -0.574  -1.298  0.00  0.00    +0.010 C 
ATOM      2  C   LIG    1       -2.207   0.938  -1.076  0.00  0.00    +0.001 C 
ENDROOT
BRANCH   2   3
ATOM      3  C   LIG    1       -3.047   1.566  -2.158  0.00  0.00    -0.046 A 
ATOM      4  C   LIG    1       -2.671   1.445  -3.482  0.00  0.00    +0.004 A 
ATOM      5  C   LIG    1       -3.444   2.017  -4.475  0.00  0.00    +0.000 A 
ATOM      6  C   LIG    1       -4.589   2.718  -4.143  0.00  0.00    +0.000 A 
ATOM      7  C   LIG    1       -4.962   2.843  -2.818  0.00  0.00    +0.000 A 
ATOM      8  C   LIG    1       -4.191   2.267  -1.825  0.00  0.00    +0.004 A 
ENDBRANCH   2   3
BRANCH   2   9
ATOM      9  C   LIG    1       -0.795   1.527  -1.120  0.00  0.00    -0.052 C 
BRANCH   9  10
ATOM     10  N   LIG    1       -0.012   1.005   0.008  0.00  0.00    +0.386 N 
ATOM     11  H   LIG    1        0.046  -0.091  -0.062  0.00  0.00    -0.061 HD
ATOM     12  H   LIG    1       -0.497   1.287   0.954  0.00  0.00    -0.061 HD
BRANCH  10  13
ATOM     13  N   LIG    1        1.339   1.544  -0.002  0.00  0.00    -0.381 NA
ATOM     14  H   LIG    1        1.877   1.186   0.772  0.00  0.00    +0.098 HD
ATOM     15  H   LIG    1        1.325   2.553   0.003  0.00  0.00    +0.098 HD
ENDBRANCH  10  13
ENDBRANCH   9  10
ENDBRANCH   2   9
TORSDOF 4
