REMARK  Name = ZINC29045652
REMARK                            x       y       z     vdW  Elec       q    Type
REMARK                         _______ _______ _______ _____ _____    ______ ____
ROOT
ATOM      1  C   LIG    1        2.538  -4.182  -0.380  0.00  0.00    +0.017 C 
ATOM      2  C   LIG    1        2.531  -2.871  -0.148  0.00  0.00    +0.007 C 
ENDROOT
BRANCH   2   3
ATOM      3  C   LIG    1        1.262  -2.178   0.117  0.00  0.00    +0.190 C 
ATOM      4  O   LIG    1        0.222  -2.807   0.152  0.00  0.00    -0.287 OA
BRANCH   3   5
ATOM      5  C   LIG    1        1.250  -0.717   0.341  0.00  0.00    +0.022 A 
ATOM      6  C   LIG    1        0.474  -0.171   1.366  0.00  0.00    +0.014 A 
ATOM      7  C   LIG    1        0.468   1.193   1.569  0.00  0.00    +0.033 A 
ATOM      8  C   LIG    1        1.229   2.020   0.761  0.00  0.00    +0.122 A 
ATOM      9  C   LIG    1        2.000   1.486  -0.256  0.00  0.00    +0.033 A 
ATOM     10  C   LIG    1        2.015   0.123  -0.470  0.00  0.00    +0.014 A 
BRANCH   8  11
ATOM     11  N   LIG    1        1.217   3.483   0.986  0.00  0.00    +0.006 N 
ATOM     12  O   LIG    1        0.539   3.957   1.881  0.00  0.00    -0.130 OA
BRANCH  11  13
ATOM     13  O   LIG    1        1.885   4.214   0.277  0.00  0.00    -0.396 OA
ATOM     14  H   LIG    1        2.407   3.849  -0.411  0.00  0.00    +0.329 HD
ENDBRANCH  11  13
ENDBRANCH   8  11
ENDBRANCH   3   5
ENDBRANCH   2   3
BRANCH   2  15
ATOM     15  C   LIG    1        3.824  -2.097  -0.157  0.00  0.00    +0.122 C 
BRANCH  15  16
ATOM     16  N   LIG    1        4.047  -1.532  -1.494  0.00  0.00    -0.298 NA
ATOM     17  C   LIG    1        4.262  -2.593  -2.485  0.00  0.00    +0.085 C 
ATOM     18  C   LIG    1        4.346  -1.978  -3.884  0.00  0.00    +0.019 C 
ATOM     19  C   LIG    1        5.500  -0.973  -3.926  0.00  0.00    -0.004 C 
ATOM     20  C   LIG    1        5.276   0.095  -2.852  0.00  0.00    +0.019 C 
ATOM     21  C   LIG    1        5.166  -0.580  -1.483  0.00  0.00    +0.085 C 
BRANCH  19  22
ATOM     22  C   LIG    1        5.552  -0.309  -5.304  0.00  0.00    +0.038 C 
BRANCH  22  23
ATOM     23  C   LIG    1        5.894  -1.343  -6.346  0.00  0.00    -0.047 A 
ATOM     24  C   LIG    1        7.215  -1.583  -6.674  0.00  0.00    +0.003 A 
ATOM     25  C   LIG    1        7.529  -2.533  -7.627  0.00  0.00    +0.000 A 
ATOM     26  C   LIG    1        6.522  -3.237  -8.260  0.00  0.00    +0.000 A 
ATOM     27  C   LIG    1        5.200  -2.994  -7.935  0.00  0.00    +0.000 A 
ATOM     28  C   LIG    1        4.886  -2.046  -6.979  0.00  0.00    +0.003 A 
ENDBRANCH  22  23
ENDBRANCH  19  22
ENDBRANCH  15  16
ENDBRANCH   2  15
TORSDOF 8
