REMARK  Name = ZINC38143010
REMARK                            x       y       z     vdW  Elec       q    Type
REMARK                         _______ _______ _______ _____ _____    ______ ____
ROOT
ATOM      1  C   LIG    1       -0.018   1.461   0.010  0.00  0.00    +0.149 C 
ATOM      2  N   LIG    1        0.002  -0.004   0.002  0.00  0.00    -0.338 N 
ATOM      3  C   LIG    1        0.008  -0.793  -1.152  0.00  0.00    +0.058 A 
ATOM      4  C   LIG    1       -0.001  -0.604  -2.543  0.00  0.00    +0.051 A 
ATOM      5  C   LIG    1        0.009  -1.669  -3.372  0.00  0.00    +0.078 A 
ATOM      6  S   LIG    1        0.033  -3.044  -2.234  0.00  0.00    -0.077 S 
ATOM      7  C   LIG    1        0.028  -2.118  -0.722  0.00  0.00    +0.048 A 
ATOM      8  C   LIG    1        0.034  -2.133   0.724  0.00  0.00    +0.039 A 
ATOM      9  C   LIG    1        0.051  -3.152   1.707  0.00  0.00    +0.144 A 
ATOM     10  N   LIG    1        0.068  -2.845   2.972  0.00  0.00    -0.176 NA
ATOM     11  N   LIG    1        0.054  -1.514   3.398  0.00  0.00    -0.223 N 
ATOM     12  C   LIG    1        0.032  -0.501   2.509  0.00  0.00    +0.292 A 
ATOM     13  O   LIG    1        0.020   0.657   2.894  0.00  0.00    -0.264 OA
ATOM     14  C   LIG    1        0.024  -0.791   1.127  0.00  0.00    +0.119 A 
ENDROOT
BRANCH   5  15
ATOM     15  S   LIG    1        0.001  -1.696  -5.133  0.00  0.00    +0.057 S 
ATOM     16  C   LIG    1        1.758  -1.679  -5.581  0.00  0.00    +0.127 C 
ATOM     17  O   LIG    1       -0.558  -2.962  -5.455  0.00  0.00    -0.252 OA
ENDBRANCH   5  15
BRANCH  11  18
ATOM     18  C   LIG    1        0.064  -1.214   4.832  0.00  0.00    +0.182 C 
BRANCH  18  19
ATOM     19  C   LIG    1       -1.354  -1.131   5.337  0.00  0.00    -0.023 A 
ATOM     20  C   LIG    1       -2.023   0.079   5.319  0.00  0.00    +0.005 A 
ATOM     21  C   LIG    1       -3.324   0.159   5.782  0.00  0.00    +0.004 A 
ATOM     22  C   LIG    1       -3.957  -0.970   6.264  0.00  0.00    +0.045 A 
ATOM     23  C   LIG    1       -3.288  -2.185   6.283  0.00  0.00    +0.120 A 
ATOM     24  C   LIG    1       -1.985  -2.264   5.813  0.00  0.00    +0.051 A 
BRANCH  23  25
ATOM     25  O   LIG    1       -3.909  -3.297   6.757  0.00  0.00    -0.495 OA
ATOM     26  C   LIG    1       -5.252  -3.142   7.220  0.00  0.00    +0.277 C 
ENDBRANCH  23  25
ENDBRANCH  18  19
ENDBRANCH  11  18
TORSDOF 4
