REMARK  Name = ZINC14806670
REMARK                            x       y       z     vdW  Elec       q    Type
REMARK                         _______ _______ _______ _____ _____    ______ ____
ROOT
ATOM      1  C   LIG    1        3.727  -3.330  -0.061  0.00  0.00    +0.071 C 
ATOM      2  C   LIG    1        5.189  -3.487   0.035  0.00  0.00    +0.012 A 
ATOM      3  C   LIG    1        6.246  -2.591   0.165  0.00  0.00    +0.040 A 
ATOM      4  C   LIG    1        7.542  -3.066   0.230  0.00  0.00    +0.118 A 
ATOM      5  C   LIG    1        7.790  -4.428   0.166  0.00  0.00    +0.031 A 
ATOM      6  C   LIG    1        6.754  -5.331   0.037  0.00  0.00    +0.026 A 
ATOM      7  C   LIG    1        5.434  -4.878  -0.030  0.00  0.00    +0.042 A 
ATOM      8  N   LIG    1        4.255  -5.542  -0.155  0.00  0.00    -0.281 N 
ATOM      9  H   LIG    1        4.184  -6.508  -0.217  0.00  0.00    +0.155 HD
ATOM     10  C   LIG    1        3.216  -4.728  -0.175  0.00  0.00    +0.251 C 
ATOM     11  O   LIG    1        2.045  -5.059  -0.274  0.00  0.00    -0.270 OA
ENDROOT
BRANCH   1  18
ATOM     12  C   LIG    1        0.296   1.585  -0.501  0.00  0.00    +0.001 A 
ATOM     13  C   LIG    1        0.938   1.901   0.689  0.00  0.00    +0.002 A 
ATOM     14  C   LIG    1        1.870   1.044   1.237  0.00  0.00    +0.026 A 
ATOM     15  C   LIG    1        2.176  -0.152   0.596  0.00  0.00    +0.049 A 
ATOM     16  C   LIG    1        1.524  -0.471  -0.611  0.00  0.00    +0.025 A 
ATOM     17  C   LIG    1        2.013  -1.728  -1.047  0.00  0.00    +0.094 A 
ATOM     18  C   LIG    1        2.996  -2.158  -0.043  0.00  0.00    +0.079 A 
ATOM     19  N   LIG    1        3.054  -1.171   0.923  0.00  0.00    -0.352 N 
ATOM     20  H   LIG    1        3.622  -1.190   1.709  0.00  0.00    +0.166 HD
ATOM     21  C   LIG    1        0.579   0.417  -1.149  0.00  0.00    +0.012 A 
BRANCH  17  22
ATOM     22  N   LIG    1        1.645  -2.402  -2.170  0.00  0.00    -0.266 N 
ATOM     23  H   LIG    1        2.110  -3.216  -2.422  0.00  0.00    +0.194 HD
BRANCH  22  24
ATOM     24  O   LIG    1        0.584  -1.917  -2.972  0.00  0.00    -0.289 OA
ATOM     25  H   LIG    1        0.396  -2.462  -3.748  0.00  0.00    +0.244 HD
ENDBRANCH  22  24
ENDBRANCH  17  22
ENDBRANCH   1  18
BRANCH   4  26
ATOM     26  S   LIG    1        8.884  -1.936   0.394  0.00  0.00    +0.110 S 
ATOM     27  O   LIG    1        8.479  -0.701  -0.261  0.00  0.00    -0.142 OA
ATOM     28  O   LIG    1       10.032  -2.546  -0.259  0.00  0.00    -0.142 OA
BRANCH  26  29
ATOM     29  O   LIG    1        9.106  -1.747   1.819  0.00  0.00    -0.250 OA
ATOM     30  H   LIG    1        9.373  -2.590   2.219  0.00  0.00    +0.245 HD
ENDBRANCH  26  29
ENDBRANCH   4  26
TORSDOF 5
