REMARK  Name = ZINC13800658
REMARK                            x       y       z     vdW  Elec       q    Type
REMARK                         _______ _______ _______ _____ _____    ______ ____
ROOT
ATOM      1  C   LIG    1       -1.260  -0.760   0.011  0.00  0.00    +0.171 C 
ATOM      2  O   LIG    1       -2.319  -0.171   0.024  0.00  0.00    -0.292 OA
ENDROOT
BRANCH   1   9
ATOM      3  C   LIG    1       -0.017   1.395   0.010  0.00  0.00    +0.013 A 
ATOM      4  C   LIG    1        1.169   2.097   0.002  0.00  0.00    +0.020 A 
ATOM      5  C   LIG    1        2.378   1.420  -0.013  0.00  0.00    +0.041 A 
ATOM      6 CL   LIG    1        3.867   2.313  -0.023  0.00  0.00    -0.084 Cl
ATOM      7  C   LIG    1        2.405   0.035  -0.021  0.00  0.00    +0.020 A 
ATOM      8  C   LIG    1        1.227  -0.680  -0.013  0.00  0.00    +0.013 A 
ATOM      9  C   LIG    1        0.002  -0.004   0.002  0.00  0.00    +0.018 A 
ENDBRANCH   1   9
BRANCH   1  10
ATOM     10  C   LIG    1       -1.235  -2.267   0.002  0.00  0.00    +0.166 C 
BRANCH  10  11
ATOM     11  C   LIG    1       -2.647  -2.792   0.013  0.00  0.00    +0.246 C 
ATOM     12  O   LIG    1       -3.578  -2.023   0.027  0.00  0.00    -0.285 OA
BRANCH  11  13
ATOM     13  C   LIG    1       -2.896  -4.265   0.008  0.00  0.00    +0.373 C 
ATOM     14  O   LIG    1       -4.040  -4.691   0.017  0.00  0.00    -0.242 OA
BRANCH  13  15
ATOM     15  O   LIG    1       -1.956  -5.043  -0.006  0.00  0.00    -0.475 OA
ATOM     16  H   LIG    1       -1.078  -4.716  -0.013  0.00  0.00    +0.295 HD
ENDBRANCH  13  15
ENDBRANCH  11  13
ENDBRANCH  10  11
ENDBRANCH   1  10
TORSDOF 5
