REMARK  Name = ZINC28711171
REMARK                            x       y       z     vdW  Elec       q    Type
REMARK                         _______ _______ _______ _____ _____    ______ ____
ROOT
ATOM      1  C   UNK A  0        1.406  -4.961   0.662  0.00  0.00    +0.035 A 
ATOM      2  C   UNK A  0        2.746  -4.601   0.779  0.00  0.00    +0.024 A 
ATOM      3  C   UNK A  0        3.102  -3.272   0.812  0.00  0.00    +0.015 A 
ATOM      4  C   UNK A  0        2.117  -2.284   0.728  0.00  0.00    +0.037 A 
ATOM      5  C   UNK A  0        0.772  -2.649   0.616  0.00  0.00    +0.015 A 
ATOM      6  C   UNK A  0        0.423  -3.979   0.578  0.00  0.00    +0.024 A 
ENDROOT
BRANCH   4   7
ATOM      7  C   UNK A  0        2.496  -0.858   0.763  0.00  0.00    +0.245 C 
ATOM      8  N   GLU A  1        1.545   0.094   0.682  0.00  0.00    -0.298 N 
ATOM      9  H   GLU A  1        0.487  -0.192   0.589  0.00  0.00    +0.150 HD
ATOM     10  O   UNK A  0        3.665  -0.542   0.866  0.00  0.00    -0.270 OA
BRANCH   8  11
ATOM     11  CA  GLU A  1        1.921   1.509   0.718  0.00  0.00    +0.182 C 
BRANCH  11  12
ATOM     12  C   GLU A  1        2.046   1.960   2.150  0.00  0.00    +0.325 C 
ATOM     13  O   GLU A  1        1.842   1.179   3.049  0.00  0.00    -0.249 OA
BRANCH  12  14
ATOM     14  OXT GLU A  1        2.383   3.229   2.427  0.00  0.00    -0.479 OA
ATOM     15  HXT GLU A  1        2.541   3.835   1.730  0.00  0.00    +0.295 HD
ENDBRANCH  12  14
ENDBRANCH  11  12
BRANCH  11  16
ATOM     16  CB  GLU A  1        0.846   2.340   0.013  0.00  0.00    +0.045 C 
BRANCH  16  17
ATOM     17  CG  GLU A  1        0.805   1.969  -1.470  0.00  0.00    +0.123 C 
BRANCH  17  18
ATOM     18  CD  GLU A  1       -0.253   2.787  -2.164  0.00  0.00    +0.305 C 
ATOM     19  OE1 GLU A  1       -0.908   3.585  -1.536  0.00  0.00    -0.251 OA
BRANCH  18  20
ATOM     20  OE2 GLU A  1       -0.469   2.629  -3.480  0.00  0.00    -0.481 OA
ATOM     21  HE2 GLU A  1        0.039   2.010  -3.967  0.00  0.00    +0.295 HD
ENDBRANCH  18  20
ENDBRANCH  17  18
ENDBRANCH  16  17
ENDBRANCH  11  16
ENDBRANCH   8  11
ENDBRANCH   4   7
BRANCH   1  23
ATOM     22  C   UNK A  0        0.676  -6.996   1.866  0.00  0.00    +0.137 C 
ATOM     23  N   UNK A  0        1.050  -6.306   0.628  0.00  0.00    -0.287 N 
BRANCH  23  24
ATOM     24  C   UNK A  0        1.047  -6.995  -0.580  0.00  0.00    +0.144 A 
ATOM     25  C   UNK A  0        1.237  -6.295  -1.781  0.00  0.00    +0.157 A 
ATOM     26  N   UNK A  0        1.238  -6.929  -2.932  0.00  0.00    -0.231 NA
ATOM     27  C   UNK A  0        1.056  -8.253  -2.960  0.00  0.00    +0.185 A 
ATOM     28  C   UNK A  0        0.864  -8.959  -1.749  0.00  0.00    +0.149 A 
ATOM     29  C   UNK A  0        0.673 -10.364  -1.813  0.00  0.00    +0.149 A 
ATOM     30  N   UNK A  0        0.683 -10.947  -3.002  0.00  0.00    -0.198 NA
ATOM     31  C   UNK A  0        0.867 -10.244  -4.115  0.00  0.00    +0.216 A 
ATOM     32  N   UNK A  0        1.049  -8.937  -4.112  0.00  0.00    -0.193 NA
ATOM     33  N   UNK A  0        0.871  -8.304  -0.588  0.00  0.00    -0.224 NA
BRANCH  29  34
ATOM     34  N   UNK A  0        0.481 -11.103  -0.665  0.00  0.00    -0.341 N 
ATOM     35  H   UNK A  0        0.474 -10.605   0.316  0.00  0.00    +0.144 HD
ATOM     36  H   UNK A  0        0.334 -12.192  -0.730  0.00  0.00    +0.144 HD
ENDBRANCH  29  34
BRANCH  31  37
ATOM     37  N   UNK A  0        0.867 -10.910  -5.327  0.00  0.00    -0.327 N 
ATOM     38  H   UNK A  0        0.717 -11.999  -5.356  0.00  0.00    +0.145 HD
ATOM     39  H   UNK A  0        1.017 -10.351  -6.263  0.00  0.00    +0.145 HD
ENDBRANCH  31  37
ENDBRANCH  23  24
ENDBRANCH   1  23
TORSDOF 12
