REMARK  Name = ZINC29130869
REMARK                            x       y       z     vdW  Elec       q    Type
REMARK                         _______ _______ _______ _____ _____    ______ ____
ROOT
ATOM      1  C   LIG    1       -0.017   1.385   0.010  0.00  0.00    +0.042 A 
ATOM      2  C   LIG    1        1.169   2.092   0.002  0.00  0.00    +0.024 A 
ATOM      3  C   LIG    1        2.377   1.417  -0.014  0.00  0.00    +0.060 A 
ATOM      4 CL   LIG    1        3.867   2.306  -0.017  0.00  0.00    -0.082 Cl
ATOM      5  C   LIG    1        2.398   0.033  -0.029  0.00  0.00    +0.068 A 
ATOM      6 CL   LIG    1        3.916  -0.810  -0.055  0.00  0.00    -0.082 Cl
ATOM      7  C   LIG    1        1.212  -0.682  -0.024  0.00  0.00    +0.040 A 
ATOM      8  C   LIG    1        1.261  -2.189  -0.056  0.00  0.00    +0.225 C 
ATOM      9  N   LIG    1       -0.051  -2.730   0.326  0.00  0.00    -0.237 N 
ATOM     10  H   LIG    1       -0.132  -3.506   0.901  0.00  0.00    +0.245 HD
ATOM     11  C   LIG    1       -1.170  -2.078  -0.176  0.00  0.00    +0.332 C 
ATOM     12  N   LIG    1       -2.119  -2.712  -0.806  0.00  0.00    -0.295 N 
ATOM     13  H   LIG    1       -2.058  -3.671  -0.937  0.00  0.00    +0.254 HD
ATOM     14  H   LIG    1       -2.887  -2.225  -1.143  0.00  0.00    +0.254 HD
ATOM     15  N   LIG    1       -1.212  -0.708   0.037  0.00  0.00    -0.209 N 
ATOM     16  H   LIG    1       -2.051  -0.252   0.204  0.00  0.00    +0.251 HD
ATOM     17  C   LIG    1        0.002  -0.004   0.002  0.00  0.00    +0.099 A 
ENDROOT
TORSDOF 0
