REMARK  Name = ZINC28370627
REMARK                            x       y       z     vdW  Elec       q    Type
REMARK                         _______ _______ _______ _____ _____    ______ ____
ROOT
ATOM      1  C   LIG    1       -2.938   3.007   1.667  0.00  0.00    +0.219 A 
ATOM      2  N   LIG    1       -3.305   3.202   2.925  0.00  0.00    -0.210 NA
ATOM      3  C   LIG    1       -4.431   3.836   3.214  0.00  0.00    +0.152 A 
ATOM      4  C   LIG    1       -5.235   4.289   2.185  0.00  0.00    +0.099 A 
ATOM      5  C   LIG    1       -4.825   4.064   0.872  0.00  0.00    +0.217 A 
ATOM      6  N   LIG    1       -3.682   3.425   0.653  0.00  0.00    -0.180 NA
ENDROOT
BRANCH   3   7
ATOM      7  C   LIG    1       -4.834   4.057   4.649  0.00  0.00    +0.434 C 
ATOM      8  F   LIG    1       -5.586   5.232   4.747  0.00  0.00    -0.164 F 
ATOM      9  F   LIG    1       -3.688   4.170   5.443  0.00  0.00    -0.164 F 
ATOM     10  F   LIG    1       -5.602   2.974   5.090  0.00  0.00    -0.164 F 
ENDBRANCH   3   7
BRANCH   1  11
ATOM     11  N   LIG    1       -1.752   2.344   1.404  0.00  0.00    -0.309 N 
ATOM     12  H   LIG    1       -1.124   1.991   2.236  0.00  0.00    +0.149 HD
BRANCH  11  13
ATOM     13  C   LIG    1       -1.332   2.114   0.020  0.00  0.00    +0.139 C 
BRANCH  13  20
ATOM     14  C   LIG    1        1.171   2.086   0.002  0.00  0.00    +0.006 A 
ATOM     15  C   LIG    1        2.377   1.412  -0.013  0.00  0.00    +0.020 A 
ATOM     16  C   LIG    1        2.397   0.029  -0.021  0.00  0.00    +0.041 A 
ATOM     17 CL   LIG    1        3.912  -0.818  -0.039  0.00  0.00    -0.084 Cl
ATOM     18  C   LIG    1        1.208  -0.679  -0.013  0.00  0.00    +0.020 A 
ATOM     19  C   LIG    1        0.002  -0.004   0.002  0.00  0.00    +0.006 A 
ATOM     20  C   LIG    1       -0.017   1.378   0.010  0.00  0.00    -0.030 A 
ENDBRANCH  13  20
ENDBRANCH  11  13
ENDBRANCH   1  11
BRANCH   5  21
ATOM     21  O   LIG    1       -5.583   4.491  -0.168  0.00  0.00    -0.492 OA
ATOM     22  H   LIG    1       -6.389   4.940  -0.006  0.00  0.00    +0.294 HD
ENDBRANCH   5  21
TORSDOF 5
