REMARK  Name = ZINC26985028
REMARK                            x       y       z     vdW  Elec       q    Type
REMARK                         _______ _______ _______ _____ _____    ______ ____
ROOT
ATOM      1  C   LIG    1       -2.081   5.726   3.946  0.00  0.00    +0.015 A 
ATOM      2  C   LIG    1       -1.639   5.230   2.736  0.00  0.00    +0.005 A 
ATOM      3  C   LIG    1       -1.226   3.911   2.627  0.00  0.00    -0.041 A 
ATOM      4  C   LIG    1       -1.258   3.088   3.734  0.00  0.00    -0.029 A 
ATOM      5  C   LIG    1       -0.824   1.648   3.665  0.00  0.00    +0.117 C 
ATOM      6  N   LIG    1       -0.019   1.410   2.463  0.00  0.00    -0.302 NA
ATOM      7  H   LIG    1        0.937   1.949   2.550  0.00  0.00    +0.123 HD
ATOM      8  C   LIG    1       -0.733   1.888   1.268  0.00  0.00    +0.163 C 
ATOM      9  C   LIG    1       -1.700   3.588   4.949  0.00  0.00    +0.020 A 
ATOM     10  C   LIG    1       -0.747   3.417   1.286  0.00  0.00    +0.063 C 
ATOM     11  C   LIG    1       -2.111   4.902   5.057  0.00  0.00    +0.018 A 
ATOM     12 BR   LIG    1       -2.712   5.574   6.719  0.00  0.00    -0.050 Br
ENDROOT
BRANCH   8  13
ATOM     13  C   LIG    1       -0.017   1.395   0.010  0.00  0.00    +0.405 C 
ATOM     14  F   LIG    1       -0.694   1.858  -1.124  0.00  0.00    -0.169 F 
ATOM     15  F   LIG    1        1.296   1.879  -0.000  0.00  0.00    -0.169 F 
ATOM     16  F   LIG    1        0.002  -0.004   0.002  0.00  0.00    -0.169 F 
ENDBRANCH   8  13
TORSDOF 1
