REMARK  Name = ZINC72119779
REMARK                            x       y       z     vdW  Elec       q    Type
REMARK                         _______ _______ _______ _____ _____    ______ ____
ROOT
ATOM      1  N   LIG    1        1.487  -3.986  -2.559  0.00  0.00    -0.346 N 
ATOM      2  C   LIG    1        2.504  -4.748  -2.090  0.00  0.00    +0.100 A 
ATOM      3  C   LIG    1        2.199  -6.069  -2.239  0.00  0.00    +0.062 A 
ATOM      4  C   LIG    1        0.863  -6.121  -2.862  0.00  0.00    +0.012 A 
ATOM      5  C   LIG    1        0.021  -7.156  -3.260  0.00  0.00    +0.011 A 
ATOM      6  C   LIG    1       -1.206  -6.862  -3.814  0.00  0.00    +0.001 A 
ATOM      7  C   LIG    1       -1.598  -5.543  -3.987  0.00  0.00    +0.002 A 
ATOM      8  C   LIG    1       -0.773  -4.509  -3.602  0.00  0.00    +0.026 A 
ATOM      9  C   LIG    1        0.466  -4.785  -3.033  0.00  0.00    +0.050 A 
ENDROOT
BRANCH   3  10
ATOM     10  C   LIG    1        3.036  -7.213  -1.856  0.00  0.00    +0.250 C 
ATOM     11  N   LIG    1        4.242  -7.007  -1.292  0.00  0.00    -0.281 N 
ATOM     12  H   LIG    1        4.587  -6.105  -1.200  0.00  0.00    +0.155 HD
ATOM     13  O   LIG    1        2.639  -8.348  -2.047  0.00  0.00    -0.270 OA
BRANCH  11  14
ATOM     14  C   LIG    1        4.997  -8.091  -0.842  0.00  0.00    +0.041 A 
ATOM     15  C   LIG    1        4.960  -9.292  -1.517  0.00  0.00    +0.024 A 
ATOM     16  C   LIG    1        5.708 -10.379  -1.076  0.00  0.00    +0.002 A 
ATOM     17  C   LIG    1        6.495 -10.289   0.032  0.00  0.00    +0.008 A 
ATOM     18  C   LIG    1        6.560  -9.082   0.749  0.00  0.00    -0.016 A 
ATOM     19  C   LIG    1        7.363  -8.959   1.897  0.00  0.00    +0.008 A 
ATOM     20  C   LIG    1        7.416  -7.771   2.557  0.00  0.00    +0.001 A 
ATOM     21  C   LIG    1        6.671  -6.676   2.125  0.00  0.00    +0.001 A 
ATOM     22  C   LIG    1        5.878  -6.760   1.021  0.00  0.00    +0.010 A 
ATOM     23  C   LIG    1        5.808  -7.966   0.306  0.00  0.00    +0.003 A 
ENDBRANCH  11  14
ENDBRANCH   3  10
BRANCH   1  24
ATOM     24  C   LIG    1        1.470  -2.521  -2.559  0.00  0.00    +0.122 C 
BRANCH  24  25
ATOM     25  C   LIG    1        0.750  -2.020  -1.306  0.00  0.00    +0.022 C 
BRANCH  25  26
ATOM     26  C   LIG    1        0.732  -0.490  -1.306  0.00  0.00    +0.001 C 
BRANCH  26  28
ATOM     27  C   LIG    1       -0.005   1.542  -0.052  0.00  0.00    +0.004 C 
ATOM     28  C   LIG    1        0.012   0.012  -0.053  0.00  0.00    -0.003 C 
ENDBRANCH  26  28
ENDBRANCH  25  26
ENDBRANCH  24  25
ENDBRANCH   1  24
TORSDOF 6
