REMARK  Name = ZINC27552079
REMARK                            x       y       z     vdW  Elec       q    Type
REMARK                         _______ _______ _______ _____ _____    ______ ____
ROOT
ATOM      1  C   LIG    1        0.499   1.456  -2.291  0.00  0.00    -0.018 C 
ATOM      2  C   LIG    1        1.412   0.228  -2.280  0.00  0.00    +0.012 C 
ATOM      3  C   LIG    1       -0.626   1.536  -1.236  0.00  0.00    -0.071 C 
ATOM      4  N   LIG    1       -0.012   1.005   0.008  0.00  0.00    +0.380 N 
ATOM      5  H   LIG    1       -0.538   1.352   0.909  0.00  0.00    -0.086 HD
ATOM      6  H   LIG    1        0.033  -0.094   0.009  0.00  0.00    -0.086 HD
ATOM      7  C   LIG    1        1.368   1.556  -0.003  0.00  0.00    -0.078 C 
ATOM      8  C   LIG    1        1.811   1.469  -1.479  0.00  0.00    -0.019 C 
ENDROOT
BRANCH   1  12
ATOM      9  C   LIG    1        0.055   3.718  -5.887  0.00  0.00    +0.000 A 
ATOM     10  C   LIG    1       -0.994   2.946  -5.422  0.00  0.00    +0.000 A 
ATOM     11  C   LIG    1       -0.850   2.215  -4.258  0.00  0.00    +0.004 A 
ATOM     12  C   LIG    1        0.342   2.254  -3.560  0.00  0.00    -0.043 A 
ATOM     13  C   LIG    1        1.389   3.029  -4.022  0.00  0.00    +0.004 A 
ATOM     14  C   LIG    1        1.247   3.758  -5.188  0.00  0.00    +0.000 A 
ENDBRANCH   1  12
TORSDOF 1
