REMARK  Name = ZINC14974425
REMARK                            x       y       z     vdW  Elec       q    Type
REMARK                         _______ _______ _______ _____ _____    ______ ____
ROOT
ATOM      1  C   LIG    1       -2.373  -2.672   0.192  0.00  0.00    +0.035 A 
ATOM      2  C   LIG    1       -3.590  -2.000   0.216  0.00  0.00    +0.024 A 
ATOM      3  C   LIG    1       -4.771  -2.709   0.222  0.00  0.00    +0.010 A 
ATOM      4  C   LIG    1       -4.745  -4.104   0.217  0.00  0.00    -0.018 A 
ATOM      5  C   LIG    1       -3.523  -4.777   0.199  0.00  0.00    +0.010 A 
ATOM      6  C   LIG    1       -2.345  -4.062   0.187  0.00  0.00    +0.024 A 
ENDROOT
BRANCH   1  10
ATOM      7  N   LIG    1        0.076  -0.133  -0.578  0.00  0.00    -0.269 N 
ATOM      8  H   LIG    1        0.882  -0.537  -0.221  0.00  0.00    +0.156 HD
ATOM      9  C   LIG    1       -1.102  -0.782  -0.488  0.00  0.00    +0.308 C 
ATOM     10  N   LIG    1       -1.177  -1.951   0.180  0.00  0.00    -0.269 N 
ATOM     11  H   LIG    1       -0.401  -2.291   0.652  0.00  0.00    +0.156 HD
ATOM     12  O   LIG    1       -2.096  -0.315  -1.009  0.00  0.00    -0.252 OA
BRANCH   7  16
ATOM     13  C   LIG    1        0.253   3.615  -2.390  0.00  0.00    +0.000 A 
ATOM     14  C   LIG    1        1.070   3.331  -1.312  0.00  0.00    +0.002 A 
ATOM     15  C   LIG    1        1.014   2.090  -0.708  0.00  0.00    +0.023 A 
ATOM     16  C   LIG    1        0.135   1.126  -1.187  0.00  0.00    +0.035 A 
ATOM     17  C   LIG    1       -0.680   1.413  -2.274  0.00  0.00    +0.023 A 
ATOM     18  C   LIG    1       -0.622   2.657  -2.869  0.00  0.00    +0.002 A 
ENDBRANCH   7  16
ENDBRANCH   1  10
BRANCH   4  19
ATOM     19  C   LIG    1       -6.014  -4.869   0.231  0.00  0.00    -0.018 A 
ATOM     20  C   LIG    1       -5.986  -6.265   0.221  0.00  0.00    +0.009 A 
ATOM     21  C   LIG    1       -7.154  -6.973   0.239  0.00  0.00    +0.012 A 
ATOM     22  C   LIG    1       -8.380  -6.297   0.257  0.00  0.00    +0.018 A 
ATOM     23  C   LIG    1       -8.406  -4.897   0.262  0.00  0.00    +0.012 A 
ATOM     24  C   LIG    1       -7.236  -4.193   0.249  0.00  0.00    +0.009 A 
BRANCH  22  25
ATOM     25  C   LIG    1       -9.638  -7.056   0.271  0.00  0.00    +0.167 C 
ATOM     26  O   LIG    1      -10.700  -6.470   0.286  0.00  0.00    -0.292 OA
BRANCH  25  27
ATOM     27  C   LIG    1       -9.610  -8.563   0.266  0.00  0.00    +0.074 C 
ATOM     28  C   LIG    1       -9.634  -9.095   1.709  0.00  0.00    +0.012 C 
ATOM     29  C   LIG    1      -10.911  -9.951   1.842  0.00  0.00    +0.002 C 
ATOM     30  C   LIG    1      -11.234 -10.378   0.389  0.00  0.00    +0.015 C 
ATOM     31  C   LIG    1      -10.872  -9.113  -0.430  0.00  0.00    +0.108 C 
BRANCH  31  32
ATOM     32  C   LIG    1      -10.569  -9.478  -1.860  0.00  0.00    +0.309 C 
ATOM     33  O   LIG    1       -9.456  -9.320  -2.301  0.00  0.00    -0.251 OA
BRANCH  32  34
ATOM     34  O   LIG    1      -11.537  -9.978  -2.644  0.00  0.00    -0.480 OA
ATOM     35  H   LIG    1      -12.401 -10.100  -2.302  0.00  0.00    +0.295 HD
ENDBRANCH  32  34
ENDBRANCH  31  32
ENDBRANCH  25  27
ENDBRANCH  22  25
ENDBRANCH   4  19
TORSDOF 7
