REMARK  Name = ZINC29241824
REMARK                            x       y       z     vdW  Elec       q    Type
REMARK                         _______ _______ _______ _____ _____    ______ ____
ROOT
ATOM      1  C   LIG    1       -4.300   0.866  -0.428  0.00  0.00    +0.048 A 
ATOM      2  C   LIG    1       -5.571   0.374  -0.320  0.00  0.00    +0.115 A 
ATOM      3  N   LIG    1       -6.064  -0.020   0.843  0.00  0.00    -0.238 NA
ATOM      4  C   LIG    1       -5.362   0.038   1.963  0.00  0.00    +0.144 A 
ATOM      5  C   LIG    1       -4.049   0.531   1.942  0.00  0.00    +0.128 A 
ATOM      6  N   LIG    1       -3.089   0.718   2.881  0.00  0.00    -0.232 NA
ATOM      7  C   LIG    1       -2.024   1.215   2.323  0.00  0.00    +0.201 A 
ATOM      8  N   LIG    1       -2.231   1.380   0.986  0.00  0.00    -0.320 N 
ATOM      9  C   LIG    1       -3.511   0.958   0.716  0.00  0.00    +0.074 A 
ENDROOT
BRANCH   8  10
ATOM     10  C   LIG    1       -1.270   1.913   0.018  0.00  0.00    +0.143 C 
ATOM     11  C   LIG    1       -0.013   1.076   0.008  0.00  0.00    +0.004 C 
ATOM     12  C   LIG    1        1.054   1.829   0.002  0.00  0.00    -0.016 C 
ATOM     13  C   LIG    1        0.685   3.294   0.013  0.00  0.00    +0.173 C 
ATOM     14  C   LIG    1       -0.798   3.323   0.450  0.00  0.00    +0.174 C 
BRANCH  13  15
ATOM     15  O   LIG    1        1.495   4.004   0.952  0.00  0.00    -0.385 OA
ATOM     16  H   LIG    1        1.358   5.087   1.088  0.00  0.00    +0.210 HD
ENDBRANCH  13  15
BRANCH  14  17
ATOM     17  O   LIG    1       -0.913   3.498   1.863  0.00  0.00    -0.387 OA
ATOM     18  H   LIG    1       -0.615   4.451   2.326  0.00  0.00    +0.210 HD
ENDBRANCH  14  17
BRANCH  12  19
ATOM     19  C   LIG    1        2.467   1.305  -0.015  0.00  0.00    +0.189 C 
BRANCH  19  20
ATOM     20  O   LIG    1        2.445  -0.123  -0.021  0.00  0.00    -0.391 OA
ATOM     21  H   LIG    1        3.390  -0.688  -0.033  0.00  0.00    +0.210 HD
ENDBRANCH  19  20
ENDBRANCH  12  19
ENDBRANCH   8  10
BRANCH   4  22
ATOM     22  N   LIG    1       -5.926  -0.388   3.158  0.00  0.00    -0.341 N 
ATOM     23  H   LIG    1       -6.955  -0.775   3.174  0.00  0.00    +0.144 HD
ATOM     24  H   LIG    1       -5.342  -0.340   4.090  0.00  0.00    +0.144 HD
ENDBRANCH   4  22
TORSDOF 6
