REMARK  Name = ZINC19370979
REMARK                            x       y       z     vdW  Elec       q    Type
REMARK                         _______ _______ _______ _____ _____    ______ ____
ROOT
ATOM      1  C   LIG    1       -3.686  -0.801   0.013  0.00  0.00    +0.104 C 
ENDROOT
BRANCH   1   2
ATOM      2  C   LIG    1       -2.374  -0.063  -0.054  0.00  0.00    -0.024 A 
ATOM      3  C   LIG    1       -1.968   0.518  -1.241  0.00  0.00    +0.009 A 
ATOM      4  C   LIG    1       -0.763   1.192  -1.306  0.00  0.00    +0.050 A 
ATOM      5  C   LIG    1        0.040   1.292  -0.180  0.00  0.00    +0.162 A 
ATOM      6  C   LIG    1       -0.369   0.709   1.014  0.00  0.00    +0.162 A 
ATOM      7  O   LIG    1        0.403   0.796   2.131  0.00  0.00    -0.485 OA
ATOM      8  C   LIG    1        1.775   1.157   1.939  0.00  0.00    +0.270 C 
ATOM      9  C   LIG    1        1.826   2.352   0.977  0.00  0.00    +0.270 C 
ATOM     10  O   LIG    1        1.224   1.958  -0.260  0.00  0.00    -0.485 OA
ATOM     11  C   LIG    1       -1.578   0.031   1.072  0.00  0.00    +0.055 A 
ENDBRANCH   1   2
BRANCH   1  12
ATOM     12  N   LIG    1       -4.694  -0.074  -0.764  0.00  0.00    -0.307 N 
ATOM     13  H   LIG    1       -5.216  -0.575  -1.593  0.00  0.00    +0.149 HD
ATOM     14  C   LIG    1       -4.982   1.207  -0.463  0.00  0.00    +0.235 C 
ATOM     15  O   LIG    1       -4.349   1.786   0.395  0.00  0.00    -0.274 OA
BRANCH  14  16
ATOM     16  C   LIG    1       -6.091   1.921  -1.191  0.00  0.00    +0.240 C 
BRANCH  16  17
ATOM     17  N   LIG    1       -6.205   3.292  -0.685  0.00  0.00    -0.243 N 
ATOM     18  C   LIG    1       -6.151   4.424  -1.407  0.00  0.00    +0.219 A 
ATOM     19  N   LIG    1       -6.295   5.435  -0.589  0.00  0.00    -0.223 NA
ATOM     20  C   LIG    1       -6.434   4.989   0.659  0.00  0.00    +0.245 A 
ATOM     21  N   LIG    1       -6.386   3.683   0.651  0.00  0.00    -0.158 NA
ENDBRANCH  16  17
ENDBRANCH  14  16
ENDBRANCH   1  12
BRANCH   1  22
ATOM     22  C   LIG    1       -4.141  -0.903   1.470  0.00  0.00    +0.032 C 
BRANCH  22  23
ATOM     23  C   LIG    1       -5.407  -1.758   1.550  0.00  0.00    +0.037 C 
BRANCH  23  27
ATOM     24  C   LIG    1       -6.677  -2.043   5.619  0.00  0.00    +0.000 A 
ATOM     25  C   LIG    1       -7.143  -1.016   4.820  0.00  0.00    +0.000 A 
ATOM     26  C   LIG    1       -6.732  -0.923   3.503  0.00  0.00    +0.003 A 
ATOM     27  C   LIG    1       -5.855  -1.858   2.986  0.00  0.00    -0.047 A 
ATOM     28  C   LIG    1       -5.393  -2.889   3.783  0.00  0.00    +0.003 A 
ATOM     29  C   LIG    1       -5.800  -2.978   5.101  0.00  0.00    +0.000 A 
ENDBRANCH  23  27
ENDBRANCH  22  23
ENDBRANCH   1  22
TORSDOF 7
