REMARK  Name = ZINC13840552
REMARK                            x       y       z     vdW  Elec       q    Type
REMARK                         _______ _______ _______ _____ _____    ______ ____
ROOT
ATOM      1  C   LIG    1       -0.018   1.503   0.010  0.00  0.00    +0.044 C 
ATOM      2  C   LIG    1        0.002  -0.004   0.002  0.00  0.00    -0.039 A 
ATOM      3  C   LIG    1        0.006  -0.688  -1.196  0.00  0.00    +0.049 A 
ATOM      4  C   LIG    1        0.025  -2.076  -1.204  0.00  0.00    +0.117 A 
ATOM      5  C   LIG    1        0.039  -2.780  -0.008  0.00  0.00    +0.046 A 
ATOM      6  C   LIG    1        0.036  -2.102   1.193  0.00  0.00    +0.012 A 
ATOM      7  C   LIG    1        0.023  -0.708   1.205  0.00  0.00    -0.015 A 
ENDROOT
BRANCH   7   8
ATOM      8  C   LIG    1        0.026   0.025   2.495  0.00  0.00    -0.018 A 
ATOM      9  C   LIG    1        0.934   1.060   2.709  0.00  0.00    +0.008 A 
ATOM     10  C   LIG    1        0.932   1.738   3.911  0.00  0.00    +0.001 A 
ATOM     11  C   LIG    1        0.031   1.392   4.902  0.00  0.00    +0.000 A 
ATOM     12  C   LIG    1       -0.873   0.366   4.694  0.00  0.00    +0.001 A 
ATOM     13  C   LIG    1       -0.883  -0.316   3.494  0.00  0.00    +0.008 A 
ENDBRANCH   7   8
BRANCH   4  14
ATOM     14  O   LIG    1        0.028  -2.747  -2.386  0.00  0.00    -0.507 OA
ATOM     15  H   LIG    1        0.912  -2.929  -2.732  0.00  0.00    +0.292 HD
ENDBRANCH   4  14
TORSDOF 2
