REMARK  Name = ZINC26894070
REMARK                            x       y       z     vdW  Elec       q    Type
REMARK                         _______ _______ _______ _____ _____    ______ ____
ROOT
ATOM      1  C   LIG    1       -0.017   1.380   0.010  0.00  0.00    +0.008 A 
ATOM      2  C   LIG    1        1.183   2.071   0.002  0.00  0.00    +0.048 A 
ATOM      3  C   LIG    1        2.390   1.405  -0.014  0.00  0.00    +0.141 A 
ATOM      4  C   LIG    1        2.438  -0.003  -0.022  0.00  0.00    +0.099 A 
ATOM      5  C   LIG    1        1.205  -0.669  -0.013  0.00  0.00    +0.047 A 
ATOM      6  S   LIG    1        1.671  -2.384  -0.026  0.00  0.00    -0.026 S 
ATOM      7  C   LIG    1        3.442  -2.156  -0.042  0.00  0.00    +0.289 A 
ATOM      8  O   LIG    1        4.319  -3.000  -0.055  0.00  0.00    -0.260 OA
ATOM      9  N   LIG    1        3.563  -0.814  -0.037  0.00  0.00    -0.313 N 
ATOM     10  H   LIG    1        4.445  -0.411  -0.043  0.00  0.00    +0.170 HD
ATOM     11  C   LIG    1        0.002  -0.004   0.002  0.00  0.00    -0.033 A 
ENDROOT
BRANCH   3  12
ATOM     12  O   LIG    1        3.549   2.116  -0.022  0.00  0.00    -0.505 OA
ATOM     13  H   LIG    1        3.524   3.053  -0.017  0.00  0.00    +0.292 HD
ENDBRANCH   3  12
BRANCH  11  14
ATOM     14  C   LIG    1       -1.291  -0.778   0.011  0.00  0.00    +0.017 C 
BRANCH  14  15
ATOM     15  C   LIG    1       -1.649  -1.156   1.449  0.00  0.00    -0.082 C 
BRANCH  15  16
ATOM     16  N   LIG    1       -2.909  -1.911   1.458  0.00  0.00    +0.378 N 
ATOM     17  H   LIG    1       -3.146  -2.160   2.406  0.00  0.00    -0.090 HD
ATOM     18  H   LIG    1       -2.803  -2.749   0.907  0.00  0.00    -0.090 HD
ATOM     19  H   LIG    1       -3.645  -1.342   1.066  0.00  0.00    -0.090 HD
ENDBRANCH  15  16
ENDBRANCH  14  15
ENDBRANCH  11  14
TORSDOF 4
