REMARK  Name = ZINC22916765
REMARK                            x       y       z     vdW  Elec       q    Type
REMARK                         _______ _______ _______ _____ _____    ______ ____
ROOT
ATOM      1  N   LIG    1       -0.833  -6.851   0.746  0.00  0.00    -0.206 N 
ATOM      2  H   LIG    1       -0.796  -7.466   1.496  0.00  0.00    +0.177 HD
ATOM      3  C   LIG    1       -1.418  -7.229  -0.408  0.00  0.00    +0.246 C 
ATOM      4  O   LIG    1       -1.464  -6.460  -1.345  0.00  0.00    -0.273 OA
ENDROOT
BRANCH   1   6
ATOM      5  C   LIG    1        0.285  -5.206   1.975  0.00  0.00    +0.142 C 
ATOM      6  N   LIG    1       -0.279  -5.570   0.863  0.00  0.00    -0.188 NA
BRANCH   5  11
ATOM      7  C   LIG    1        1.369  -1.702   1.144  0.00  0.00    -0.002 A 
ATOM      8  C   LIG    1        1.967  -1.322   2.331  0.00  0.00    +0.007 A 
ATOM      9  C   LIG    1        2.019  -2.200   3.400  0.00  0.00    +0.001 A 
ATOM     10  C   LIG    1        1.475  -3.462   3.292  0.00  0.00    +0.013 A 
ATOM     11  C   LIG    1        0.868  -3.858   2.098  0.00  0.00    +0.036 A 
ATOM     12  C   LIG    1        0.812  -2.965   1.019  0.00  0.00    +0.129 A 
BRANCH  12  13
ATOM     13  O   LIG    1        0.220  -3.337  -0.145  0.00  0.00    -0.506 OA
ATOM     14  H   LIG    1        0.821  -3.756  -0.776  0.00  0.00    +0.292 HD
ENDBRANCH  12  13
BRANCH   7  15
ATOM     15  C   LIG    1        1.317  -0.740  -0.015  0.00  0.00    +0.065 C 
BRANCH  15  17
ATOM     16  C   LIG    1       -0.016   1.306   0.009  0.00  0.00    +0.004 C 
ATOM     17  C   LIG    1        0.002  -0.004   0.002  0.00  0.00    -0.030 C 
ENDBRANCH  15  17
ENDBRANCH   7  15
ENDBRANCH   5  11
ENDBRANCH   1   6
BRANCH   3  18
ATOM     18  C   LIG    1       -2.015  -8.607  -0.534  0.00  0.00    +0.182 C 
BRANCH  18  19
ATOM     19  N   LIG    1       -2.586  -8.773  -1.877  0.00  0.00    -0.292 NA
ATOM     20  C   LIG    1       -3.736  -7.878  -2.074  0.00  0.00    +0.100 C 
ATOM     21  C   LIG    1       -4.251  -8.023  -3.508  0.00  0.00    +0.100 C 
ATOM     22  N   LIG    1       -4.629  -9.422  -3.751  0.00  0.00    -0.296 NA
ATOM     23  C   LIG    1       -3.479 -10.316  -3.554  0.00  0.00    +0.100 C 
ATOM     24  C   LIG    1       -2.964 -10.172  -2.120  0.00  0.00    +0.100 C 
BRANCH  22  25
ATOM     25  C   LIG    1       -5.200  -9.587  -5.094  0.00  0.00    +0.119 C 
BRANCH  25  26
ATOM     26  C   LIG    1       -5.797 -10.965  -5.220  0.00  0.00    -0.033 A 
ATOM     27  C   LIG    1       -5.019 -12.017  -5.668  0.00  0.00    +0.005 A 
ATOM     28  C   LIG    1       -5.566 -13.281  -5.784  0.00  0.00    +0.000 A 
ATOM     29  C   LIG    1       -6.891 -13.493  -5.451  0.00  0.00    +0.000 A 
ATOM     30  C   LIG    1       -7.669 -12.442  -5.003  0.00  0.00    +0.000 A 
ATOM     31  C   LIG    1       -7.120 -11.179  -4.883  0.00  0.00    +0.005 A 
ENDBRANCH  25  26
ENDBRANCH  22  25
ENDBRANCH  18  19
ENDBRANCH   3  18
TORSDOF 9
