REMARK  Name = ZINC19132424
REMARK                            x       y       z     vdW  Elec       q    Type
REMARK                         _______ _______ _______ _____ _____    ______ ____
ROOT
ATOM      1  C   LIG    1       -0.697   1.673   0.012  0.00  0.00    +0.035 C 
ATOM      2  C   LIG    1       -0.409   0.194  -0.030  0.00  0.00    -0.023 C 
ATOM      3  C   LIG    1       -1.413  -0.683   0.032  0.00  0.00    -0.003 C 
ATOM      4  C   LIG    1       -2.856  -0.372   0.136  0.00  0.00    +0.160 C 
ATOM      5  C   LIG    1       -3.608  -1.698   0.263  0.00  0.00    +0.084 C 
ATOM      6  C   LIG    1       -2.536  -2.636   0.831  0.00  0.00    +0.010 C 
ATOM      7  C   LIG    1       -2.738  -4.116   0.560  0.00  0.00    -0.002 C 
ATOM      8  C   LIG    1       -3.981  -4.613   1.304  0.00  0.00    +0.008 C 
ATOM      9  C   LIG    1       -4.211  -6.088   0.970  0.00  0.00    +0.032 C 
ATOM     10  C   LIG    1       -2.950  -6.866   1.297  0.00  0.00    -0.060 C 
ATOM     11  C   LIG    1       -3.079  -7.983   2.013  0.00  0.00    +0.046 C 
ATOM     12  C   LIG    1       -1.895  -8.784   2.345  0.00  0.00    +0.156 C 
ATOM     13  C   LIG    1       -0.678  -8.588   1.462  0.00  0.00    +0.080 C 
ATOM     14  C   LIG    1       -0.428  -7.084   1.355  0.00  0.00    +0.019 C 
ATOM     15  O   LIG    1       -1.891  -9.562   3.276  0.00  0.00    -0.293 OA
ATOM     16  C   LIG    1       -1.619  -6.352   0.749  0.00  0.00    -0.007 C 
ATOM     17  C   LIG    1       -1.588  -6.509  -0.772  0.00  0.00    +0.016 C 
ATOM     18  C   LIG    1       -1.495  -4.858   1.073  0.00  0.00    +0.002 C 
ATOM     19  C   LIG    1       -0.201  -4.322   0.468  0.00  0.00    +0.005 C 
ATOM     20  C   LIG    1       -0.077  -2.799   0.644  0.00  0.00    +0.012 C 
ATOM     21  O   LIG    1       -3.352   0.735   0.123  0.00  0.00    -0.292 OA
ATOM     22  C   LIG    1       -1.300  -2.177   0.003  0.00  0.00    -0.001 C 
ATOM     23  C   LIG    1       -1.428  -2.675  -1.438  0.00  0.00    +0.016 C 
ENDROOT
TORSDOF 0
