REMARK  Name = ZINC29134846
REMARK                            x       y       z     vdW  Elec       q    Type
REMARK                         _______ _______ _______ _____ _____    ______ ____
ROOT
ATOM      1  C   LIG    1       -1.732   1.841   3.532  0.00  0.00    +0.058 C 
ATOM      2  C   LIG    1       -1.525   1.598   2.036  0.00  0.00    +0.130 C 
ATOM      3  C   LIG    1       -1.978   0.182   1.675  0.00  0.00    +0.058 C 
ATOM      4  C   LIG    1       -0.044   1.776   1.681  0.00  0.00    +0.148 C 
ATOM      5  C   LIG    1        0.132   1.446   0.198  0.00  0.00    -0.000 C 
ATOM      6  C   LIG    1       -0.922   2.158  -0.615  0.00  0.00    +0.034 C 
ATOM      7  C   LIG    1       -2.039   2.651  -0.046  0.00  0.00    +0.174 C 
ATOM      8  C   LIG    1       -3.066   3.338  -0.875  0.00  0.00    +0.228 C 
ATOM      9  C   LIG    1       -2.862   3.491  -2.329  0.00  0.00    +0.036 A 
ATOM     10  C   LIG    1       -3.809   4.130  -3.121  0.00  0.00    +0.012 A 
ATOM     11  C   LIG    1       -3.592   4.258  -4.484  0.00  0.00    +0.001 A 
ATOM     12  C   LIG    1       -2.441   3.756  -5.059  0.00  0.00    +0.001 A 
ATOM     13  C   LIG    1       -1.487   3.116  -4.281  0.00  0.00    +0.012 A 
ATOM     14  C   LIG    1       -1.691   2.979  -2.914  0.00  0.00    +0.033 A 
ATOM     15  O   LIG    1       -4.072   3.775  -0.354  0.00  0.00    -0.283 OA
ATOM     16  C   LIG    1       -0.693   2.301  -2.061  0.00  0.00    +0.192 C 
ATOM     17  O   LIG    1        0.325   1.858  -2.557  0.00  0.00    -0.287 OA
ATOM     18  O   LIG    1       -2.276   2.551   1.284  0.00  0.00    -0.480 OA
ENDROOT
BRANCH   5  19
ATOM     19  N   LIG    1        0.002  -0.004   0.002  0.00  0.00    +0.388 N 
ATOM     20  H   LIG    1       -0.977  -0.227  -0.446  0.00  0.00    -0.084 HD
ATOM     21  H   LIG    1        0.086  -0.514   0.973  0.00  0.00    -0.084 HD
BRANCH  19  22
ATOM     22  C   LIG    1        1.054  -0.511  -0.889  0.00  0.00    -0.046 C 
BRANCH  22  23
ATOM     23  C   LIG    1        0.965  -2.014  -0.967  0.00  0.00    -0.064 A 
ATOM     24  C   LIG    1        1.674  -2.795  -0.074  0.00  0.00    +0.002 A 
ATOM     25  C   LIG    1        1.588  -4.173  -0.142  0.00  0.00    +0.000 A 
ATOM     26  C   LIG    1        0.802  -4.770  -1.110  0.00  0.00    +0.000 A 
ATOM     27  C   LIG    1        0.098  -3.988  -2.007  0.00  0.00    +0.000 A 
ATOM     28  C   LIG    1        0.179  -2.610  -1.935  0.00  0.00    +0.002 A 
ENDBRANCH  22  23
ENDBRANCH  19  22
ENDBRANCH   5  19
BRANCH   4  29
ATOM     29  O   LIG    1        0.352   3.127   1.926  0.00  0.00    -0.389 OA
ATOM     30  H   LIG    1        1.388   3.441   1.728  0.00  0.00    +0.210 HD
ENDBRANCH   4  29
TORSDOF 4
