REMARK  Name = ZINC22217689
REMARK                            x       y       z     vdW  Elec       q    Type
REMARK                         _______ _______ _______ _____ _____    ______ ____
ROOT
ATOM      1  C   LIG    1       -1.766   6.059  -0.532  0.00  0.00    +0.000 A 
ATOM      2  C   LIG    1       -1.938   5.561  -1.811  0.00  0.00    +0.001 A 
ATOM      3  C   LIG    1       -1.671   4.233  -2.065  0.00  0.00    +0.015 A 
ATOM      4  C   LIG    1       -1.226   3.392  -1.045  0.00  0.00    +0.014 A 
ATOM      5  C   LIG    1       -1.040   3.889   0.231  0.00  0.00    -0.002 A 
ATOM      6  C   LIG    1       -0.529   3.088   1.392  0.00  0.00    +0.139 C 
ATOM      7  C   LIG    1        0.948   3.368   1.591  0.00  0.00    +0.249 C 
ATOM      8  N   LIG    1        1.050   3.935   2.810  0.00  0.00    -0.238 N 
ATOM      9  H   LIG    1        2.035   4.237   3.195  0.00  0.00    +0.159 HD
ATOM     10  C   LIG    1       -0.144   4.051   3.402  0.00  0.00    +0.307 C 
ATOM     11  O   LIG    1       -0.307   4.532   4.506  0.00  0.00    -0.252 OA
ATOM     12  O   LIG    1        1.849   3.131   0.816  0.00  0.00    -0.273 OA
ATOM     13  C   LIG    1       -0.753   1.592   1.254  0.00  0.00    +0.051 C 
ATOM     14  C   LIG    1       -0.013   1.086   0.008  0.00  0.00    +0.077 C 
ATOM     15  N   LIG    1       -1.144   3.574   2.639  0.00  0.00    -0.281 N 
ATOM     16  H   LIG    1       -2.232   3.498   2.781  0.00  0.00    +0.152 HD
ATOM     17  S   LIG    1       -0.917   1.700  -1.443  0.00  0.00    -0.125 S 
ATOM     18  C   LIG    1       -1.323   5.231   0.476  0.00  0.00    +0.007 A 
ENDROOT
TORSDOF 0
