REMARK  Name = ZINC19595447
REMARK                            x       y       z     vdW  Elec       q    Type
REMARK                         _______ _______ _______ _____ _____    ______ ____
ROOT
ATOM      1  C   LIG    1        0.002  -0.004   0.002  0.00  0.00    +0.013 A 
ATOM      2  C   LIG    1       -0.017   1.375   0.010  0.00  0.00    +0.033 A 
ATOM      3  C   LIG    1        1.170   2.087   0.002  0.00  0.00    +0.122 A 
ATOM      4  C   LIG    1        2.384   1.422  -0.013  0.00  0.00    +0.033 A 
ATOM      5  C   LIG    1        2.420   0.043  -0.021  0.00  0.00    +0.013 A 
ATOM      6  C   LIG    1        1.225  -0.683  -0.013  0.00  0.00    +0.019 A 
ENDROOT
BRANCH   3   7
ATOM      7  N   LIG    1        1.141   3.566   0.010  0.00  0.00    +0.006 N 
ATOM      8  O   LIG    1        0.075   4.154   0.023  0.00  0.00    -0.130 OA
BRANCH   7   9
ATOM      9  O   LIG    1        2.184   4.196   0.003  0.00  0.00    -0.396 OA
ATOM     10  H   LIG    1        3.004   3.744  -0.007  0.00  0.00    +0.329 HD
ENDBRANCH   7   9
ENDBRANCH   3   7
BRANCH   6  11
ATOM     11  C   LIG    1        1.254  -2.154  -0.021  0.00  0.00    +0.183 C 
ATOM     12  O   LIG    1        0.216  -2.781  -0.014  0.00  0.00    -0.290 OA
BRANCH  11  13
ATOM     13  C   LIG    1        2.573  -2.882  -0.038  0.00  0.00    +0.202 C 
BRANCH  13  14
ATOM     14  N   LIG    1        2.334  -4.327  -0.043  0.00  0.00    -0.331 N 
ATOM     15  C   LIG    1        2.190  -5.123  -1.147  0.00  0.00    +0.105 A 
ATOM     16  C   LIG    1        1.987  -6.377  -0.700  0.00  0.00    +0.101 A 
ATOM     17  N   LIG    1        2.006  -6.348   0.641  0.00  0.00    -0.352 N 
ATOM     18  H   LIG    1        1.854  -7.275   1.213  0.00  0.00    +0.166 HD
ATOM     19  C   LIG    1        2.219  -5.124   1.042  0.00  0.00    +0.174 A 
ENDBRANCH  13  14
ENDBRANCH  11  13
ENDBRANCH   6  11
TORSDOF 5
