REMARK  Name = ZINC31502675
REMARK                            x       y       z     vdW  Elec       q    Type
REMARK                         _______ _______ _______ _____ _____    ______ ____
ROOT
ATOM      1  C   LIG    1       -0.253   1.309  -0.058  0.00  0.00    +0.105 C 
ATOM      2  N   LIG    1       -0.079  -0.149   0.005  0.00  0.00    -0.295 NA
ATOM      3  C   LIG    1        0.445  -0.674  -1.266  0.00  0.00    +0.089 C 
ATOM      4  C   LIG    1        0.259  -2.191  -1.277  0.00  0.00    +0.051 C 
ATOM      5  C   LIG    1        0.805  -2.786  -0.004  0.00  0.00    -0.038 A 
ATOM      6  C   LIG    1        1.058  -4.150   0.032  0.00  0.00    +0.053 A 
ATOM      7  C   LIG    1        1.555  -4.740   1.179  0.00  0.00    +0.167 A 
ATOM      8  C   LIG    1        1.802  -3.958   2.305  0.00  0.00    +0.167 A 
ATOM      9  O   LIG    1        2.282  -4.762   3.298  0.00  0.00    -0.453 OA
ATOM     10  C   LIG    1        1.942  -6.105   2.904  0.00  0.00    +0.466 C 
ATOM     11  C   LIG    1        1.550  -2.599   2.264  0.00  0.00    +0.055 A 
ATOM     12  O   LIG    1        1.881  -6.034   1.467  0.00  0.00    -0.453 OA
ATOM     13  C   LIG    1        1.053  -2.011   1.109  0.00  0.00    -0.020 A 
ATOM     14  C   LIG    1        0.805  -0.525   1.113  0.00  0.00    +0.133 C 
ENDROOT
BRANCH  14  15
ATOM     15  C   LIG    1        0.153  -0.125   2.438  0.00  0.00    +0.229 C 
ATOM     16  C   LIG    1       -1.264  -0.640   2.492  0.00  0.00    +0.012 A 
ATOM     17  C   LIG    1       -1.815  -1.897   2.444  0.00  0.00    +0.012 A 
ATOM     18  C   LIG    1       -3.190  -2.057   2.520  0.00  0.00    +0.050 A 
ATOM     19  C   LIG    1       -4.018  -0.953   2.643  0.00  0.00    +0.167 A 
ATOM     20  C   LIG    1       -3.471   0.327   2.692  0.00  0.00    +0.181 A 
ATOM     21  O   LIG    1       -4.482   1.230   2.814  0.00  0.00    -0.452 OA
ATOM     22  C   LIG    1       -5.677   0.525   2.428  0.00  0.00    +0.466 C 
ATOM     23  O   LIG    1       -5.376  -0.849   2.734  0.00  0.00    -0.453 OA
ATOM     24  C   LIG    1       -2.083   0.488   2.616  0.00  0.00    +0.111 A 
ATOM     25  C   LIG    1       -1.210   1.673   2.640  0.00  0.00    +0.344 C 
ATOM     26  O   LIG    1       -1.597   2.820   2.740  0.00  0.00    -0.245 OA
ATOM     27  O   LIG    1        0.077   1.299   2.537  0.00  0.00    -0.451 OA
ENDBRANCH  14  15
TORSDOF 1
