REMARK  Name = ZINC19361903
REMARK                            x       y       z     vdW  Elec       q    Type
REMARK                         _______ _______ _______ _____ _____    ______ ____
ROOT
ATOM      1  N   LIG    1       -1.414   1.934  -2.093  0.00  0.00    -0.300 NA
ATOM      2  C   LIG    1       -0.454   2.673  -2.925  0.00  0.00    +0.083 C 
ATOM      3  C   LIG    1       -0.200   4.050  -2.308  0.00  0.00    -0.004 C 
ATOM      4  C   LIG    1        1.306   4.305  -2.234  0.00  0.00    -0.081 C 
ATOM      5  N   LIG    1        1.650   4.824  -0.903  0.00  0.00    +0.380 N 
ATOM      6  H   LIG    1        0.818   4.634  -0.209  0.00  0.00    -0.086 HD
ATOM      7  H   LIG    1        1.833   5.907  -0.968  0.00  0.00    -0.086 HD
ATOM      8  C   LIG    1        2.858   4.172  -0.380  0.00  0.00    -0.067 C 
ATOM      9  C   LIG    1        2.645   3.809   1.091  0.00  0.00    +0.062 C 
ATOM     10  N   LIG    1        3.068   2.421   1.320  0.00  0.00    -0.318 NA
ATOM     11  H   LIG    1        3.214   1.919   0.352  0.00  0.00    +0.122 HD
ATOM     12  C   LIG    1        2.056   1.682   2.086  0.00  0.00    +0.079 C 
ATOM     13  C   LIG    1        1.827   0.314   1.442  0.00  0.00    -0.004 C 
ATOM     14  C   LIG    1        0.333  -0.015   1.461  0.00  0.00    -0.081 C 
ATOM     15  N   LIG    1       -0.068  -0.549   0.152  0.00  0.00    +0.380 N 
ATOM     16  H   LIG    1       -0.346  -1.608   0.257  0.00  0.00    -0.086 HD
ATOM     17  H   LIG    1        0.770  -0.457  -0.553  0.00  0.00    -0.086 HD
ATOM     18  C   LIG    1       -1.219   0.188  -0.386  0.00  0.00    -0.067 C 
ATOM     19  C   LIG    1       -0.948   0.563  -1.845  0.00  0.00    +0.066 C 
ENDROOT
BRANCH   1  20
ATOM     20  C   LIG    1       -1.670   2.640  -0.831  0.00  0.00    +0.119 C 
BRANCH  20  24
ATOM     21  C   LIG    1       -5.088   0.939   1.085  0.00  0.00    -0.064 A 
ATOM     22  C   LIG    1       -4.043   1.431   1.845  0.00  0.00    +0.002 A 
ATOM     23  C   LIG    1       -2.937   1.982   1.225  0.00  0.00    +0.005 A 
ATOM     24  C   LIG    1       -2.875   2.039  -0.155  0.00  0.00    -0.033 A 
ATOM     25  C   LIG    1       -3.922   1.551  -0.914  0.00  0.00    +0.005 A 
ATOM     26  C   LIG    1       -5.026   0.996  -0.294  0.00  0.00    +0.002 A 
BRANCH  21  27
ATOM     27  C   LIG    1       -6.293   0.338   1.761  0.00  0.00    -0.046 C 
BRANCH  27  28
ATOM     28  N   LIG    1       -7.291   1.388   2.006  0.00  0.00    +0.385 N 
ATOM     29  H   LIG    1       -6.841   2.160   2.647  0.00  0.00    -0.085 HD
ATOM     30  H   LIG    1       -7.578   1.834   1.042  0.00  0.00    -0.085 HD
BRANCH  28  31
ATOM     31  C   LIG    1       -8.483   0.838   2.665  0.00  0.00    -0.026 C 
BRANCH  31  36
ATOM     32  C   LIG    1      -11.405   3.174   2.205  0.00  0.00    +0.003 A 
ATOM     33  C   LIG    1      -11.269   3.942   3.352  0.00  0.00    +0.020 A 
ATOM     34  C   LIG    1      -10.234   3.669   4.226  0.00  0.00    +0.111 A 
ATOM     35  N   LIG    1       -9.386   2.689   3.982  0.00  0.00    -0.262 NA
ATOM     36  C   LIG    1       -9.482   1.942   2.899  0.00  0.00    +0.024 A 
ATOM     37  C   LIG    1      -10.492   2.156   1.980  0.00  0.00    +0.021 A 
ENDBRANCH  31  36
ENDBRANCH  28  31
ENDBRANCH  27  28
ENDBRANCH  21  27
ENDBRANCH  20  24
ENDBRANCH   1  20
TORSDOF 6
