REMARK  Name = ZINC14979644
REMARK                            x       y       z     vdW  Elec       q    Type
REMARK                         _______ _______ _______ _____ _____    ______ ____
ROOT
ATOM      1  N   LIG    1       -3.004  -1.778  -1.420  0.00  0.00    -0.368 N 
ATOM      2  H   LIG    1       -3.412  -2.030  -0.577  0.00  0.00    +0.161 HD
ATOM      3  C   LIG    1       -3.575  -2.106  -2.546  0.00  0.00    +0.125 C 
ENDROOT
BRANCH   3   4
ATOM      4  N   LIG    1       -4.757  -2.809  -2.538  0.00  0.00    -0.339 N 
ATOM      5  H   LIG    1       -5.183  -3.053  -3.375  0.00  0.00    +0.144 HD
ATOM      6  H   LIG    1       -5.166  -3.062  -1.695  0.00  0.00    +0.144 HD
ENDBRANCH   3   4
BRANCH   1   7
ATOM      7  C   LIG    1       -1.745  -1.028  -1.429  0.00  0.00    +0.119 C 
BRANCH   7   8
ATOM      8  C   LIG    1       -1.293  -0.775   0.011  0.00  0.00    +0.056 C 
BRANCH   8  15
ATOM      9  C   LIG    1       -0.017   1.378   0.010  0.00  0.00    +0.005 A 
ATOM     10  C   LIG    1        1.171   2.086   0.002  0.00  0.00    +0.014 A 
ATOM     11  C   LIG    1        2.378   1.411  -0.013  0.00  0.00    +0.013 A 
ATOM     12  I   LIG    1        4.178   2.482  -0.025  0.00  0.00    -0.044 I 
ATOM     13  C   LIG    1        2.396   0.028  -0.021  0.00  0.00    +0.014 A 
ATOM     14  C   LIG    1        1.208  -0.679  -0.013  0.00  0.00    +0.005 A 
ATOM     15  C   LIG    1        0.002  -0.004   0.002  0.00  0.00    -0.046 A 
ENDBRANCH   8  15
ENDBRANCH   7   8
ENDBRANCH   1   7
BRANCH   3  16
ATOM     16  S   LIG    1       -2.834  -1.647  -4.077  0.00  0.00    -0.093 S 
BRANCH  16  17
ATOM     17  C   LIG    1       -3.967  -2.307  -5.329  0.00  0.00    +0.077 C 
BRANCH  17  18
ATOM     18  C   LIG    1       -3.436  -1.975  -6.725  0.00  0.00    +0.017 C 
BRANCH  18  19
ATOM     19  C   LIG    1       -4.392  -2.532  -7.781  0.00  0.00    +0.058 C 
BRANCH  19  20
ATOM     20  C   LIG    1       -3.868  -2.205  -9.156  0.00  0.00    +0.059 A 
ATOM     21  C   LIG    1       -3.632  -3.089 -10.144  0.00  0.00    +0.107 A 
ATOM     22  N   LIG    1       -3.167  -2.372 -11.214  0.00  0.00    -0.351 N 
ATOM     23  H   LIG    1       -2.909  -2.730 -12.078  0.00  0.00    +0.166 HD
ATOM     24  C   LIG    1       -3.135  -1.075 -10.841  0.00  0.00    +0.196 A 
ATOM     25  N   LIG    1       -3.560  -0.981  -9.611  0.00  0.00    -0.241 NA
ENDBRANCH  19  20
ENDBRANCH  18  19
ENDBRANCH  17  18
ENDBRANCH  16  17
ENDBRANCH   3  16
TORSDOF 9
