REMARK  Name = ZINC36176941
REMARK                            x       y       z     vdW  Elec       q    Type
REMARK                         _______ _______ _______ _____ _____    ______ ____
ROOT
ATOM      1  C   LIG    1        4.952  -4.040   0.101  0.00  0.00    +0.035 A 
ATOM      2  C   LIG    1        3.762  -4.759   0.102  0.00  0.00    +0.024 A 
ATOM      3  C   LIG    1        3.787  -6.136   0.090  0.00  0.00    +0.010 A 
ATOM      4  C   LIG    1        5.009  -6.811   0.077  0.00  0.00    -0.017 A 
ATOM      5  C   LIG    1        6.202  -6.087   0.076  0.00  0.00    +0.010 A 
ATOM      6  C   LIG    1        6.171  -4.709   0.082  0.00  0.00    +0.024 A 
ENDROOT
BRANCH   4   7
ATOM      7  C   LIG    1        5.040  -8.291   0.064  0.00  0.00    -0.005 A 
ATOM      8  C   LIG    1        4.291  -9.020   0.970  0.00  0.00    +0.009 A 
ATOM      9  C   LIG    1        4.311 -10.411   0.969  0.00  0.00    +0.003 A 
ATOM     10  C   LIG    1        5.054 -11.132   0.093  0.00  0.00    +0.028 A 
ATOM     11  C   LIG    1        5.854 -10.482  -0.871  0.00  0.00    +0.066 A 
ATOM     12  N   LIG    1        6.665 -10.889  -1.831  0.00  0.00    -0.298 N 
ATOM     13  H   LIG    1        6.860 -11.814  -2.048  0.00  0.00    +0.187 HD
ATOM     14  N   LIG    1        7.184  -9.773  -2.498  0.00  0.00    -0.286 N 
ATOM     15  H   LIG    1        7.803  -9.807  -3.244  0.00  0.00    +0.188 HD
ATOM     16  C   LIG    1        6.708  -8.645  -1.942  0.00  0.00    +0.118 A 
ATOM     17  C   LIG    1        5.856  -9.012  -0.909  0.00  0.00    +0.046 A 
BRANCH  16  18
ATOM     18  N   LIG    1        7.012  -7.349  -2.331  0.00  0.00    -0.343 N 
ATOM     19  H   LIG    1        7.622  -7.195  -3.069  0.00  0.00    +0.144 HD
ATOM     20  H   LIG    1        6.614  -6.597  -1.865  0.00  0.00    +0.144 HD
ENDBRANCH  16  18
ENDBRANCH   4   7
BRANCH   1  24
ATOM     21  N   LIG    1        3.852  -0.652   0.693  0.00  0.00    -0.269 N 
ATOM     22  H   LIG    1        4.449  -0.158   0.110  0.00  0.00    +0.156 HD
ATOM     23  C   LIG    1        3.940  -1.994   0.768  0.00  0.00    +0.308 C 
ATOM     24  N   LIG    1        4.924  -2.643   0.113  0.00  0.00    -0.269 N 
ATOM     25  H   LIG    1        5.612  -2.139  -0.349  0.00  0.00    +0.156 HD
ATOM     26  O   LIG    1        3.132  -2.621   1.426  0.00  0.00    -0.252 OA
BRANCH  21  30
ATOM     27  C   LIG    1        1.015   1.380   2.970  0.00  0.00    +0.000 A 
ATOM     28  C   LIG    1        1.596   0.225   3.461  0.00  0.00    +0.002 A 
ATOM     29  C   LIG    1        2.536  -0.451   2.709  0.00  0.00    +0.023 A 
ATOM     30  C   LIG    1        2.899   0.030   1.458  0.00  0.00    +0.035 A 
ATOM     31  C   LIG    1        2.313   1.190   0.967  0.00  0.00    +0.023 A 
ATOM     32  C   LIG    1        1.374   1.862   1.724  0.00  0.00    +0.002 A 
ENDBRANCH  21  30
ENDBRANCH   1  24
TORSDOF 4
