REMARK  Name = ZINC27092697
REMARK                            x       y       z     vdW  Elec       q    Type
REMARK                         _______ _______ _______ _____ _____    ______ ____
ROOT
ATOM      1  C   LIG    1        0.718  -0.497  -1.257  0.00  0.00    +0.127 C 
ATOM      2  C   LIG    1        0.683  -2.035  -1.329  0.00  0.00    +0.155 C 
ATOM      3  N   LIG    1        2.106  -2.414  -1.300  0.00  0.00    -0.275 N 
ATOM      4  C   LIG    1        2.868  -1.262  -1.222  0.00  0.00    +0.160 A 
ATOM      5  C   LIG    1        4.329  -1.416  -1.182  0.00  0.00    +0.127 A 
ATOM      6  C   LIG    1        4.874  -2.688  -1.224  0.00  0.00    +0.167 A 
ATOM      7  N   LIG    1        4.024  -3.785  -1.302  0.00  0.00    -0.280 N 
ATOM      8  C   LIG    1        4.590  -5.135  -1.347  0.00  0.00    +0.155 C 
ATOM      9  N   LIG    1        6.201  -2.559  -1.175  0.00  0.00    -0.210 NA
ATOM     10  C   LIG    1        6.523  -1.282  -1.105  0.00  0.00    +0.141 A 
ATOM     11  N   LIG    1        5.384  -0.533  -1.107  0.00  0.00    -0.334 N 
ATOM     12  H   LIG    1        5.327   0.434  -1.064  0.00  0.00    +0.168 HD
ATOM     13  C   LIG    1        2.692  -3.625  -1.336  0.00  0.00    +0.332 A 
ATOM     14  O   LIG    1        1.986  -4.614  -1.404  0.00  0.00    -0.246 OA
ATOM     15  N   LIG    1        2.146  -0.169  -1.197  0.00  0.00    -0.260 NA
ENDROOT
BRANCH  10  16
ATOM     16  C   LIG    1        7.899  -0.748  -1.036  0.00  0.00    +0.017 A 
ATOM     17  C   LIG    1        8.114   0.629  -0.959  0.00  0.00    +0.011 A 
ATOM     18  C   LIG    1        9.401   1.121  -0.894  0.00  0.00    +0.001 A 
ATOM     19  C   LIG    1       10.478   0.252  -0.905  0.00  0.00    +0.000 A 
ATOM     20  C   LIG    1       10.273  -1.114  -0.981  0.00  0.00    +0.001 A 
ATOM     21  C   LIG    1        8.990  -1.619  -1.041  0.00  0.00    +0.011 A 
ENDBRANCH  10  16
BRANCH   1  23
ATOM     22  C   LIG    1       -0.019   1.526   0.010  0.00  0.00    +0.006 C 
ATOM     23  C   LIG    1        0.002  -0.004   0.002  0.00  0.00    +0.025 C 
ENDBRANCH   1  23
TORSDOF 2
