REMARK  Name = ZINC38545497
REMARK                            x       y       z     vdW  Elec       q    Type
REMARK                         _______ _______ _______ _____ _____    ______ ____
ROOT
ATOM      1  C   LIG    1        0.909   1.506   0.104  0.00  0.00    +0.012 C 
ATOM      2  C   LIG    1        0.838  -0.017   0.123  0.00  0.00    -0.025 C 
ATOM      3  C   LIG    1       -0.581  -0.417   0.568  0.00  0.00    +0.010 C 
ATOM      4  C   LIG    1       -0.831   0.077   1.989  0.00  0.00    +0.032 C 
ATOM      5  C   LIG    1        0.142  -0.574   2.961  0.00  0.00    +0.120 C 
ATOM      6  C   LIG    1        1.601  -0.363   2.558  0.00  0.00    -0.006 C 
ATOM      7  C   LIG    1        2.068   1.028   2.987  0.00  0.00    +0.014 C 
ATOM      8  C   LIG    1        2.428  -1.388   3.376  0.00  0.00    +0.014 C 
ATOM      9  C   LIG    1        1.073  -0.608  -1.268  0.00  0.00    +0.006 C 
ATOM     10  C   LIG    1        0.171   0.061  -2.305  0.00  0.00    +0.031 C 
ATOM     11  C   LIG    1        0.460  -0.500  -3.667  0.00  0.00    -0.026 C 
ATOM     12  C   LIG    1        1.552  -1.140  -3.987  0.00  0.00    -0.063 C 
ATOM     13  C   LIG    1        2.641  -1.454  -3.004  0.00  0.00    -0.005 C 
ATOM     14  C   LIG    1        2.461  -2.913  -2.563  0.00  0.00    +0.016 C 
ATOM     15  C   LIG    1        4.027  -1.330  -3.618  0.00  0.00    +0.012 C 
ATOM     16  C   LIG    1        4.088  -1.954  -5.014  0.00  0.00    +0.019 C 
ATOM     17  C   LIG    1        3.070  -1.296  -5.941  0.00  0.00    +0.074 C 
ATOM     18  C   LIG    1        3.239  -1.799  -7.373  0.00  0.00    +0.019 C 
ATOM     19  C   LIG    1        2.905  -3.281  -7.483  0.00  0.00    +0.007 C 
ATOM     20  C   LIG    1        1.488  -3.567  -6.991  0.00  0.00    -0.034 C 
ATOM     21  C   LIG    1        1.251  -5.084  -7.020  0.00  0.00    +0.011 C 
ATOM     22  C   LIG    1        0.458  -2.889  -7.891  0.00  0.00    +0.011 C 
ATOM     23  C   LIG    1        1.338  -3.080  -5.548  0.00  0.00    +0.015 C 
ATOM     24  C   LIG    1        1.661  -1.598  -5.433  0.00  0.00    +0.033 C 
ATOM     25  C   LIG    1        2.515  -0.571  -1.752  0.00  0.00    -0.019 C 
ATOM     26  C   LIG    1        2.896   0.858  -2.168  0.00  0.00    +0.012 C 
ATOM     27  C   LIG    1        3.498  -1.037  -0.684  0.00  0.00    +0.008 C 
ATOM     28  C   LIG    1        3.257  -0.288   0.638  0.00  0.00    +0.005 C 
ATOM     29  C   LIG    1        1.838  -0.634   1.091  0.00  0.00    +0.003 C 
ENDROOT
BRANCH   5  30
ATOM     30  O   LIG    1       -0.128  -1.978   3.038  0.00  0.00    -0.391 OA
ATOM     31  H   LIG    1       -1.020  -2.190   3.343  0.00  0.00    +0.210 HD
ENDBRANCH   5  30
BRANCH  17  32
ATOM     32  C   LIG    1        3.278   0.201  -5.949  0.00  0.00    +0.312 C 
ATOM     33  O   LIG    1        4.345   0.666  -6.313  0.00  0.00    -0.250 OA
BRANCH  32  34
ATOM     34  O   LIG    1        2.379   0.943  -5.592  0.00  0.00    -0.480 OA
ATOM     35  H   LIG    1        1.559   0.586  -5.312  0.00  0.00    +0.295 HD
ENDBRANCH  32  34
ENDBRANCH  17  32
TORSDOF 3
