REMARK  Name = ZINC36177025
REMARK                            x       y       z     vdW  Elec       q    Type
REMARK                         _______ _______ _______ _____ _____    ______ ____
ROOT
ATOM      1  C   LIG    1       -7.092  -8.771   0.023  0.00  0.00    -0.000 C 
ENDROOT
BRANCH   1   2
ATOM      2  C   LIG    1       -7.071 -10.301   0.014  0.00  0.00    -0.000 C 
BRANCH   2   3
ATOM      3  C   LIG    1       -8.507 -10.831   0.025  0.00  0.00    -0.000 C 
BRANCH   3   4
ATOM      4  C   LIG    1       -8.486 -12.361   0.017  0.00  0.00    -0.000 C 
BRANCH   4   5
ATOM      5  C   LIG    1       -9.921 -12.890   0.028  0.00  0.00    -0.000 C 
BRANCH   5   6
ATOM      6  C   LIG    1       -9.900 -14.420   0.019  0.00  0.00    -0.002 C 
BRANCH   6   7
ATOM      7  C   LIG    1      -11.336 -14.950   0.030  0.00  0.00    -0.018 C 
BRANCH   7   8
ATOM      8  C   LIG    1      -11.315 -16.479   0.022  0.00  0.00    -0.076 C 
BRANCH   8   9
ATOM      9  N   LIG    1      -12.693 -16.988   0.032  0.00  0.00    +0.374 N 
ATOM     10  C   LIG    1      -13.381 -16.514   1.241  0.00  0.00    -0.093 C 
ATOM     11  C   LIG    1      -12.673 -18.457   0.024  0.00  0.00    -0.093 C 
ATOM     12  C   LIG    1      -13.404 -16.501  -1.158  0.00  0.00    -0.093 C 
ENDBRANCH   8   9
ENDBRANCH   7   8
ENDBRANCH   6   7
ENDBRANCH   5   6
ENDBRANCH   4   5
ENDBRANCH   3   4
ENDBRANCH   2   3
ENDBRANCH   1   2
BRANCH   1  13
ATOM     13  C   LIG    1       -5.657  -8.242   0.012  0.00  0.00    -0.000 C 
BRANCH  13  14
ATOM     14  C   LIG    1       -5.677  -6.712   0.020  0.00  0.00    -0.000 C 
BRANCH  14  15
ATOM     15  C   LIG    1       -4.242  -6.182   0.009  0.00  0.00    -0.000 C 
BRANCH  15  16
ATOM     16  C   LIG    1       -4.263  -4.652   0.018  0.00  0.00    -0.000 C 
BRANCH  16  17
ATOM     17  C   LIG    1       -2.827  -4.123   0.007  0.00  0.00    -0.000 C 
BRANCH  17  18
ATOM     18  C   LIG    1       -2.848  -2.593   0.015  0.00  0.00    -0.000 C 
BRANCH  18  19
ATOM     19  C   LIG    1       -1.413  -2.063   0.004  0.00  0.00    -0.000 C 
BRANCH  19  20
ATOM     20  C   LIG    1       -1.433  -0.534   0.013  0.00  0.00    -0.000 C 
BRANCH  20  22
ATOM     21  C   LIG    1       -0.019   1.526   0.010  0.00  0.00    +0.004 C 
ATOM     22  C   LIG    1        0.002  -0.004   0.002  0.00  0.00    -0.003 C 
ENDBRANCH  20  22
ENDBRANCH  19  20
ENDBRANCH  18  19
ENDBRANCH  17  18
ENDBRANCH  16  17
ENDBRANCH  15  16
ENDBRANCH  14  15
ENDBRANCH  13  14
ENDBRANCH   1  13
TORSDOF 17
