REMARK  Name = ZINC17022326
REMARK                            x       y       z     vdW  Elec       q    Type
REMARK                         _______ _______ _______ _____ _____    ______ ____
ROOT
ATOM      1  C   LIG    1       -1.031  -0.883   0.008  0.00  0.00    +0.028 C 
ATOM      2  C   LIG    1       -0.045   0.011   0.271  0.00  0.00    +0.074 C 
ATOM      3  C   LIG    1       -0.090   1.488   0.276  0.00  0.00    +0.217 C 
ATOM      4  N   LIG    1        1.037   2.113   0.574  0.00  0.00    -0.165 NA
ATOM      5  C   LIG    1        2.166   1.433   0.858  0.00  0.00    +0.139 C 
ATOM      6  S   LIG    1        3.709   2.056   1.264  0.00  0.00    -0.026 S 
ATOM      7  S   LIG    1        1.664  -0.274   0.711  0.00  0.00    -0.060 S 
ENDROOT
BRANCH   1  15
ATOM      8  C   LIG    1        0.617  -2.741  -0.115  0.00  0.00    +0.009 A 
ATOM      9  C   LIG    1        0.906  -4.086  -0.211  0.00  0.00    +0.022 A 
ATOM     10  C   LIG    1       -0.119  -5.013  -0.305  0.00  0.00    +0.059 A 
ATOM     11 CL   LIG    1        0.255  -6.704  -0.432  0.00  0.00    -0.082 Cl
ATOM     12  C   LIG    1       -1.442  -4.598  -0.297  0.00  0.00    +0.060 A 
ATOM     13 CL   LIG    1       -2.718  -5.769  -0.416  0.00  0.00    -0.082 Cl
ATOM     14  C   LIG    1       -1.746  -3.256  -0.196  0.00  0.00    +0.029 A 
ATOM     15  C   LIG    1       -0.716  -2.314  -0.100  0.00  0.00    -0.022 A 
ENDBRANCH   1  15
BRANCH   3  16
ATOM     16  O   LIG    1       -1.109   2.099   0.013  0.00  0.00    -0.493 OA
ATOM     17  H   LIG    1       -1.894   1.631  -0.195  0.00  0.00    +0.294 HD
ENDBRANCH   3  16
TORSDOF 2
