REMARK  Name = ZINC45354918
REMARK                            x       y       z     vdW  Elec       q    Type
REMARK                         _______ _______ _______ _____ _____    ______ ____
ROOT
ATOM      1  C   LIG    1        1.245  -2.757   1.394  0.00  0.00    -0.064 C 
ATOM      2  C   LIG    1        2.391  -2.160   2.214  0.00  0.00    +0.006 C 
ATOM      3  C   LIG    1        3.720  -2.440   1.506  0.00  0.00    +0.105 C 
ATOM      4  N   LIG    1        3.836  -3.886   1.271  0.00  0.00    -0.315 N 
ATOM      5  C   LIG    1        2.745  -4.577   0.570  0.00  0.00    +0.105 C 
ATOM      6  C   LIG    1        1.426  -4.273   1.289  0.00  0.00    +0.006 C 
ENDROOT
BRANCH   4   7
ATOM      7  C   LIG    1        4.950  -4.583   1.701  0.00  0.00    +0.134 A 
ATOM      8  C   LIG    1        6.026  -4.825   0.833  0.00  0.00    +0.059 A 
ATOM      9  C   LIG    1        6.325  -4.504  -0.561  0.00  0.00    +0.032 A 
ATOM     10  C   LIG    1        7.538  -5.016  -0.826  0.00  0.00    +0.085 A 
ATOM     11  N   LIG    1        8.034  -5.637   0.291  0.00  0.00    -0.346 N 
ATOM     12  H   LIG    1        8.895  -6.081   0.344  0.00  0.00    +0.167 HD
ATOM     13  C   LIG    1        7.138  -5.539   1.319  0.00  0.00    +0.143 A 
ATOM     14  N   LIG    1        7.123  -5.957   2.584  0.00  0.00    -0.218 NA
ATOM     15  C   LIG    1        6.092  -5.708   3.361  0.00  0.00    +0.225 A 
ATOM     16  N   LIG    1        5.031  -5.037   2.949  0.00  0.00    -0.220 NA
ENDBRANCH   4   7
BRANCH   1  17
ATOM     17  N   LIG    1       -0.034  -2.462   2.054  0.00  0.00    +0.382 N 
ATOM     18  H   LIG    1       -0.154  -1.462   2.123  0.00  0.00    -0.089 HD
ATOM     19  H   LIG    1       -0.036  -2.866   2.978  0.00  0.00    -0.089 HD
ATOM     20  H   LIG    1       -0.790  -2.855   1.513  0.00  0.00    -0.089 HD
ENDBRANCH   1  17
BRANCH   1  21
ATOM     21  C   LIG    1        1.249  -2.145  -0.008  0.00  0.00    +0.024 C 
BRANCH  21  27
ATOM     22  C   LIG    1       -0.852  -4.312  -2.275  0.00  0.00    +0.000 A 
ATOM     23  C   LIG    1       -2.070  -3.659  -2.233  0.00  0.00    +0.001 A 
ATOM     24  C   LIG    1       -2.214  -2.515  -1.471  0.00  0.00    +0.020 A 
ATOM     25  C   LIG    1       -1.140  -2.024  -0.750  0.00  0.00    +0.044 A 
ATOM     26 CL   LIG    1       -1.320  -0.587   0.207  0.00  0.00    -0.083 Cl
ATOM     27  C   LIG    1        0.078  -2.679  -0.792  0.00  0.00    -0.030 A 
ATOM     28  C   LIG    1        0.221  -3.823  -1.555  0.00  0.00    +0.005 A 
ENDBRANCH  21  27
ENDBRANCH   1  21
TORSDOF 4
