REMARK  Name = ZINC36053442
REMARK                            x       y       z     vdW  Elec       q    Type
REMARK                         _______ _______ _______ _____ _____    ______ ____
ROOT
ATOM      1  C   LIG    1       -0.017   1.379   0.010  0.00  0.00    +0.032 A 
ATOM      2  C   LIG    1        1.178   2.099   0.002  0.00  0.00    +0.063 A 
ATOM      3  C   LIG    1        2.398   1.410  -0.013  0.00  0.00    +0.081 A 
ATOM      4  C   LIG    1        2.408   0.005  -0.021  0.00  0.00    +0.121 A 
ATOM      5  N   LIG    1        3.710  -0.381  -0.036  0.00  0.00    -0.234 NA
ATOM      6  C   LIG    1        4.476   0.671  -0.038  0.00  0.00    +0.197 A 
ATOM      7  C   LIG    1        1.198  -0.692  -0.013  0.00  0.00    +0.163 A 
ATOM      8  N   LIG    1        3.717   1.801  -0.024  0.00  0.00    -0.344 N 
ATOM      9  H   LIG    1        4.051   2.727  -0.022  0.00  0.00    +0.167 HD
ATOM     10  C   LIG    1        0.002  -0.004   0.002  0.00  0.00    +0.051 A 
ATOM     11 BR   LIG    1       -1.629  -0.962   0.013  0.00  0.00    -0.048 Br
ENDROOT
BRANCH   2  12
ATOM     12  C   LIG    1        1.157   3.574   0.010  0.00  0.00    +0.246 C 
ATOM     13  N   LIG    1       -0.019   4.231   0.024  0.00  0.00    -0.310 N 
ATOM     14  H   LIG    1       -0.853   3.734   0.029  0.00  0.00    +0.149 HD
ATOM     15  O   LIG    1        2.201   4.197   0.003  0.00  0.00    -0.270 OA
BRANCH  13  16
ATOM     16  C   LIG    1       -0.040   5.696   0.032  0.00  0.00    +0.060 C 
ATOM     17  C   LIG    1        0.058   6.218  -1.404  0.00  0.00    -0.056 C 
ATOM     18  N   LIG    1       -1.126   7.015  -1.730  0.00  0.00    +0.381 N 
ATOM     19  H   LIG    1       -1.035   7.350  -2.677  0.00  0.00    -0.082 HD
ATOM     20  C   LIG    1       -1.224   8.179  -0.846  0.00  0.00    -0.078 C 
ATOM     21  C   LIG    1       -1.365   7.722   0.608  0.00  0.00    -0.014 C 
ATOM     22  C   LIG    1       -2.338   6.197  -1.642  0.00  0.00    -0.078 C 
ATOM     23  C   LIG    1       -2.517   5.675  -0.208  0.00  0.00    -0.014 C 
ATOM     24  C   LIG    1       -1.354   6.189   0.651  0.00  0.00    +0.004 C 
ENDBRANCH  13  16
ENDBRANCH   2  12
BRANCH   7  25
ATOM     25  N   LIG    1        1.198  -2.172  -0.021  0.00  0.00    +0.009 N 
ATOM     26  O   LIG    1        1.208  -2.783   1.022  0.00  0.00    -0.130 OA
BRANCH  25  27
ATOM     27  O   LIG    1        1.189  -2.771  -1.072  0.00  0.00    -0.396 OA
ATOM     28  H   LIG    1        1.181  -2.299  -1.881  0.00  0.00    +0.329 HD
ENDBRANCH  25  27
ENDBRANCH   7  25
TORSDOF 4
