REMARK  Name = ZINC15834353
REMARK                            x       y       z     vdW  Elec       q    Type
REMARK                         _______ _______ _______ _____ _____    ______ ____
ROOT
ATOM      1  C   LIG    1       -0.234   4.825   1.682  0.00  0.00    +0.069 A 
ATOM      2  C   LIG    1       -1.558   4.911   2.034  0.00  0.00    +0.089 A 
ATOM      3  C   LIG    1       -2.222   3.704   1.482  0.00  0.00    +0.082 A 
ATOM      4  N   LIG    1       -3.597   3.530   1.697  0.00  0.00    -0.294 N 
ATOM      5  C   LIG    1       -4.308   2.358   1.181  0.00  0.00    +0.154 C 
ATOM      6  C   LIG    1       -4.239   4.489   2.400  0.00  0.00    +0.332 A 
ATOM      7  N   LIG    1       -3.674   5.588   2.910  0.00  0.00    -0.263 N 
ATOM      8  C   LIG    1       -4.527   6.524   3.647  0.00  0.00    +0.157 C 
ATOM      9  O   LIG    1       -5.431   4.339   2.586  0.00  0.00    -0.246 OA
ATOM     10  C   LIG    1       -1.283   3.007   0.858  0.00  0.00    +0.073 A 
ATOM     11  C   LIG    1       -1.403   1.709   0.083  0.00  0.00    +0.150 C 
ATOM     12  N   LIG    1       -0.083   1.059   0.090  0.00  0.00    -0.330 N 
ATOM     13  H   LIG    1       -0.019   0.096   0.184  0.00  0.00    +0.147 HD
ATOM     14  C   LIG    1        1.079   1.827  -0.042  0.00  0.00    +0.052 A 
ATOM     15  C   LIG    1        2.209   1.295  -0.645  0.00  0.00    +0.025 A 
ATOM     16  C   LIG    1        3.357   2.058  -0.750  0.00  0.00    +0.002 A 
ATOM     17  C   LIG    1        3.388   3.349  -0.256  0.00  0.00    +0.002 A 
ATOM     18  C   LIG    1        2.263   3.893   0.339  0.00  0.00    +0.028 A 
ATOM     19  C   LIG    1        1.108   3.140   0.437  0.00  0.00    +0.068 A 
ATOM     20  C   LIG    1       -2.356   5.887   2.783  0.00  0.00    +0.266 A 
ATOM     21  O   LIG    1       -1.869   6.896   3.260  0.00  0.00    -0.267 OA
ATOM     22  N   LIG    1       -0.070   3.670   0.982  0.00  0.00    -0.306 N 
ENDROOT
BRANCH   1  29
ATOM     23  C   LIG    1        1.268   4.553   4.141  0.00  0.00    +0.044 C 
ATOM     24  C   LIG    1        1.552   5.686   3.189  0.00  0.00    -0.041 A 
ATOM     25  C   LIG    1        2.541   6.603   3.481  0.00  0.00    +0.004 A 
ATOM     26  C   LIG    1        2.799   7.647   2.611  0.00  0.00    +0.000 A 
ATOM     27  C   LIG    1        2.073   7.776   1.439  0.00  0.00    +0.001 A 
ATOM     28  C   LIG    1        1.087   6.863   1.131  0.00  0.00    +0.010 A 
ATOM     29  C   LIG    1        0.820   5.806   2.005  0.00  0.00    +0.003 A 
ENDBRANCH   1  29
BRANCH  11  30
ATOM     30  C   LIG    1       -1.823   1.993  -1.336  0.00  0.00    -0.019 A 
ATOM     31  C   LIG    1       -0.994   2.720  -2.170  0.00  0.00    +0.006 A 
ATOM     32  C   LIG    1       -1.379   2.981  -3.471  0.00  0.00    +0.003 A 
ATOM     33  C   LIG    1       -2.594   2.514  -3.939  0.00  0.00    +0.032 A 
ATOM     34  C   LIG    1       -3.422   1.787  -3.106  0.00  0.00    +0.122 A 
ATOM     35  C   LIG    1       -3.034   1.522  -1.805  0.00  0.00    +0.038 A 
BRANCH  34  36
ATOM     36  N   LIG    1       -4.722   1.287  -3.607  0.00  0.00    +0.006 N 
ATOM     37  O   LIG    1       -5.062   1.517  -4.754  0.00  0.00    -0.130 OA
BRANCH  36  38
ATOM     38  O   LIG    1       -5.452   0.645  -2.873  0.00  0.00    -0.396 OA
ATOM     39  H   LIG    1       -5.191   0.469  -1.990  0.00  0.00    +0.329 HD
ENDBRANCH  36  38
ENDBRANCH  34  36
ENDBRANCH  11  30
TORSDOF 4
