REMARK  Name = ZINC20324905
REMARK                            x       y       z     vdW  Elec       q    Type
REMARK                         _______ _______ _______ _____ _____    ______ ____
ROOT
ATOM      1  N   LIG    1       -0.064  -2.766  -0.052  0.00  0.00    -0.240 N 
ATOM      2  H   LIG    1        0.761  -2.377   0.278  0.00  0.00    +0.265 HD
ENDROOT
BRANCH   1   9
ATOM      3  C   LIG    1       -1.195  -0.626  -0.030  0.00  0.00    +0.158 A 
ATOM      4  C   LIG    1       -2.369   0.109  -0.016  0.00  0.00    +0.050 A 
ATOM      5  C   LIG    1       -3.590  -0.538   0.002  0.00  0.00    +0.024 A 
ATOM      6  C   LIG    1       -3.644  -1.921   0.006  0.00  0.00    +0.044 A 
ATOM      7 CL   LIG    1       -5.182  -2.728   0.030  0.00  0.00    -0.083 Cl
ATOM      8  C   LIG    1       -2.477  -2.662  -0.008  0.00  0.00    +0.066 A 
ATOM      9  C   LIG    1       -1.248  -2.018  -0.032  0.00  0.00    +0.143 A 
BRANCH   3  11
ATOM     10  C   LIG    1       -0.015   1.438  -0.045  0.00  0.00    +0.277 C 
ATOM     11  O   LIG    1        0.007   0.010  -0.048  0.00  0.00    -0.492 OA
ENDBRANCH   3  11
ENDBRANCH   1   9
BRANCH   1  12
ATOM     12  C   LIG    1       -0.071  -4.053  -0.539  0.00  0.00    +0.393 C 
ATOM     13  N   LIG    1       -1.146  -4.533  -1.096  0.00  0.00    -0.129 NA
ATOM     14  H   LIG    1       -1.175  -5.462  -1.373  0.00  0.00    +0.306 HD
BRANCH  12  15
ATOM     15  N   LIG    1        1.062  -4.835  -0.438  0.00  0.00    -0.186 N 
ATOM     16  H   LIG    1        1.034  -5.765  -0.712  0.00  0.00    +0.271 HD
BRANCH  15  17
ATOM     17  C   LIG    1        2.232  -4.294   0.053  0.00  0.00    +0.385 C 
ATOM     18  N   LIG    1        2.239  -3.083   0.533  0.00  0.00    -0.129 NA
ATOM     19  H   LIG    1        3.061  -2.703   0.878  0.00  0.00    +0.306 HD
BRANCH  17  20
ATOM     20  N   LIG    1        3.390  -5.034   0.037  0.00  0.00    -0.289 N 
ATOM     21  H   LIG    1        4.213  -4.654   0.382  0.00  0.00    +0.255 HD
ATOM     22  H   LIG    1        3.385  -5.936  -0.320  0.00  0.00    +0.255 HD
ENDBRANCH  17  20
ENDBRANCH  15  17
ENDBRANCH  12  15
ENDBRANCH   1  12
TORSDOF 6
