REMARK  Name = ZINC26022698
REMARK                            x       y       z     vdW  Elec       q    Type
REMARK                         _______ _______ _______ _____ _____    ______ ____
ROOT
ATOM      1  C   LIG    1       -0.013   1.086   0.008  0.00  0.00    +0.032 C 
ATOM      2  C   LIG    1       -0.834   1.634  -1.180  0.00  0.00    +0.109 C 
ATOM      3  N   LIG    1       -1.521   2.824  -0.665  0.00  0.00    -0.291 N 
ATOM      4  C   LIG    1       -1.529   2.840   0.679  0.00  0.00    +0.220 C 
ATOM      5  O   LIG    1       -2.036   3.706   1.360  0.00  0.00    -0.275 OA
ATOM      6  C   LIG    1       -0.812   1.622   1.219  0.00  0.00    +0.086 C 
ENDROOT
BRANCH   3   7
ATOM      7  C   LIG    1       -2.120   3.862  -1.508  0.00  0.00    +0.228 C 
BRANCH   7   8
ATOM      8  C   LIG    1       -3.557   3.507  -1.796  0.00  0.00    +0.322 C 
ATOM      9  O   LIG    1       -4.030   2.492  -1.344  0.00  0.00    -0.249 OA
BRANCH   8  10
ATOM     10  O   LIG    1       -4.309   4.319  -2.555  0.00  0.00    -0.480 OA
ATOM     11  H   LIG    1       -3.942   5.107  -2.905  0.00  0.00    +0.295 HD
ENDBRANCH   8  10
ENDBRANCH   7   8
ENDBRANCH   3   7
BRANCH   6  12
ATOM     12  C   LIG    1       -1.820   0.577   1.700  0.00  0.00    +0.078 C 
BRANCH  12  13
ATOM     13  S   LIG    1       -2.636   1.173   3.206  0.00  0.00    -0.178 S 
ATOM     14  H   LIG    1       -3.398   0.552   3.701  0.00  0.00    +0.102 HD
ENDBRANCH  12  13
ENDBRANCH   6  12
TORSDOF 5
