REMARK  Name = ZINC20191037
REMARK                            x       y       z     vdW  Elec       q    Type
REMARK                         _______ _______ _______ _____ _____    ______ ____
ROOT
ATOM      1  C   LIG    1       -0.017   1.384   0.010  0.00  0.00    +0.022 A 
ATOM      2  C   LIG    1        1.160   2.100   0.002  0.00  0.00    +0.028 A 
ATOM      3  C   LIG    1        2.382   1.434  -0.013  0.00  0.00    +0.049 A 
ATOM      4  C   LIG    1        2.400   0.030  -0.021  0.00  0.00    +0.027 A 
ATOM      5  C   LIG    1        3.816  -0.370  -0.037  0.00  0.00    +0.101 A 
ATOM      6  C   LIG    1        4.562   0.816  -0.038  0.00  0.00    +0.106 A 
ATOM      7  C   LIG    1        5.960   0.714  -0.053  0.00  0.00    +0.146 A 
ATOM      8  N   LIG    1        6.511  -0.494  -0.065  0.00  0.00    -0.219 NA
ATOM      9  C   LIG    1        5.769  -1.586  -0.063  0.00  0.00    +0.224 A 
ATOM     10  N   LIG    1        4.454  -1.540  -0.050  0.00  0.00    -0.233 NA
ATOM     11  C   LIG    1        1.202  -0.682  -0.013  0.00  0.00    +0.032 A 
ATOM     12  N   LIG    1        3.688   1.886  -0.024  0.00  0.00    -0.350 N 
ATOM     13  H   LIG    1        3.952   2.820  -0.021  0.00  0.00    +0.166 HD
ATOM     14  C   LIG    1        0.002  -0.004   0.002  0.00  0.00    +0.042 A 
ATOM     15 CL   LIG    1       -1.491  -0.889   0.011  0.00  0.00    -0.084 Cl
ENDROOT
BRANCH   7  16
ATOM     16  N   LIG    1        6.751   1.853  -0.055  0.00  0.00    -0.327 N 
ATOM     17  H   LIG    1        6.338   2.731  -0.046  0.00  0.00    +0.148 HD
BRANCH  16  18
ATOM     18  C   LIG    1        8.211   1.730  -0.071  0.00  0.00    +0.104 C 
BRANCH  18  19
ATOM     19  C   LIG    1        8.840   3.124  -0.070  0.00  0.00    +0.034 C 
BRANCH  19  20
ATOM     20  C   LIG    1       10.365   2.996  -0.086  0.00  0.00    +0.086 C 
BRANCH  20  21
ATOM     21  N   LIG    1       10.969   4.335  -0.086  0.00  0.00    -0.298 NA
ATOM     22  C   LIG    1       10.671   5.048  -1.336  0.00  0.00    +0.112 C 
ATOM     23  C   LIG    1       11.267   6.457  -1.269  0.00  0.00    +0.175 C 
ATOM     24  O   LIG    1       12.672   6.363  -1.020  0.00  0.00    -0.377 OA
ATOM     25  C   LIG    1       12.998   5.675   0.190  0.00  0.00    +0.175 C 
ATOM     26  C   LIG    1       12.420   4.258   0.138  0.00  0.00    +0.112 C 
ENDBRANCH  20  21
ENDBRANCH  19  20
ENDBRANCH  18  19
ENDBRANCH  16  18
ENDBRANCH   7  16
TORSDOF 5
