REMARK  Name = ZINC43552589
REMARK                            x       y       z     vdW  Elec       q    Type
REMARK                         _______ _______ _______ _____ _____    ______ ____
ROOT
ATOM      1  C   LIG    1       -1.264  -0.761   0.011  0.00  0.00    +0.139 A 
ATOM      2  C   LIG    1       -1.214  -2.120   0.008  0.00  0.00    +0.098 A 
ATOM      3  C   LIG    1       -2.419  -2.862   0.016  0.00  0.00    +0.197 A 
ATOM      4  C   LIG    1       -3.682  -2.104   0.027  0.00  0.00    +0.106 A 
ATOM      5  C   LIG    1       -4.921  -2.758   0.036  0.00  0.00    +0.135 A 
ATOM      6  C   LIG    1       -6.089  -2.016   0.046  0.00  0.00    +0.092 A 
ATOM      7  C   LIG    1       -6.037  -0.629   0.047  0.00  0.00    +0.132 A 
ATOM      8  C   LIG    1       -4.808   0.035   0.038  0.00  0.00    +0.070 A 
ATOM      9  C   LIG    1       -3.620  -0.702   0.029  0.00  0.00    +0.154 A 
ATOM     10  O   LIG    1       -2.412  -4.083   0.015  0.00  0.00    -0.287 OA
ATOM     11  O   LIG    1       -2.422  -0.083   0.026  0.00  0.00    -0.454 OA
ENDROOT
BRANCH   1  17
ATOM     12  C   LIG    1       -0.017   1.393   0.010  0.00  0.00    +0.015 A 
ATOM     13  C   LIG    1        1.168   2.096   0.002  0.00  0.00    +0.046 A 
ATOM     14  C   LIG    1        2.380   1.418  -0.013  0.00  0.00    +0.117 A 
ATOM     15  C   LIG    1        2.404   0.028  -0.021  0.00  0.00    +0.046 A 
ATOM     16  C   LIG    1        1.224  -0.682  -0.014  0.00  0.00    +0.015 A 
ATOM     17  C   LIG    1        0.002  -0.004   0.002  0.00  0.00    +0.018 A 
BRANCH  14  18
ATOM     18  O   LIG    1        3.546   2.115  -0.020  0.00  0.00    -0.507 OA
ATOM     19  H   LIG    1        3.892   2.312   0.861  0.00  0.00    +0.292 HD
ENDBRANCH  14  18
ENDBRANCH   1  17
BRANCH   8  20
ATOM     20  C   LIG    1       -4.763   1.517   0.039  0.00  0.00    +0.031 A 
ATOM     21  C   LIG    1       -4.726   2.215   1.244  0.00  0.00    +0.019 A 
ATOM     22  C   LIG    1       -4.684   3.595   1.239  0.00  0.00    -0.006 A 
ATOM     23  C   LIG    1       -4.679   4.288   0.042  0.00  0.00    +0.011 A 
ATOM     24  C   LIG    1       -4.715   3.604  -1.160  0.00  0.00    +0.046 A 
ATOM     25  C   LIG    1       -4.750   2.220  -1.170  0.00  0.00    +0.125 A 
BRANCH  22  26
ATOM     26  C   LIG    1       -4.645   4.350   2.543  0.00  0.00    +0.211 C 
ATOM     27  C   LIG    1       -6.071   4.760   2.941  0.00  0.00    +0.129 C 
ATOM     28  C   LIG    1       -5.968   5.544   4.237  0.00  0.00    +0.174 C 
ATOM     29  C   LIG    1       -4.843   6.479   4.351  0.00  0.00    +0.101 A 
ATOM     30  C   LIG    1       -4.801   7.426   5.387  0.00  0.00    +0.134 A 
ATOM     31  C   LIG    1       -3.724   8.288   5.479  0.00  0.00    +0.091 A 
ATOM     32  C   LIG    1       -2.694   8.217   4.548  0.00  0.00    +0.124 A 
ATOM     33  C   LIG    1       -2.733   7.287   3.518  0.00  0.00    +0.092 A 
ATOM     34  C   LIG    1       -3.803   6.416   3.406  0.00  0.00    +0.139 A 
ATOM     35  O   LIG    1       -6.774   5.402   5.133  0.00  0.00    -0.292 OA
ATOM     36  O   LIG    1       -3.841   5.519   2.393  0.00  0.00    -0.483 OA
BRANCH  30  37
ATOM     37  O   LIG    1       -5.810   7.494   6.292  0.00  0.00    -0.506 OA
ATOM     38  H   LIG    1       -5.681   6.932   7.068  0.00  0.00    +0.292 HD
ENDBRANCH  30  37
BRANCH  32  39
ATOM     39  O   LIG    1       -1.640   9.065   4.648  0.00  0.00    -0.507 OA
ATOM     40  H   LIG    1       -0.913   8.727   5.188  0.00  0.00    +0.292 HD
ENDBRANCH  32  39
ENDBRANCH  22  26
BRANCH  25  41
ATOM     41  O   LIG    1       -4.780   1.547  -2.350  0.00  0.00    -0.506 OA
ATOM     42  H   LIG    1       -5.671   1.379  -2.685  0.00  0.00    +0.292 HD
ENDBRANCH  25  41
ENDBRANCH   8  20
BRANCH   5  43
ATOM     43  O   LIG    1       -4.976  -4.114   0.034  0.00  0.00    -0.506 OA
ATOM     44  H   LIG    1       -4.985  -4.508   0.917  0.00  0.00    +0.292 HD
ENDBRANCH   5  43
BRANCH   7  45
ATOM     45  O   LIG    1       -7.190   0.088   0.057  0.00  0.00    -0.506 OA
ATOM     46  H   LIG    1       -7.517   0.295   0.943  0.00  0.00    +0.292 HD
ENDBRANCH   7  45
TORSDOF 9
