REMARK  Name = ZINC14880001
REMARK                            x       y       z     vdW  Elec       q    Type
REMARK                         _______ _______ _______ _____ _____    ______ ____
ROOT
ATOM      1  C   LIG    1        2.190   6.959  -1.700  0.00  0.00    +0.012 C 
ATOM      2  C   LIG    1        1.377   6.527  -0.480  0.00  0.00    -0.018 C 
ATOM      3  C   LIG    1        1.770   5.134  -0.037  0.00  0.00    +0.008 C 
ATOM      4  C   LIG    1        0.693   4.142  -0.510  0.00  0.00    +0.005 C 
ATOM      5  C   LIG    1        0.296   4.480  -1.946  0.00  0.00    +0.004 C 
ATOM      6  C   LIG    1       -0.508   5.765  -1.985  0.00  0.00    -0.003 C 
ATOM      7  C   LIG    1       -2.017   5.567  -1.965  0.00  0.00    +0.006 C 
ATOM      8  C   LIG    1       -2.501   4.432  -2.853  0.00  0.00    +0.023 C 
ATOM      9  C   LIG    1       -1.775   3.149  -2.468  0.00  0.00    +0.083 C 
ATOM     10  N   LIG    1       -2.276   2.004  -3.228  0.00  0.00    -0.308 N 
ATOM     11  H   LIG    1       -3.140   2.042  -3.663  0.00  0.00    +0.149 HD
ATOM     12  C   LIG    1       -1.514   0.890  -3.312  0.00  0.00    +0.237 C 
ATOM     13  O   LIG    1       -1.908  -0.079  -3.930  0.00  0.00    -0.271 OA
ATOM     14  C   LIG    1       -0.199   0.864  -2.645  0.00  0.00    +0.063 C 
ATOM     15  C   LIG    1        0.414   2.015  -2.356  0.00  0.00    -0.013 C 
ATOM     16  C   LIG    1       -0.280   3.311  -2.695  0.00  0.00    +0.008 C 
ATOM     17  C   LIG    1       -0.036   3.562  -4.189  0.00  0.00    +0.017 C 
ATOM     18  C   LIG    1        1.531   7.606   0.607  0.00  0.00    +0.081 C 
ATOM     19  C   LIG    1        0.537   8.715   0.184  0.00  0.00    +0.013 C 
ATOM     20  C   LIG    1       -0.396   8.090  -0.886  0.00  0.00    +0.005 C 
ATOM     21  C   LIG    1       -0.141   6.581  -0.750  0.00  0.00    -0.001 C 
ENDROOT
BRANCH  18  22
ATOM     22  C   LIG    1        2.939   8.137   0.613  0.00  0.00    +0.221 C 
ATOM     23  N   LIG    1        3.179   9.408   0.992  0.00  0.00    -0.285 N 
ATOM     24  H   LIG    1        2.453   9.961   1.321  0.00  0.00    +0.155 HD
ATOM     25  O   LIG    1        3.858   7.420   0.278  0.00  0.00    -0.275 OA
BRANCH  23  26
ATOM     26  C   LIG    1        4.474   9.930   0.909  0.00  0.00    +0.046 A 
ATOM     27  C   LIG    1        5.409   9.343   0.065  0.00  0.00    +0.036 A 
ATOM     28  C   LIG    1        6.685   9.864  -0.018  0.00  0.00    +0.057 A 
ATOM     29  C   LIG    1        7.037  10.961   0.747  0.00  0.00    +0.013 A 
ATOM     30  C   LIG    1        6.111  11.544   1.592  0.00  0.00    +0.015 A 
ATOM     31  C   LIG    1        4.831  11.031   1.676  0.00  0.00    +0.076 A 
BRANCH  28  32
ATOM     32  C   LIG    1        7.697   9.232  -0.938  0.00  0.00    +0.417 C 
ATOM     33  F   LIG    1        7.229   9.286  -2.255  0.00  0.00    -0.166 F 
ATOM     34  F   LIG    1        7.894   7.897  -0.568  0.00  0.00    -0.166 F 
ATOM     35  F   LIG    1        8.909   9.925  -0.845  0.00  0.00    -0.166 F 
ENDBRANCH  28  32
BRANCH  31  36
ATOM     36  C   LIG    1        3.822  11.667   2.598  0.00  0.00    +0.419 C 
ATOM     37  F   LIG    1        3.393  10.725   3.540  0.00  0.00    -0.166 F 
ATOM     38  F   LIG    1        2.726  12.114   1.853  0.00  0.00    -0.166 F 
ATOM     39  F   LIG    1        4.412  12.751   3.257  0.00  0.00    -0.166 F 
ENDBRANCH  31  36
ENDBRANCH  23  26
ENDBRANCH  18  22
TORSDOF 4
