REMARK  Name = ZINC35570622
REMARK                            x       y       z     vdW  Elec       q    Type
REMARK                         _______ _______ _______ _____ _____    ______ ____
ROOT
ATOM      1  C   LIG    1       -0.279   1.506   0.625  0.00  0.00    +0.012 C 
ATOM      2  C   LIG    1       -0.212  -0.026   0.503  0.00  0.00    -0.019 C 
ATOM      3  C   LIG    1        0.034  -0.389  -0.956  0.00  0.00    +0.008 C 
ATOM      4  C   LIG    1        1.451   0.021  -1.380  0.00  0.00    +0.005 C 
ATOM      5  C   LIG    1        2.452  -0.747  -0.517  0.00  0.00    +0.009 C 
ATOM      6  C   LIG    1        2.311  -0.330   0.944  0.00  0.00    -0.021 C 
ATOM      7  C   LIG    1        2.774   1.104   1.170  0.00  0.00    +0.012 C 
ATOM      8  C   LIG    1        3.208  -1.261   1.798  0.00  0.00    +0.047 C 
ATOM      9  C   LIG    1        4.616  -1.125   1.278  0.00  0.00    +0.016 A 
ATOM     10  C   LIG    1        5.822  -1.257   1.976  0.00  0.00    +0.160 A 
ATOM     11  N   LIG    1        6.797  -1.049   1.134  0.00  0.00    -0.086 NA
ATOM     12  O   LIG    1        6.229  -0.775  -0.136  0.00  0.00    -0.359 OA
ATOM     13  C   LIG    1        4.899  -0.835  -0.011  0.00  0.00    +0.146 A 
ATOM     14  C   LIG    1        3.860  -0.633  -1.083  0.00  0.00    +0.029 C 
ATOM     15  C   LIG    1        4.104   0.708  -1.777  0.00  0.00    +0.019 C 
ATOM     16  C   LIG    1        4.058  -1.748  -2.131  0.00  0.00    +0.019 C 
ATOM     17  C   LIG    1       -1.572  -0.579   0.958  0.00  0.00    -0.005 C 
ATOM     18  C   LIG    1       -1.581  -2.086   0.666  0.00  0.00    +0.016 C 
ATOM     19  C   LIG    1       -2.705   0.045   0.155  0.00  0.00    +0.012 C 
ATOM     20  C   LIG    1       -4.071  -0.241   0.778  0.00  0.00    +0.019 C 
ATOM     21  C   LIG    1       -4.131   0.271   2.213  0.00  0.00    +0.074 C 
ATOM     22  C   LIG    1       -3.130  -0.497   3.071  0.00  0.00    +0.033 C 
ATOM     23  C   LIG    1       -3.538  -1.957   3.220  0.00  0.00    +0.015 C 
ATOM     24  C   LIG    1       -4.946  -2.087   3.801  0.00  0.00    -0.034 C 
ATOM     25  C   LIG    1       -5.332  -3.574   3.825  0.00  0.00    +0.011 C 
ATOM     26  C   LIG    1       -4.984  -1.548   5.229  0.00  0.00    +0.011 C 
ATOM     27  C   LIG    1       -5.940  -1.336   2.918  0.00  0.00    +0.007 C 
ATOM     28  C   LIG    1       -5.545   0.128   2.772  0.00  0.00    +0.019 C 
ATOM     29  C   LIG    1       -1.755  -0.403   2.435  0.00  0.00    -0.063 C 
ATOM     30  C   LIG    1       -0.759  -0.164   3.248  0.00  0.00    -0.026 C 
ATOM     31  C   LIG    1        0.674  -0.020   2.831  0.00  0.00    +0.031 C 
ATOM     32  C   LIG    1        0.877  -0.564   1.417  0.00  0.00    +0.006 C 
ENDROOT
BRANCH  21  33
ATOM     33  C   LIG    1       -3.774   1.740   2.241  0.00  0.00    +0.312 C 
ATOM     34  O   LIG    1       -4.445   2.543   1.615  0.00  0.00    -0.250 OA
BRANCH  33  35
ATOM     35  O   LIG    1       -2.816   2.122   2.891  0.00  0.00    -0.480 OA
ATOM     36  H   LIG    1       -2.300   1.505   3.372  0.00  0.00    +0.295 HD
ENDBRANCH  33  35
ENDBRANCH  21  33
TORSDOF 2
