REMARK  Name = ZINC27190942
REMARK                            x       y       z     vdW  Elec       q    Type
REMARK                         _______ _______ _______ _____ _____    ______ ____
ROOT
ATOM      1  C   LIG    1       -2.164   1.050   1.278  0.00  0.00    +0.176 C 
ATOM      2  C   LIG    1       -2.934   1.611   2.496  0.00  0.00    +0.042 C 
ATOM      3  C   LIG    1       -3.803   2.805   2.096  0.00  0.00    +0.012 C 
ATOM      4  C   LIG    1       -3.805   0.389   2.881  0.00  0.00    +0.130 C 
ATOM      5  C   LIG    1       -3.046  -0.791   2.316  0.00  0.00    +0.237 C 
ATOM      6  N   LIG    1       -2.168  -0.407   1.456  0.00  0.00    -0.277 N 
ATOM      7  H   LIG    1       -1.530  -1.148   0.953  0.00  0.00    +0.304 HD
ENDROOT
BRANCH   5   8
ATOM      8  N   LIG    1       -3.264  -2.096   2.671  0.00  0.00    -0.254 N 
ATOM      9  H   LIG    1       -4.035  -2.342   3.415  0.00  0.00    +0.288 HD
ATOM     10  H   LIG    1       -2.667  -2.898   2.212  0.00  0.00    +0.288 HD
ENDBRANCH   5   8
BRANCH   1  12
ATOM     11  C   LIG    1       -0.013   1.086   0.008  0.00  0.00    +0.008 C 
ATOM     12  C   LIG    1       -0.729   1.579   1.267  0.00  0.00    +0.046 C 
ENDBRANCH   1  12
TORSDOF 2
