REMARK  Name = ZINC40896204
REMARK                            x       y       z     vdW  Elec       q    Type
REMARK                         _______ _______ _______ _____ _____    ______ ____
ROOT
ATOM      1  C   LIG    1        3.954   0.094   3.108  0.00  0.00    +0.237 C 
ATOM      2  N   LIG    1        4.587  -0.253   4.246  0.00  0.00    -0.295 N 
ATOM      3  C   LIG    1        4.223  -1.382   5.120  0.00  0.00    +0.108 C 
ATOM      4  C   LIG    1        4.745  -0.981   6.521  0.00  0.00    +0.024 C 
ATOM      5  C   LIG    1        6.068  -0.252   6.176  0.00  0.00    +0.013 C 
ATOM      6  C   LIG    1        7.141  -1.315   5.844  0.00  0.00    +0.007 C 
ATOM      7  C   LIG    1        7.996  -0.615   4.751  0.00  0.00    +0.024 C 
ATOM      8  C   LIG    1        6.978   0.185   3.914  0.00  0.00    +0.094 C 
ATOM      9  C   LIG    1        5.756   0.429   4.816  0.00  0.00    +0.099 C 
ATOM     10  O   LIG    1        4.395   0.988   2.417  0.00  0.00    -0.274 OA
ENDROOT
BRANCH   8  11
ATOM     11  N   LIG    1        7.561   1.465   3.503  0.00  0.00    -0.307 N 
ATOM     12  H   LIG    1        7.431   2.255   4.051  0.00  0.00    +0.149 HD
ATOM     13  C   LIG    1        8.277   1.545   2.365  0.00  0.00    +0.245 C 
ATOM     14  O   LIG    1        8.440   0.555   1.678  0.00  0.00    -0.270 OA
BRANCH  13  15
ATOM     15  C   LIG    1        8.864   2.833   1.951  0.00  0.00    +0.044 A 
ATOM     16  C   LIG    1        8.580   3.992   2.659  0.00  0.00    +0.013 A 
ATOM     17  C   LIG    1        9.130   5.209   2.274  0.00  0.00    +0.001 A 
ATOM     18  C   LIG    1        9.960   5.299   1.197  0.00  0.00    +0.008 A 
ATOM     19  C   LIG    1       10.275   4.151   0.451  0.00  0.00    -0.017 A 
ATOM     20  C   LIG    1       11.127   4.219  -0.665  0.00  0.00    +0.008 A 
ATOM     21  C   LIG    1       11.425   3.084  -1.355  0.00  0.00    +0.001 A 
ATOM     22  C   LIG    1       10.882   1.856  -0.984  0.00  0.00    +0.001 A 
ATOM     23  C   LIG    1       10.048   1.755   0.089  0.00  0.00    +0.009 A 
ATOM     24  C   LIG    1        9.729   2.900   0.830  0.00  0.00    -0.006 A 
ENDBRANCH  13  15
ENDBRANCH   8  11
BRANCH   1  25
ATOM     25  C   LIG    1        2.698  -0.628   2.694  0.00  0.00    +0.164 C 
BRANCH  25  27
ATOM     26  C   LIG    1        0.464   0.073   2.018  0.00  0.00    +0.199 C 
ATOM     27  N   LIG    1        1.791   0.310   2.028  0.00  0.00    -0.305 N 
ATOM     28  H   LIG    1        2.146   1.102   1.595  0.00  0.00    +0.149 HD
ATOM     29  O   LIG    1        0.021  -0.917   2.561  0.00  0.00    -0.278 OA
BRANCH  26  31
ATOM     30  C   LIG    1       -0.344   2.418   1.985  0.00  0.00    -0.004 C 
ATOM     31  C   LIG    1       -0.468   1.039   1.334  0.00  0.00    +0.012 C 
BRANCH  31  32
ATOM     32  N   LIG    1       -1.851   0.560   1.463  0.00  0.00    +0.385 N 
ATOM     33  H   LIG    1       -2.122   0.571   2.435  0.00  0.00    -0.085 HD
ATOM     34  H   LIG    1       -1.915  -0.382   1.107  0.00  0.00    -0.085 HD
ATOM     35  C   LIG    1       -2.747   1.435   0.695  0.00  0.00    -0.099 C 
ENDBRANCH  31  32
ENDBRANCH  26  31
ENDBRANCH  25  27
BRANCH  25  36
ATOM     36  C   LIG    1        3.055  -1.762   1.731  0.00  0.00    -0.011 C 
ATOM     37  C   LIG    1        1.801  -2.579   1.416  0.00  0.00    +0.013 C 
ATOM     38  C   LIG    1        4.105  -2.668   2.377  0.00  0.00    +0.013 C 
ATOM     39  C   LIG    1        3.618  -1.173   0.436  0.00  0.00    +0.013 C 
ENDBRANCH  25  36
ENDBRANCH   1  25
TORSDOF 7
