REMARK  Name = ZINC13782578
REMARK                            x       y       z     vdW  Elec       q    Type
REMARK                         _______ _______ _______ _____ _____    ______ ____
ROOT
ATOM      1  C   LIG    1        5.564   2.083  -0.039  0.00  0.00    +0.044 C 
ATOM      2  C   LIG    1        4.061   1.968  -0.026  0.00  0.00    -0.048 A 
ATOM      3  C   LIG    1        3.285   3.118  -0.013  0.00  0.00    +0.005 A 
ATOM      4  C   LIG    1        1.909   3.032   0.000  0.00  0.00    +0.028 A 
ATOM      5  C   LIG    1        1.298   1.786  -0.001  0.00  0.00    +0.073 A 
ATOM      6  C   LIG    1        2.085   0.622  -0.015  0.00  0.00    +0.090 A 
ATOM      7  N   LIG    1        1.230  -0.434  -0.012  0.00  0.00    -0.235 NA
ATOM      8  C   LIG    1        0.002  -0.004   0.002  0.00  0.00    +0.205 A 
ATOM      9  N   LIG    1       -0.016   1.359   0.009  0.00  0.00    -0.299 N 
ATOM     10  C   LIG    1        3.477   0.733  -0.027  0.00  0.00    +0.033 A 
ENDROOT
BRANCH   9  11
ATOM     11  C   LIG    1       -1.156   2.174   0.020  0.00  0.00    +0.048 A 
ATOM     12  C   LIG    1       -1.269   3.199   0.950  0.00  0.00    +0.026 A 
ATOM     13  C   LIG    1       -2.391   4.005   0.953  0.00  0.00    +0.002 A 
ATOM     14  C   LIG    1       -3.405   3.785   0.039  0.00  0.00    +0.000 A 
ATOM     15  C   LIG    1       -3.297   2.761  -0.884  0.00  0.00    +0.002 A 
ATOM     16  C   LIG    1       -2.176   1.956  -0.897  0.00  0.00    +0.026 A 
ENDBRANCH   9  11
TORSDOF 1
