REMARK  Name = ZINC38334038
REMARK                            x       y       z     vdW  Elec       q    Type
REMARK                         _______ _______ _______ _____ _____    ______ ____
ROOT
ATOM      1  C   LIG    1        4.182  -1.722  -1.258  0.00  0.00    -0.071 C 
ATOM      2  C   LIG    1        5.593  -2.274  -1.041  0.00  0.00    -0.082 C 
ATOM      3  C   LIG    1        6.421  -2.026  -2.308  0.00  0.00    -0.030 C 
ATOM      4  C   LIG    1        5.724  -2.720  -3.486  0.00  0.00    -0.017 C 
ATOM      5  C   LIG    1        4.309  -2.154  -3.624  0.00  0.00    -0.078 C 
ATOM      6  C   LIG    1        6.447  -0.517  -2.583  0.00  0.00    -0.017 C 
ATOM      7  C   LIG    1        5.013  -0.021  -2.748  0.00  0.00    -0.078 C 
ATOM      8  N   LIG    1        4.075  -1.136  -2.596  0.00  0.00    +0.381 N 
ATOM      9  H   LIG    1        3.140  -0.775  -2.713  0.00  0.00    -0.081 HD
ENDROOT
BRANCH   2  10
ATOM     10  N   LIG    1        6.218  -1.592   0.100  0.00  0.00    +0.383 N 
ATOM     11  H   LIG    1        5.677  -1.767   0.934  0.00  0.00    -0.085 HD
ATOM     12  H   LIG    1        6.250  -0.599  -0.078  0.00  0.00    -0.085 HD
BRANCH  10  13
ATOM     13  C   LIG    1        7.583  -2.101   0.287  0.00  0.00    -0.045 C 
BRANCH  13  14
ATOM     14  C   LIG    1        8.177  -1.500   1.535  0.00  0.00    -0.046 A 
ATOM     15  C   LIG    1        9.027  -0.414   1.442  0.00  0.00    +0.003 A 
ATOM     16  C   LIG    1        9.572   0.137   2.587  0.00  0.00    +0.000 A 
ATOM     17  C   LIG    1        9.267  -0.398   3.825  0.00  0.00    +0.001 A 
ATOM     18  C   LIG    1        8.417  -1.484   3.919  0.00  0.00    +0.020 A 
ATOM     19  C   LIG    1        7.867  -2.032   2.773  0.00  0.00    +0.042 A 
ATOM     20 CL   LIG    1        6.794  -3.392   2.891  0.00  0.00    -0.083 Cl
ENDBRANCH  13  14
ENDBRANCH  10  13
ENDBRANCH   2  10
BRANCH   1  21
ATOM     21  C   LIG    1        3.890  -0.647  -0.209  0.00  0.00    +0.034 C 
BRANCH  21  25
ATOM     22  C   LIG    1        0.180   1.263  -1.123  0.00  0.00    +0.000 A 
ATOM     23  C   LIG    1        1.328   2.019  -0.969  0.00  0.00    +0.000 A 
ATOM     24  C   LIG    1        2.528   1.401  -0.673  0.00  0.00    +0.004 A 
ATOM     25  C   LIG    1        2.581   0.027  -0.531  0.00  0.00    -0.042 A 
ATOM     26  C   LIG    1        1.434  -0.729  -0.684  0.00  0.00    +0.004 A 
ATOM     27  C   LIG    1        0.234  -0.111  -0.981  0.00  0.00    +0.000 A 
ENDBRANCH  21  25
BRANCH  21  28
ATOM     28  C   LIG    1        3.805  -1.285   1.154  0.00  0.00    -0.042 A 
ATOM     29  C   LIG    1        4.372  -0.657   2.247  0.00  0.00    +0.004 A 
ATOM     30  C   LIG    1        4.294  -1.243   3.497  0.00  0.00    +0.000 A 
ATOM     31  C   LIG    1        3.649  -2.455   3.654  0.00  0.00    +0.000 A 
ATOM     32  C   LIG    1        3.082  -3.083   2.560  0.00  0.00    +0.000 A 
ATOM     33  C   LIG    1        3.156  -2.495   1.311  0.00  0.00    +0.004 A 
ENDBRANCH  21  28
ENDBRANCH   1  21
TORSDOF 6
