REMARK  Name = ZINC45374777
REMARK                            x       y       z     vdW  Elec       q    Type
REMARK                         _______ _______ _______ _____ _____    ______ ____
ROOT
ATOM      1  C   LIG    1        1.739  -4.556   2.957  0.00  0.00    +0.010 C 
ATOM      2  C   LIG    1        3.230  -4.701   3.270  0.00  0.00    +0.015 C 
ATOM      3  C   LIG    1        3.879  -5.622   2.232  0.00  0.00    +0.105 C 
ATOM      4  N   LIG    1        3.142  -6.893   2.201  0.00  0.00    -0.315 N 
ATOM      5  C   LIG    1        1.688  -6.862   1.996  0.00  0.00    +0.105 C 
ATOM      6  C   LIG    1        1.063  -5.927   3.038  0.00  0.00    +0.015 C 
ENDROOT
BRANCH   4   7
ATOM      7  C   LIG    1        3.806  -8.096   2.361  0.00  0.00    +0.134 A 
ATOM      8  C   LIG    1        4.318  -8.788   1.252  0.00  0.00    +0.059 A 
ATOM      9  C   LIG    1        4.344  -8.557  -0.191  0.00  0.00    +0.032 A 
ATOM     10  C   LIG    1        4.994  -9.598  -0.739  0.00  0.00    +0.085 A 
ATOM     11  N   LIG    1        5.382 -10.472   0.243  0.00  0.00    -0.346 N 
ATOM     12  H   LIG    1        5.867 -11.298   0.092  0.00  0.00    +0.167 HD
ATOM     13  C   LIG    1        4.985 -10.008   1.467  0.00  0.00    +0.143 A 
ATOM     14  N   LIG    1        5.103 -10.457   2.716  0.00  0.00    -0.218 NA
ATOM     15  C   LIG    1        4.607  -9.775   3.725  0.00  0.00    +0.225 A 
ATOM     16  N   LIG    1        3.979  -8.623   3.569  0.00  0.00    -0.220 NA
ENDBRANCH   4   7
BRANCH   1  19
ATOM     17  N   LIG    1        1.690  -2.668   1.359  0.00  0.00    -0.312 N 
ATOM     18  H   LIG    1        1.885  -2.075   2.102  0.00  0.00    +0.149 HD
ATOM     19  C   LIG    1        1.570  -3.994   1.569  0.00  0.00    +0.202 C 
ATOM     20  O   LIG    1        1.326  -4.735   0.640  0.00  0.00    -0.277 OA
BRANCH  17  21
ATOM     21  C   LIG    1        1.526  -2.122   0.010  0.00  0.00    +0.141 C 
BRANCH  21  27
ATOM     22  C   LIG    1        0.769   1.576   0.089  0.00  0.00    +0.000 A 
ATOM     23  C   LIG    1        2.041   2.118   0.117  0.00  0.00    +0.001 A 
ATOM     24  C   LIG    1        3.146   1.289   0.109  0.00  0.00    +0.020 A 
ATOM     25  C   LIG    1        2.980  -0.085   0.075  0.00  0.00    +0.046 A 
ATOM     26 CL   LIG    1        4.368  -1.127   0.065  0.00  0.00    -0.083 Cl
ATOM     27  C   LIG    1        1.708  -0.626   0.048  0.00  0.00    -0.012 A 
ATOM     28  C   LIG    1        0.603   0.204   0.055  0.00  0.00    +0.006 A 
ENDBRANCH  21  27
ENDBRANCH  17  21
ENDBRANCH   1  19
BRANCH   1  29
ATOM     29  N   LIG    1        1.121  -3.647   3.931  0.00  0.00    +0.388 N 
ATOM     30  H   LIG    1        1.566  -2.743   3.878  0.00  0.00    -0.089 HD
ATOM     31  H   LIG    1        1.234  -4.023   4.861  0.00  0.00    -0.089 HD
ATOM     32  H   LIG    1        0.138  -3.551   3.725  0.00  0.00    -0.089 HD
ENDBRANCH   1  29
TORSDOF 5
