REMARK  Name = ZINC36294321
REMARK                            x       y       z     vdW  Elec       q    Type
REMARK                         _______ _______ _______ _____ _____    ______ ____
ROOT
ATOM      1  C   LIG    1        0.025   0.045   2.504  0.00  0.00    +0.047 C 
ENDROOT
BRANCH   1   8
ATOM      2  C   LIG    1       -0.018   1.503   0.010  0.00  0.00    +0.044 C 
ATOM      3  C   LIG    1        0.002  -0.004   0.002  0.00  0.00    -0.047 A 
ATOM      4  C   LIG    1        0.006  -0.689  -1.199  0.00  0.00    +0.003 A 
ATOM      5  C   LIG    1        0.025  -2.071  -1.207  0.00  0.00    +0.000 A 
ATOM      6  C   LIG    1        0.040  -2.768  -0.013  0.00  0.00    +0.000 A 
ATOM      7  C   LIG    1        0.037  -2.084   1.188  0.00  0.00    +0.004 A 
ATOM      8  C   LIG    1        0.023  -0.702   1.195  0.00  0.00    -0.044 A 
ENDBRANCH   1   8
BRANCH   1   9
ATOM      9  C   LIG    1       -1.413   0.387   2.899  0.00  0.00    +0.128 C 
BRANCH   9  10
ATOM     10  C   LIG    1       -1.411   1.134   4.208  0.00  0.00    +0.239 C 
ATOM     11  N   LIG    1       -1.482   0.523   5.367  0.00  0.00    -0.276 N 
ATOM     12  H   LIG    1       -1.542  -0.437   5.493  0.00  0.00    +0.304 HD
ATOM     13  C   LIG    1       -1.457   1.524   6.446  0.00  0.00    +0.276 C 
ATOM     14  C   LIG    1       -1.356   2.861   5.683  0.00  0.00    +0.268 C 
ATOM     15  N   LIG    1       -1.331   2.442   4.273  0.00  0.00    -0.237 N 
ATOM     16  H   LIG    1       -1.268   3.039   3.511  0.00  0.00    +0.291 HD
ENDBRANCH   9  10
ENDBRANCH   1   9
TORSDOF 3
