REMARK  Name = ZINC13758870
REMARK                            x       y       z     vdW  Elec       q    Type
REMARK                         _______ _______ _______ _____ _____    ______ ____
ROOT
ATOM      1  C   LIG    1       -0.013   1.076   0.008  0.00  0.00    +0.028 C 
ATOM      2  C   LIG    1        0.281  -0.248  -0.052  0.00  0.00    +0.080 C 
ATOM      3  C   LIG    1       -0.625  -1.410  -0.148  0.00  0.00    +0.261 C 
ATOM      4  N   LIG    1       -0.056  -2.603  -0.192  0.00  0.00    -0.218 N 
ATOM      5  C   LIG    1        1.284  -2.746  -0.150  0.00  0.00    +0.286 C 
ATOM      6  O   LIG    1        1.935  -3.773  -0.180  0.00  0.00    -0.262 OA
ATOM      7  O   LIG    1       -1.834  -1.276  -0.185  0.00  0.00    -0.269 OA
ATOM      8  S   LIG    1        1.872  -1.063  -0.045  0.00  0.00    -0.026 S 
ENDROOT
BRANCH   1  11
ATOM      9  C   LIG    1        3.309   2.534   0.959  0.00  0.00    +0.162 A 
ATOM     10  C   LIG    1        2.316   1.612   0.694  0.00  0.00    +0.057 A 
ATOM     11  C   LIG    1        1.047   2.051   0.296  0.00  0.00    -0.020 A 
ATOM     12  C   LIG    1        0.790   3.422   0.180  0.00  0.00    +0.012 A 
ATOM     13  C   LIG    1        1.786   4.334   0.452  0.00  0.00    +0.050 A 
ATOM     14  C   LIG    1        3.045   3.898   0.841  0.00  0.00    +0.158 A 
BRANCH   9  16
ATOM     15  C   LIG    1        4.745   0.700   1.442  0.00  0.00    +0.277 C 
ATOM     16  O   LIG    1        4.544   2.111   1.341  0.00  0.00    -0.491 OA
ENDBRANCH   9  16
BRANCH  14  17
ATOM     17  O   LIG    1        4.023   4.802   1.108  0.00  0.00    -0.503 OA
ATOM     18  H   LIG    1        4.053   5.088   2.032  0.00  0.00    +0.292 HD
ENDBRANCH  14  17
ENDBRANCH   1  11
BRANCH   4  19
ATOM     19  C   LIG    1       -0.901  -3.796  -0.287  0.00  0.00    +0.237 C 
BRANCH  19  20
ATOM     20  C   LIG    1       -1.139  -4.128  -1.738  0.00  0.00    +0.323 C 
ATOM     21  O   LIG    1       -0.652  -3.439  -2.603  0.00  0.00    -0.249 OA
BRANCH  20  22
ATOM     22  O   LIG    1       -1.891  -5.189  -2.068  0.00  0.00    -0.480 OA
ATOM     23  H   LIG    1       -2.268  -5.724  -1.397  0.00  0.00    +0.295 HD
ENDBRANCH  20  22
ENDBRANCH  19  20
ENDBRANCH   4  19
TORSDOF 6
