REMARK  Name = ZINC18085270
REMARK                            x       y       z     vdW  Elec       q    Type
REMARK                         _______ _______ _______ _____ _____    ______ ____
ROOT
ATOM      1  C   LIG    1       -2.854  -2.420   0.016  0.00  0.00    +0.182 A 
ATOM      2  N   LIG    1       -3.994  -1.753   0.037  0.00  0.00    -0.166 NA
ATOM      3  N   LIG    1       -4.997  -2.558   0.037  0.00  0.00    -0.271 N 
ATOM      4  H   LIG    1       -5.927  -2.283   0.048  0.00  0.00    +0.189 HD
ATOM      5  C   LIG    1       -4.569  -3.843   0.026  0.00  0.00    +0.137 A 
ATOM      6  C   LIG    1       -4.925  -5.273   0.022  0.00  0.00    +0.284 A 
ATOM      7  N   LIG    1       -3.792  -5.999   0.006  0.00  0.00    -0.242 N 
ATOM      8  C   LIG    1       -2.714  -5.192  -0.000  0.00  0.00    +0.270 A 
ATOM      9  O   LIG    1       -1.556  -5.557  -0.015  0.00  0.00    -0.266 OA
ATOM     10  O   LIG    1       -6.053  -5.722   0.030  0.00  0.00    -0.265 OA
ATOM     11  C   LIG    1       -3.176  -3.793   0.012  0.00  0.00    +0.104 A 
ENDROOT
BRANCH   7  12
ATOM     12  C   LIG    1       -3.741  -7.400  -0.002  0.00  0.00    +0.053 A 
ATOM     13  C   LIG    1       -2.515  -8.051  -0.012  0.00  0.00    +0.027 A 
ATOM     14  C   LIG    1       -2.468  -9.432  -0.019  0.00  0.00    +0.017 A 
ATOM     15  C   LIG    1       -3.642 -10.165  -0.018  0.00  0.00    +0.018 A 
ATOM     16 BR   LIG    1       -3.574 -12.055  -0.029  0.00  0.00    -0.050 Br
ATOM     17  C   LIG    1       -4.865  -9.518  -0.008  0.00  0.00    +0.017 A 
ATOM     18  C   LIG    1       -4.917  -8.138   0.006  0.00  0.00    +0.027 A 
ENDBRANCH   7  12
BRANCH   1  19
ATOM     19  C   LIG    1       -1.497  -1.837   0.006  0.00  0.00    +0.360 C 
ATOM     20  O   LIG    1       -0.524  -2.563  -0.007  0.00  0.00    -0.243 OA
BRANCH  19  21
ATOM     21  O   LIG    1       -1.339  -0.499   0.012  0.00  0.00    -0.460 OA
BRANCH  21  23
ATOM     22  C   LIG    1       -0.019   1.526   0.010  0.00  0.00    +0.048 C 
ATOM     23  C   LIG    1        0.002  -0.004   0.002  0.00  0.00    +0.229 C 
ENDBRANCH  21  23
ENDBRANCH  19  21
ENDBRANCH   1  19
TORSDOF 4
