REMARK  Name = ZINC19376338
REMARK                            x       y       z     vdW  Elec       q    Type
REMARK                         _______ _______ _______ _____ _____    ______ ____
ROOT
ATOM      1  C   LIG    1       -0.024   1.337   0.244  0.00  0.00    +0.001 A 
ATOM      2  C   LIG    1        1.155   2.048   0.457  0.00  0.00    +0.002 A 
ATOM      3  C   LIG    1        2.364   1.423   0.438  0.00  0.00    +0.028 A 
ATOM      4  C   LIG    1        2.431   0.039   0.201  0.00  0.00    +0.073 A 
ATOM      5  C   LIG    1        1.231  -0.681  -0.014  0.00  0.00    +0.001 A 
ATOM      6  C   LIG    1        1.298  -2.069  -0.252  0.00  0.00    +0.013 A 
ATOM      7  C   LIG    1        2.523  -2.664  -0.264  0.00  0.00    +0.044 A 
ATOM      8  C   LIG    1        3.675  -1.896  -0.044  0.00  0.00    +0.122 A 
ATOM      9  N   LIG    1        3.606  -0.599   0.178  0.00  0.00    -0.232 NA
ATOM     10  C   LIG    1        0.002  -0.005   0.012  0.00  0.00    +0.010 A 
ENDROOT
BRANCH   8  11
ATOM     11  N   LIG    1        4.916  -2.516  -0.060  0.00  0.00    -0.319 N 
ATOM     12  C   LIG    1        6.156  -1.725  -0.062  0.00  0.00    +0.087 C 
ATOM     13  C   LIG    1        7.072  -2.255   1.046  0.00  0.00    -0.063 C 
ATOM     14  N   LIG    1        7.273  -3.698   0.865  0.00  0.00    +0.381 N 
ATOM     15  H   LIG    1        7.935  -4.033   1.549  0.00  0.00    -0.086 HD
ATOM     16  H   LIG    1        7.633  -3.873  -0.061  0.00  0.00    -0.086 HD
ATOM     17  C   LIG    1        5.998  -4.406   1.034  0.00  0.00    -0.063 C 
ATOM     18  C   LIG    1        5.029  -3.982  -0.069  0.00  0.00    +0.087 C 
ENDBRANCH   8  11
TORSDOF 1
