REMARK  Name = ZINC00002845
REMARK                            x       y       z     vdW  Elec       q    Type
REMARK                         _______ _______ _______ _____ _____    ______ ____
ROOT
ATOM      1  C   LIG    1       -1.297   1.794   0.018  0.00  0.00    -0.024 A 
ATOM      2  C   LIG    1       -1.319   3.193   0.032  0.00  0.00    +0.015 A 
ATOM      3  C   LIG    1       -2.523   3.861   0.036  0.00  0.00    +0.000 A 
ATOM      4  C   LIG    1       -3.716   3.147   0.038  0.00  0.00    +0.124 A 
ATOM      5  C   LIG    1       -3.700   1.758   0.030  0.00  0.00    +0.000 A 
ATOM      6  C   LIG    1       -2.500   1.081   0.020  0.00  0.00    +0.015 A 
ENDROOT
BRANCH   3   7
ATOM      7  C   LIG    1       -2.548   5.367   0.045  0.00  0.00    -0.009 C 
ATOM      8  C   LIG    1       -3.272   5.858   1.300  0.00  0.00    +0.015 C 
ATOM      9  C   LIG    1       -3.284   5.873  -1.198  0.00  0.00    +0.015 C 
ATOM     10  C   LIG    1       -1.114   5.901   0.041  0.00  0.00    +0.015 C 
ENDBRANCH   3   7
BRANCH   5  11
ATOM     11  C   LIG    1       -4.997   0.991   0.032  0.00  0.00    -0.009 C 
ATOM     12  C   LIG    1       -5.809   1.358  -1.211  0.00  0.00    +0.015 C 
ATOM     13  C   LIG    1       -5.796   1.345   1.287  0.00  0.00    +0.015 C 
ATOM     14  C   LIG    1       -4.701  -0.510   0.022  0.00  0.00    +0.015 C 
ENDBRANCH   5  11
BRANCH   1  16
ATOM     15  C   LIG    1        1.145   1.765   0.001  0.00  0.00    +0.049 C 
ATOM     16  C   LIG    1       -0.013   1.076   0.008  0.00  0.00    +0.011 C 
BRANCH  15  20
ATOM     17  C   LIG    1        6.053   0.508  -0.052  0.00  0.00    +0.069 C 
ATOM     18  C   LIG    1        4.546   0.488  -0.038  0.00  0.00    +0.081 A 
ATOM     19  C   LIG    1        3.691   1.607  -0.030  0.00  0.00    +0.075 A 
ATOM     20  C   LIG    1        2.424   1.050  -0.015  0.00  0.00    +0.160 A 
ATOM     21  O   LIG    1        2.608  -0.284  -0.025  0.00  0.00    -0.355 OA
ATOM     22  N   LIG    1        3.782  -0.568  -0.037  0.00  0.00    -0.083 NA
ENDBRANCH  15  20
ENDBRANCH   1  16
BRANCH   4  23
ATOM     23  O   LIG    1       -4.901   3.810   0.048  0.00  0.00    -0.506 OA
ATOM     24  H   LIG    1       -5.240   3.997   0.934  0.00  0.00    +0.292 HD
ENDBRANCH   4  23
TORSDOF 5
