REMARK  Name = ZINC13745590
REMARK                            x       y       z     vdW  Elec       q    Type
REMARK                         _______ _______ _______ _____ _____    ______ ____
ROOT
ATOM      1  C   LIG    1        2.959   3.190   3.693  0.00  0.00    +0.121 A 
ATOM      2  C   LIG    1        3.286   2.376   4.775  0.00  0.00    +0.047 A 
ATOM      3  C   LIG    1        2.559   1.237   5.040  0.00  0.00    +0.030 A 
ATOM      4  C   LIG    1        1.487   0.891   4.225  0.00  0.00    +0.047 A 
ATOM      5  C   LIG    1        1.158   1.708   3.129  0.00  0.00    +0.006 A 
ATOM      6  C   LIG    1        0.000   1.080   2.488  0.00  0.00    -0.024 A 
ATOM      7  C   LIG    1       -0.285  -0.028   3.190  0.00  0.00    +0.087 A 
ATOM      8  N   LIG    1        0.592  -0.158   4.232  0.00  0.00    -0.360 N 
ATOM      9  H   LIG    1        0.586  -0.881   4.879  0.00  0.00    +0.165 HD
ATOM     10  C   LIG    1        1.899   2.864   2.872  0.00  0.00    +0.056 A 
ENDROOT
BRANCH   1  11
ATOM     11  O   LIG    1        3.688   4.312   3.446  0.00  0.00    -0.492 OA
BRANCH  11  12
ATOM     12  C   LIG    1        4.771   4.591   4.334  0.00  0.00    +0.229 C 
BRANCH  12  14
ATOM     13  C   LIG    1        6.628   6.181   4.851  0.00  0.00    +0.007 C 
ATOM     14  C   LIG    1        5.468   5.882   3.900  0.00  0.00    +0.038 C 
ENDBRANCH  12  14
ENDBRANCH  11  12
ENDBRANCH   1  11
BRANCH   6  15
ATOM     15  C   LIG    1       -0.729   1.579   1.267  0.00  0.00    +0.018 C 
BRANCH  15  16
ATOM     16  C   LIG    1       -0.013   1.086   0.008  0.00  0.00    -0.082 C 
BRANCH  16  17
ATOM     17  N   LIG    1       -0.746   1.561  -1.179  0.00  0.00    +0.378 N 
ATOM     18  H   LIG    1       -1.694   1.168  -1.169  0.00  0.00    -0.090 HD
ATOM     19  H   LIG    1       -0.269   1.260  -2.027  0.00  0.00    -0.090 HD
ATOM     20  H   LIG    1       -0.807   2.578  -1.167  0.00  0.00    -0.090 HD
ENDBRANCH  16  17
ENDBRANCH  15  16
ENDBRANCH   6  15
TORSDOF 6
