REMARK  Name = ZINC35052491
REMARK                            x       y       z     vdW  Elec       q    Type
REMARK                         _______ _______ _______ _____ _____    ______ ____
ROOT
ATOM      1  C   LIG    1       -0.373  -0.236  -1.309  0.00  0.00    -0.021 C 
ATOM      2  C   LIG    1       -0.550   0.231  -2.558  0.00  0.00    -0.021 C 
ATOM      3  C   LIG    1       -0.535  -0.931  -3.550  0.00  0.00    +0.032 C 
ATOM      4  C   LIG    1        0.303  -1.975  -2.798  0.00  0.00    +0.007 C 
ATOM      5  C   LIG    1        0.037  -3.429  -3.136  0.00  0.00    +0.001 C 
ATOM      6  C   LIG    1        0.556  -3.720  -4.551  0.00  0.00    +0.031 C 
ATOM      7  C   LIG    1        0.522  -5.198  -4.807  0.00  0.00    -0.027 C 
ATOM      8  C   LIG    1        0.517  -6.088  -3.866  0.00  0.00    -0.065 C 
ATOM      9  C   LIG    1        0.556  -5.752  -2.373  0.00  0.00    -0.008 C 
ATOM     10  C   LIG    1        1.680  -6.576  -1.740  0.00  0.00    +0.016 C 
ATOM     11  C   LIG    1       -0.752  -6.162  -1.702  0.00  0.00    +0.014 C 
ATOM     12  C   LIG    1       -1.379  -7.337  -2.451  0.00  0.00    +0.032 C 
ATOM     13  C   LIG    1       -0.305  -8.266  -3.015  0.00  0.00    +0.119 C 
ATOM     14  C   LIG    1        0.449  -7.563  -4.226  0.00  0.00    +0.062 C 
ATOM     15  C   LIG    1        0.856  -4.277  -2.139  0.00  0.00    +0.003 C 
ATOM     16  C   LIG    1        0.552  -3.929  -0.684  0.00  0.00    +0.005 C 
ATOM     17  C   LIG    1        0.678  -2.422  -0.407  0.00  0.00    +0.012 C 
ATOM     18  C   LIG    1       -0.254  -1.722  -1.369  0.00  0.00    -0.002 C 
ATOM     19  C   LIG    1       -1.646  -2.347  -1.256  0.00  0.00    +0.016 C 
ENDROOT
BRANCH   1  21
ATOM     20  C   LIG    1       -0.439   2.079  -0.178  0.00  0.00    +0.069 C 
ATOM     21  C   LIG    1       -0.302   0.581  -0.090  0.00  0.00    +0.080 C 
ATOM     22  N   LIG    1       -0.122   0.014   1.060  0.00  0.00    -0.092 NA
BRANCH  22  23
ATOM     23  O   LIG    1       -0.054   0.801   2.235  0.00  0.00    -0.409 OA
ATOM     24  H   LIG    1        0.082   0.289   3.045  0.00  0.00    +0.328 HD
ENDBRANCH  22  23
ENDBRANCH   1  21
BRANCH  13  25
ATOM     25  O   LIG    1        0.642  -8.575  -1.991  0.00  0.00    -0.391 OA
ATOM     26  H   LIG    1        1.365  -9.147  -2.284  0.00  0.00    +0.210 HD
ENDBRANCH  13  25
TORSDOF 3
