REMARK  Name = ZINC45389033
REMARK                            x       y       z     vdW  Elec       q    Type
REMARK                         _______ _______ _______ _____ _____    ______ ____
ROOT
ATOM      1  C   LIG    1       -0.025   1.388  -0.226  0.00  0.00    +0.011 A 
ATOM      2  C   LIG    1        1.147   2.109  -0.180  0.00  0.00    +0.046 A 
ATOM      3  C   LIG    1        2.342   1.478   0.146  0.00  0.00    +0.121 A 
ATOM      4  C   LIG    1        2.361   0.117   0.428  0.00  0.00    +0.046 A 
ATOM      5  C   LIG    1        1.196  -0.614   0.385  0.00  0.00    +0.011 A 
ATOM      6  C   LIG    1       -0.011   0.016   0.057  0.00  0.00    -0.024 A 
ENDROOT
BRANCH   6   7
ATOM      7  C   LIG    1       -1.258  -0.758   0.010  0.00  0.00    +0.028 C 
ATOM      8  C   LIG    1       -2.392  -0.190  -0.473  0.00  0.00    +0.080 C 
ATOM      9  C   LIG    1       -3.776  -0.704  -0.472  0.00  0.00    +0.258 C 
ATOM     10  N   LIG    1       -4.697   0.073  -1.018  0.00  0.00    -0.243 N 
ATOM     11  H   LIG    1       -5.619  -0.228  -1.038  0.00  0.00    +0.159 HD
ATOM     12  C   LIG    1       -4.383   1.272  -1.548  0.00  0.00    +0.283 C 
ATOM     13  O   LIG    1       -5.121   2.081  -2.077  0.00  0.00    -0.262 OA
ATOM     14  O   LIG    1       -4.056  -1.787   0.007  0.00  0.00    -0.269 OA
ATOM     15  S   LIG    1       -2.622   1.390  -1.278  0.00  0.00    -0.026 S 
ENDBRANCH   6   7
BRANCH   3  16
ATOM     16  O   LIG    1        3.495   2.194   0.189  0.00  0.00    -0.487 OA
BRANCH  16  17
ATOM     17  C   LIG    1        4.687   1.484   0.531  0.00  0.00    +0.264 C 
BRANCH  17  18
ATOM     18  C   LIG    1        5.856   2.435   0.529  0.00  0.00    -0.007 A 
ATOM     19  C   LIG    1        6.579   2.637  -0.633  0.00  0.00    +0.011 A 
ATOM     20  C   LIG    1        7.652   3.509  -0.640  0.00  0.00    +0.050 A 
ATOM     21  C   LIG    1        8.006   4.182   0.518  0.00  0.00    +0.166 A 
ATOM     22  C   LIG    1        7.278   3.979   1.688  0.00  0.00    +0.167 A 
ATOM     23  O   LIG    1        7.819   4.748   2.677  0.00  0.00    -0.453 OA
ATOM     24  C   LIG    1        9.130   5.112   2.208  0.00  0.00    +0.466 C 
ATOM     25  O   LIG    1        9.002   5.079   0.774  0.00  0.00    -0.453 OA
ATOM     26  C   LIG    1        6.200   3.108   1.686  0.00  0.00    +0.056 A 
ENDBRANCH  17  18
ENDBRANCH  16  17
ENDBRANCH   3  16
TORSDOF 4
