REMARK  Name = ZINC18038301
REMARK                            x       y       z     vdW  Elec       q    Type
REMARK                         _______ _______ _______ _____ _____    ______ ____
ROOT
ATOM      1  C   LIG    1        1.274   2.027   0.001  0.00  0.00    +0.208 A 
ATOM      2  C   LIG    1        2.489   1.194  -0.015  0.00  0.00    +0.154 A 
ATOM      3  N   LIG    1        2.338  -0.123  -0.021  0.00  0.00    -0.198 NA
ATOM      4  C   LIG    1        1.139  -0.686  -0.013  0.00  0.00    +0.217 A 
ATOM      5  N   LIG    1        0.002  -0.004   0.002  0.00  0.00    -0.178 NA
ATOM      6  C   LIG    1       -0.016   1.319   0.009  0.00  0.00    +0.248 A 
ENDROOT
BRANCH   2   7
ATOM      7  N   LIG    1        3.737   1.764  -0.024  0.00  0.00    -0.341 N 
ATOM      8  H   LIG    1        3.842   2.859  -0.019  0.00  0.00    +0.144 HD
ATOM      9  H   LIG    1        4.633   1.125  -0.036  0.00  0.00    +0.144 HD
ENDBRANCH   2   7
BRANCH   4  10
ATOM     10  N   LIG    1        1.069  -2.058  -0.019  0.00  0.00    -0.327 N 
ATOM     11  H   LIG    1        1.993  -2.656  -0.030  0.00  0.00    +0.145 HD
ATOM     12  H   LIG    1        0.090  -2.559  -0.012  0.00  0.00    +0.145 HD
ENDBRANCH   4  10
BRANCH   1  13
ATOM     13  N   LIG    1        1.339   3.349   0.007  0.00  0.00    -0.022 NA
ATOM     14  O   LIG    1        0.316   4.009   0.020  0.00  0.00    -0.143 OA
ENDBRANCH   1  13
BRANCH   6  15
ATOM     15  O   LIG    1       -1.183   1.999   0.019  0.00  0.00    -0.491 OA
ATOM     16  H   LIG    1       -1.179   2.936   0.024  0.00  0.00    +0.294 HD
ENDBRANCH   6  15
TORSDOF 4
