REMARK  Name = ZINC28896418
REMARK                            x       y       z     vdW  Elec       q    Type
REMARK                         _______ _______ _______ _____ _____    ______ ____
ROOT
ATOM      1  C   LIG    1       -2.315   1.104  -1.091  0.00  0.00    +0.000 C 
ATOM      2  C   LIG    1       -0.877   1.625  -1.150  0.00  0.00    +0.000 C 
ATOM      3  C   LIG    1       -0.096   1.107   0.060  0.00  0.00    +0.005 C 
ATOM      4  C   LIG    1       -0.766   1.595   1.345  0.00  0.00    +0.010 C 
ATOM      5  C   LIG    1        0.019   1.079   2.554  0.00  0.00    +0.111 C 
ATOM      6  N   LIG    1       -0.087  -0.385   2.606  0.00  0.00    -0.301 N 
ATOM      7  C   LIG    1        1.019  -1.153   2.672  0.00  0.00    +0.222 C 
ATOM      8  O   LIG    1        2.117  -0.642   2.594  0.00  0.00    -0.275 OA
ATOM      9  C   LIG    1       -1.423  -0.997   2.585  0.00  0.00    +0.108 C 
ATOM     10  C   LIG    1       -2.187  -0.467   1.368  0.00  0.00    +0.023 C 
ATOM     11  C   LIG    1       -2.201   1.064   1.404  0.00  0.00    -0.005 C 
ATOM     12  C   LIG    1       -2.982   1.590   0.197  0.00  0.00    +0.004 C 
ENDROOT
BRANCH   7  13
ATOM     13  C   LIG    1        0.892  -2.644   2.843  0.00  0.00    +0.048 C 
ATOM     14  C   LIG    1        0.003  -2.945   4.051  0.00  0.00    +0.019 C 
ATOM     15  C   LIG    1       -0.126  -4.460   4.225  0.00  0.00    -0.009 C 
ATOM     16  C   LIG    1        1.260  -5.067   4.448  0.00  0.00    +0.007 C 
ATOM     17  C   LIG    1        2.150  -4.767   3.240  0.00  0.00    -0.009 C 
ATOM     18  C   LIG    1        1.524  -5.373   1.982  0.00  0.00    +0.007 C 
ATOM     19  C   LIG    1        0.137  -4.765   1.759  0.00  0.00    -0.009 C 
ATOM     20  C   LIG    1       -0.752  -5.066   2.967  0.00  0.00    +0.007 C 
ATOM     21  C   LIG    1        0.266  -3.251   1.585  0.00  0.00    +0.019 C 
ATOM     22  C   LIG    1        2.279  -3.252   3.067  0.00  0.00    +0.019 C 
ENDBRANCH   7  13
TORSDOF 1
