REMARK  Name = ZINC15830294
REMARK                            x       y       z     vdW  Elec       q    Type
REMARK                         _______ _______ _______ _____ _____    ______ ____
ROOT
ATOM      1  C   LIG    1       -2.501   1.010   0.019  0.00  0.00    +0.069 C 
ATOM      2  N   LIG    1       -2.606  -0.274   0.012  0.00  0.00    -0.182 NA
ATOM      3  N   LIG    1       -3.921  -0.737   0.015  0.00  0.00    -0.197 N 
ATOM      4  C   LIG    1       -4.832   0.418   0.026  0.00  0.00    +0.136 C 
ATOM      5  C   LIG    1       -3.880   1.630   0.035  0.00  0.00    +0.087 C 
ENDROOT
BRANCH   4   6
ATOM      6  C   LIG    1       -5.695   0.424  -1.210  0.00  0.00    -0.025 A 
ATOM      7  C   LIG    1       -5.157   0.056  -2.429  0.00  0.00    +0.007 A 
ATOM      8  C   LIG    1       -5.949   0.056  -3.562  0.00  0.00    +0.020 A 
ATOM      9  C   LIG    1       -7.277   0.434  -3.477  0.00  0.00    +0.041 A 
ATOM     10 CL   LIG    1       -8.271   0.441  -4.901  0.00  0.00    -0.084 Cl
ATOM     11  C   LIG    1       -7.813   0.808  -2.258  0.00  0.00    +0.020 A 
ATOM     12  C   LIG    1       -7.022   0.802  -1.125  0.00  0.00    +0.007 A 
ENDBRANCH   4   6
BRANCH   1  16
ATOM     13  C   LIG    1        1.155   3.167   0.008  0.00  0.00    +0.000 A 
ATOM     14  C   LIG    1        1.171   1.783   0.001  0.00  0.00    +0.001 A 
ATOM     15  C   LIG    1       -0.013   1.076   0.008  0.00  0.00    +0.010 A 
ATOM     16  C   LIG    1       -1.231   1.759   0.017  0.00  0.00    -0.002 A 
ATOM     17  C   LIG    1       -1.240   3.156   0.031  0.00  0.00    +0.010 A 
ATOM     18  C   LIG    1       -0.048   3.851   0.023  0.00  0.00    +0.001 A 
ENDBRANCH   1  16
BRANCH   3  19
ATOM     19  C   LIG    1       -4.295  -2.032   0.010  0.00  0.00    +0.151 C 
ATOM     20  S   LIG    1       -5.957  -2.442   0.014  0.00  0.00    -0.017 S 
BRANCH  19  21
ATOM     21  N   LIG    1       -3.362  -3.004   0.001  0.00  0.00    -0.339 N 
ATOM     22  H   LIG    1       -3.631  -3.935  -0.004  0.00  0.00    +0.144 HD
ATOM     23  H   LIG    1       -2.420  -2.771  -0.002  0.00  0.00    +0.144 HD
ENDBRANCH  19  21
ENDBRANCH   3  19
TORSDOF 4
