REMARK  Name = ZINC49037116
REMARK                            x       y       z     vdW  Elec       q    Type
REMARK                         _______ _______ _______ _____ _____    ______ ____
ROOT
ATOM      1  N   LIG    1        3.606   1.996  -0.022  0.00  0.00    -0.252 N 
ATOM      2  C   LIG    1        4.919   1.335  -0.044  0.00  0.00    +0.134 C 
ATOM      3  C   LIG    1        5.921   2.506  -0.045  0.00  0.00    +0.128 C 
ATOM      4  N   LIG    1        5.066   3.702  -0.024  0.00  0.00    -0.285 N 
ATOM      5  C   LIG    1        3.781   3.324  -0.018  0.00  0.00    +0.309 C 
ATOM      6  O   LIG    1        2.857   4.114  -0.005  0.00  0.00    -0.252 OA
ENDROOT
BRANCH   1   9
ATOM      7  C   LIG    1       -0.017   1.378   0.010  0.00  0.00    +0.021 A 
ATOM      8  C   LIG    1        1.183   2.071   0.002  0.00  0.00    +0.026 A 
ATOM      9  C   LIG    1        2.369   1.341  -0.013  0.00  0.00    +0.056 A 
ATOM     10  C   LIG    1        2.305  -0.046  -0.020  0.00  0.00    +0.134 A 
ATOM     11  N   LIG    1        1.143  -0.666  -0.012  0.00  0.00    -0.261 NA
ATOM     12  C   LIG    1        0.002  -0.004   0.002  0.00  0.00    +0.111 A 
ENDBRANCH   1   9
BRANCH   4  13
ATOM     13  C   LIG    1        5.543   5.087  -0.016  0.00  0.00    +0.091 C 
BRANCH  13  14
ATOM     14  C   LIG    1        5.692   5.583  -1.456  0.00  0.00    -0.060 C 
BRANCH  14  15
ATOM     15  N   LIG    1        6.171   6.971  -1.449  0.00  0.00    +0.381 N 
ATOM     16  H   LIG    1        5.562   7.540  -0.880  0.00  0.00    -0.082 HD
ATOM     17  C   LIG    1        7.518   7.023  -0.929  0.00  0.00    -0.079 C 
ATOM     18  C   LIG    1        7.741   8.286  -0.080  0.00  0.00    -0.019 C 
ATOM     19  C   LIG    1        7.093   9.540  -0.699  0.00  0.00    -0.002 C 
ATOM     20  C   LIG    1        7.285   9.636  -2.190  0.00  0.00    -0.002 C 
ATOM     21  C   LIG    1        6.095   8.950  -2.902  0.00  0.00    -0.019 C 
ATOM     22  C   LIG    1        6.203   7.496  -2.825  0.00  0.00    -0.079 C 
ENDBRANCH  14  15
ENDBRANCH  13  14
ENDBRANCH   4  13
TORSDOF 4
