REMARK  Name = ZINC14951858
REMARK                            x       y       z     vdW  Elec       q    Type
REMARK                         _______ _______ _______ _____ _____    ______ ____
ROOT
ATOM      1  C   LIG    1       -0.018   1.503   0.010  0.00  0.00    +0.070 C 
ATOM      2  C   LIG    1        0.002  -0.004   0.002  0.00  0.00    +0.094 C 
ATOM      3  N   LIG    1        0.022  -0.661   1.125  0.00  0.00    -0.115 NA
ENDROOT
BRANCH   2   4
ATOM      4  C   LIG    1       -0.000  -0.728  -1.268  0.00  0.00    +0.174 C 
ATOM      5  N   LIG    1        0.018  -2.030  -1.276  0.00  0.00    -0.118 NA
BRANCH   5   6
ATOM      6  N   LIG    1        0.015  -2.724  -2.493  0.00  0.00    -0.155 N 
ATOM      7  H   LIG    1        0.001  -2.234  -3.330  0.00  0.00    +0.292 HD
BRANCH   6   8
ATOM      8  C   LIG    1        0.034  -4.100  -2.500  0.00  0.00    +0.400 C 
ATOM      9  N   LIG    1        0.054  -4.758  -1.375  0.00  0.00    -0.128 NA
ATOM     10  H   LIG    1        0.067  -5.728  -1.380  0.00  0.00    +0.306 HD
BRANCH   8  11
ATOM     11  N   LIG    1        0.032  -4.781  -3.695  0.00  0.00    -0.288 N 
ATOM     12  H   LIG    1        0.045  -5.751  -3.701  0.00  0.00    +0.255 HD
ATOM     13  H   LIG    1        0.018  -4.292  -4.533  0.00  0.00    +0.255 HD
ENDBRANCH   8  11
ENDBRANCH   6   8
ENDBRANCH   5   6
ENDBRANCH   2   4
BRANCH   3  14
ATOM     14  N   LIG    1        0.024   0.033   2.342  0.00  0.00    -0.157 N 
ATOM     15  H   LIG    1        0.011   1.003   2.348  0.00  0.00    +0.292 HD
BRANCH  14  16
ATOM     16  C   LIG    1        0.044  -0.658   3.525  0.00  0.00    +0.365 C 
ATOM     17  N   LIG    1        0.046   0.002   4.683  0.00  0.00    -0.290 N 
ATOM     18  H   LIG    1        0.061  -0.488   5.520  0.00  0.00    +0.255 HD
ATOM     19  H   LIG    1        0.033   0.972   4.688  0.00  0.00    +0.255 HD
BRANCH  16  20
ATOM     20  N   LIG    1        0.062  -1.990   3.518  0.00  0.00    -0.290 N 
ATOM     21  H   LIG    1        0.077  -2.480   4.355  0.00  0.00    +0.255 HD
ATOM     22  H   LIG    1        0.061  -2.471   2.675  0.00  0.00    +0.255 HD
ENDBRANCH  16  20
ENDBRANCH  14  16
ENDBRANCH   3  14
TORSDOF 7
