REMARK  Name = ZINC21002590
REMARK                            x       y       z     vdW  Elec       q    Type
REMARK                         _______ _______ _______ _____ _____    ______ ____
ROOT
ATOM      1  C   LIG    1        1.120   3.657   0.011  0.00  0.00    +0.163 C 
ENDROOT
BRANCH   1   4
ATOM      2  C   LIG    1        4.872   4.372   0.271  0.00  0.00    +0.109 C 
ATOM      3  C   LIG    1        3.539   3.854  -0.205  0.00  0.00    +0.211 C 
ATOM      4  N   LIG    1        2.415   4.161   0.474  0.00  0.00    -0.304 N 
ATOM      5  H   LIG    1        2.471   4.789   1.375  0.00  0.00    +0.149 HD
ATOM      6  O   LIG    1        3.477   3.161  -1.198  0.00  0.00    -0.276 OA
ENDBRANCH   1   4
BRANCH   1   7
ATOM      7  C   LIG    1        1.140   2.151   0.003  0.00  0.00    +0.236 C 
ATOM      8  N   LIG    1       -0.018   1.461   0.010  0.00  0.00    -0.299 N 
ATOM      9  C   LIG    1       -1.296   2.176   0.020  0.00  0.00    +0.132 C 
ATOM     10  O   LIG    1        2.199   1.558  -0.011  0.00  0.00    -0.274 OA
BRANCH   8  11
ATOM     11  C   LIG    1        0.002  -0.004   0.002  0.00  0.00    +0.142 C 
BRANCH  11  12
ATOM     12  C   LIG    1        0.022  -0.514   1.420  0.00  0.00    -0.030 A 
ATOM     13  C   LIG    1        1.229  -0.737   2.057  0.00  0.00    +0.005 A 
ATOM     14  C   LIG    1        1.248  -1.200   3.360  0.00  0.00    +0.000 A 
ATOM     15  C   LIG    1        0.060  -1.450   4.021  0.00  0.00    +0.000 A 
ATOM     16  C   LIG    1       -1.147  -1.232   3.382  0.00  0.00    +0.000 A 
ATOM     17  C   LIG    1       -1.165  -0.764   2.082  0.00  0.00    +0.005 A 
ENDBRANCH  11  12
ENDBRANCH   8  11
ENDBRANCH   1   7
BRANCH   1  18
ATOM     18  C   LIG    1        0.849   4.171  -1.404  0.00  0.00    +0.069 C 
BRANCH  18  19
ATOM     19  C   LIG    1        0.706   5.671  -1.375  0.00  0.00    -0.020 A 
ATOM     20  C   LIG    1       -0.441   6.363  -1.294  0.00  0.00    +0.087 A 
ATOM     21  N   LIG    1       -0.177   7.706  -1.290  0.00  0.00    -0.360 N 
ATOM     22  C   LIG    1        1.180   7.916  -1.379  0.00  0.00    +0.047 A 
ATOM     23  C   LIG    1        1.972   9.059  -1.418  0.00  0.00    +0.026 A 
ATOM     24  C   LIG    1        3.341   8.941  -1.512  0.00  0.00    +0.002 A 
ATOM     25  C   LIG    1        3.941   7.691  -1.568  0.00  0.00    +0.001 A 
ATOM     26  C   LIG    1        3.183   6.554  -1.532  0.00  0.00    +0.010 A 
ATOM     27  H   LIG    1       -1.004   8.428  -1.221  0.00  0.00    +0.165 HD
ATOM     28  C   LIG    1        1.794   6.651  -1.437  0.00  0.00    +0.003 A 
ENDBRANCH  18  19
ENDBRANCH   1  18
TORSDOF 6
