REMARK  Name = ZINC45390920
REMARK                            x       y       z     vdW  Elec       q    Type
REMARK                         _______ _______ _______ _____ _____    ______ ____
ROOT
ATOM      1  C   LIG    1        4.226  -1.340  -7.431  0.00  0.00    -0.030 A 
ATOM      2  C   LIG    1        3.424  -0.865  -8.455  0.00  0.00    +0.005 A 
ATOM      3  C   LIG    1        3.901   0.101  -9.323  0.00  0.00    +0.001 A 
ATOM      4  C   LIG    1        5.179   0.597  -9.173  0.00  0.00    +0.013 A 
ATOM      5  C   LIG    1        5.993   0.123  -8.143  0.00  0.00    +0.037 A 
ATOM      6  C   LIG    1        5.504  -0.848  -7.266  0.00  0.00    +0.018 A 
ENDROOT
BRANCH   5   7
ATOM      7  C   LIG    1        7.364   0.650  -7.977  0.00  0.00    +0.248 C 
ATOM      8  N   LIG    1        7.831   1.590  -8.822  0.00  0.00    -0.281 N 
ATOM      9  H   LIG    1        7.294   1.872  -9.579  0.00  0.00    +0.155 HD
ATOM     10  O   LIG    1        8.069   0.235  -7.078  0.00  0.00    -0.270 OA
BRANCH   8  11
ATOM     11  C   LIG    1        9.090   2.159  -8.607  0.00  0.00    +0.034 A 
ATOM     12  C   LIG    1       10.126   1.388  -8.094  0.00  0.00    +0.023 A 
ATOM     13  C   LIG    1       11.364   1.958  -7.885  0.00  0.00    +0.006 A 
ATOM     14  C   LIG    1       11.582   3.295  -8.183  0.00  0.00    -0.042 A 
ATOM     15  C   LIG    1       10.558   4.063  -8.695  0.00  0.00    -0.029 A 
ATOM     16  C   LIG    1       10.751   5.515  -9.045  0.00  0.00    +0.116 C 
ATOM     17  N   LIG    1       11.954   6.044  -8.394  0.00  0.00    -0.312 NA
ATOM     18  H   LIG    1       12.127   6.998  -8.675  0.00  0.00    +0.122 HD
ATOM     19  C   LIG    1       13.113   5.188  -8.691  0.00  0.00    +0.086 C 
ATOM     20  C   LIG    1       12.952   3.872  -7.929  0.00  0.00    +0.050 C 
ATOM     21  C   LIG    1        9.312   3.494  -8.910  0.00  0.00    +0.028 A 
ENDBRANCH   8  11
ENDBRANCH   5   7
BRANCH   1  22
ATOM     22  C   LIG    1        3.698  -2.392  -6.490  0.00  0.00    +0.139 C 
BRANCH  22  24
ATOM     23  C   LIG    1        2.489  -2.494  -4.377  0.00  0.00    +0.244 C 
ATOM     24  N   LIG    1        3.040  -1.745  -5.353  0.00  0.00    -0.307 N 
ATOM     25  H   LIG    1        3.000  -0.777  -5.302  0.00  0.00    +0.149 HD
ATOM     26  O   LIG    1        2.539  -3.707  -4.441  0.00  0.00    -0.270 OA
BRANCH  23  30
ATOM     27  C   LIG    1        0.579  -0.611  -1.081  0.00  0.00    +0.162 A 
ATOM     28  C   LIG    1        1.147   0.159  -2.087  0.00  0.00    +0.050 A 
ATOM     29  C   LIG    1        1.767  -0.448  -3.157  0.00  0.00    +0.017 A 
ATOM     30  C   LIG    1        1.826  -1.842  -3.231  0.00  0.00    +0.040 A 
ATOM     31  C   LIG    1        1.254  -2.617  -2.219  0.00  0.00    +0.062 A 
ATOM     32  C   LIG    1        0.638  -2.002  -1.147  0.00  0.00    +0.162 A 
BRANCH  27  34
ATOM     33  C   LIG    1       -0.056   1.421  -0.025  0.00  0.00    +0.277 C 
ATOM     34  O   LIG    1       -0.031  -0.007  -0.028  0.00  0.00    -0.491 OA
ENDBRANCH  27  34
BRANCH  32  35
ATOM     35  O   LIG    1        0.085  -2.753  -0.157  0.00  0.00    -0.491 OA
ATOM     36  C   LIG    1        0.182  -4.173  -0.289  0.00  0.00    +0.277 C 
ENDBRANCH  32  35
ENDBRANCH  23  30
ENDBRANCH  22  24
ENDBRANCH   1  22
TORSDOF 7
