REMARK  Name = ZINC13831235
REMARK                            x       y       z     vdW  Elec       q    Type
REMARK                         _______ _______ _______ _____ _____    ______ ____
ROOT
ATOM      1  C   LIG    1        6.030  -0.663  -0.062  0.00  0.00    +0.045 A 
ATOM      2  C   LIG    1        5.948  -2.057  -0.144  0.00  0.00    +0.055 A 
ATOM      3  C   LIG    1        7.077  -2.817  -0.224  0.00  0.00    +0.140 A 
ATOM      4  C   LIG    1        8.342  -2.219  -0.225  0.00  0.00    +0.064 A 
ATOM      5  C   LIG    1        8.451  -0.828  -0.145  0.00  0.00    +0.057 A 
ATOM      6  C   LIG    1        9.771  -0.176  -0.145  0.00  0.00    +0.196 C 
ATOM      7  O   LIG    1       10.781  -0.830   0.035  0.00  0.00    -0.287 OA
ATOM      8  C   LIG    1        9.853   1.284  -0.385  0.00  0.00    +0.033 A 
ATOM      9  C   LIG    1       11.071   1.887  -0.680  0.00  0.00    +0.012 A 
ATOM     10  C   LIG    1       11.128   3.253  -0.891  0.00  0.00    +0.001 A 
ATOM     11  C   LIG    1        9.982   4.024  -0.812  0.00  0.00    +0.001 A 
ATOM     12  C   LIG    1        8.763   3.440  -0.519  0.00  0.00    +0.012 A 
ATOM     13  C   LIG    1        8.687   2.068  -0.304  0.00  0.00    +0.033 A 
ATOM     14  C   LIG    1        7.393   1.425   0.009  0.00  0.00    +0.196 C 
ATOM     15  O   LIG    1        6.431   2.099   0.327  0.00  0.00    -0.287 OA
ATOM     16  C   LIG    1        7.281  -0.041  -0.068  0.00  0.00    +0.056 A 
ENDROOT
BRANCH   3  17
ATOM     17  S   LIG    1        6.942  -4.571  -0.326  0.00  0.00    +0.111 S 
ATOM     18  O   LIG    1        8.050  -5.125   0.438  0.00  0.00    -0.142 OA
ATOM     19  O   LIG    1        7.026  -4.920  -1.735  0.00  0.00    -0.142 OA
BRANCH  17  20
ATOM     20  O   LIG    1        5.654  -4.930   0.247  0.00  0.00    -0.250 OA
ATOM     21  H   LIG    1        4.943  -4.543  -0.288  0.00  0.00    +0.245 HD
ENDBRANCH  17  20
ENDBRANCH   3  17
BRANCH   4  22
ATOM     22  N   LIG    1        9.482  -3.003  -0.305  0.00  0.00    -0.356 N 
ATOM     23  H   LIG    1       10.324  -2.672   0.046  0.00  0.00    +0.142 HD
ATOM     24  H   LIG    1        9.438  -3.883  -0.712  0.00  0.00    +0.142 HD
ENDBRANCH   4  22
BRANCH   1  25
ATOM     25  N   LIG    1        4.874   0.098   0.019  0.00  0.00    -0.313 N 
ATOM     26  H   LIG    1        4.388   0.154   0.857  0.00  0.00    +0.152 HD
BRANCH  25  35
ATOM     27  C   LIG    1        0.792   2.882  -1.004  0.00  0.00    +0.001 A 
ATOM     28  C   LIG    1        1.236   2.202   0.128  0.00  0.00    +0.001 A 
ATOM     29  C   LIG    1        2.411   1.514   0.116  0.00  0.00    +0.010 A 
ATOM     30  C   LIG    1        3.188   1.486  -1.052  0.00  0.00    +0.003 A 
ATOM     31  C   LIG    1        2.737   2.176  -2.205  0.00  0.00    -0.016 A 
ATOM     32  C   LIG    1        3.514   2.148  -3.375  0.00  0.00    +0.008 A 
ATOM     33  C   LIG    1        4.690   1.462  -3.396  0.00  0.00    +0.002 A 
ATOM     34  C   LIG    1        5.143   0.780  -2.271  0.00  0.00    +0.024 A 
ATOM     35  C   LIG    1        4.411   0.783  -1.102  0.00  0.00    +0.039 A 
ATOM     36  C   LIG    1        1.519   2.876  -2.155  0.00  0.00    +0.008 A 
ENDBRANCH  25  35
ENDBRANCH   1  25
TORSDOF 5
