REMARK  Name = ZINC39121468
REMARK                            x       y       z     vdW  Elec       q    Type
REMARK                         _______ _______ _______ _____ _____    ______ ____
ROOT
ATOM      1  C   LIG    1       -0.018   1.461   0.010  0.00  0.00    +0.152 C 
ATOM      2  N   LIG    1        0.002  -0.004   0.002  0.00  0.00    -0.308 N 
ATOM      3  C   LIG    1       -1.190  -0.698   0.004  0.00  0.00    +0.052 A 
ATOM      4  C   LIG    1       -2.404  -0.016   0.013  0.00  0.00    +0.026 A 
ATOM      5  C   LIG    1       -3.587  -0.722   0.015  0.00  0.00    +0.002 A 
ATOM      6  C   LIG    1       -3.583  -2.110   0.008  0.00  0.00    +0.001 A 
ATOM      7  C   LIG    1       -2.404  -2.801  -0.001  0.00  0.00    +0.010 A 
ATOM      8  C   LIG    1       -1.190  -2.104  -0.004  0.00  0.00    +0.002 A 
ATOM      9  C   LIG    1        0.085  -2.825  -0.013  0.00  0.00    +0.061 A 
ATOM     10  C   LIG    1        1.239  -2.109  -0.015  0.00  0.00    +0.182 A 
ATOM     11  C   LIG    1        1.182  -0.649  -0.013  0.00  0.00    +0.293 A 
ATOM     12  O   LIG    1        2.218  -0.007  -0.019  0.00  0.00    -0.264 OA
ENDROOT
BRANCH  10  13
ATOM     13  O   LIG    1        2.440  -2.747  -0.023  0.00  0.00    -0.502 OA
ATOM     14  H   LIG    1        2.373  -3.712  -0.028  0.00  0.00    +0.292 HD
ENDBRANCH  10  13
TORSDOF 1
