REMARK  Name = ZINC43208321
REMARK                            x       y       z     vdW  Elec       q    Type
REMARK                         _______ _______ _______ _____ _____    ______ ____
ROOT
ATOM      1  N   LIG    1       -2.319  -4.792  -4.856  0.00  0.00    -0.177 N 
ATOM      2  C   LIG    1       -1.644  -5.598  -3.968  0.00  0.00    +0.256 C 
ATOM      3  C   LIG    1       -1.103  -6.649  -4.728  0.00  0.00    +0.269 C 
ATOM      4  N   LIG    1       -1.465  -6.441  -6.019  0.00  0.00    -0.106 NA
ATOM      5  C   LIG    1       -0.354  -7.632  -4.061  0.00  0.00    +0.166 C 
ATOM      6  N   LIG    1       -0.192  -7.522  -2.747  0.00  0.00    -0.286 NA
ATOM      7  H   LIG    1        0.323  -8.194  -2.273  0.00  0.00    +0.125 HD
ATOM      8  C   LIG    1       -0.719  -6.516  -2.075  0.00  0.00    +0.169 C 
ATOM      9  N   LIG    1       -1.429  -5.572  -2.658  0.00  0.00    -0.271 NA
ATOM     10  H   LIG    1       -2.346  -5.578  -2.212  0.00  0.00    +0.126 HD
ATOM     11  C   LIG    1       -2.186  -5.350  -6.098  0.00  0.00    +0.371 C 
ENDROOT
BRANCH   1  15
ATOM     12  C   LIG    1       -3.299  -1.925  -2.914  0.00  0.00    +0.179 C 
ATOM     13  C   LIG    1       -4.678  -2.602  -3.038  0.00  0.00    +0.180 C 
ATOM     14  C   LIG    1       -4.394  -3.900  -3.834  0.00  0.00    +0.208 C 
ATOM     15  C   LIG    1       -3.050  -3.565  -4.530  0.00  0.00    +0.305 C 
ATOM     16  O   LIG    1       -2.337  -2.792  -3.538  0.00  0.00    -0.335 OA
BRANCH  13  17
ATOM     17  O   LIG    1       -5.585  -1.762  -3.754  0.00  0.00    -0.386 OA
ATOM     18  H   LIG    1       -6.469  -2.139  -3.861  0.00  0.00    +0.210 HD
ENDBRANCH  13  17
BRANCH  14  19
ATOM     19  O   LIG    1       -5.421  -4.143  -4.797  0.00  0.00    -0.383 OA
ATOM     20  H   LIG    1       -6.299  -4.268  -4.412  0.00  0.00    +0.210 HD
ENDBRANCH  14  19
BRANCH  12  21
ATOM     21  C   LIG    1       -2.945  -1.732  -1.438  0.00  0.00    +0.194 C 
BRANCH  21  22
ATOM     22  O   LIG    1       -1.718  -1.007  -1.334  0.00  0.00    -0.373 OA
BRANCH  22  23
ATOM     23  C   LIG    1       -1.295  -0.772   0.011  0.00  0.00    +0.195 C 
BRANCH  23  29
ATOM     24  C   LIG    1       -0.017   1.379   0.010  0.00  0.00    +0.007 A 
ATOM     25  C   LIG    1        1.167   2.088   0.002  0.00  0.00    +0.019 A 
ATOM     26  C   LIG    1        2.385   1.407  -0.013  0.00  0.00    +0.052 A 
ATOM     27  C   LIG    1        2.397   0.011  -0.021  0.00  0.00    +0.019 A 
ATOM     28  C   LIG    1        1.206  -0.686  -0.013  0.00  0.00    +0.007 A 
ATOM     29  C   LIG    1        0.002  -0.004   0.002  0.00  0.00    -0.022 A 
BRANCH  26  30
ATOM     30  C   LIG    1        3.617   2.136  -0.021  0.00  0.00    +0.099 C 
ATOM     31  N   LIG    1        4.595   2.715  -0.028  0.00  0.00    -0.191 NA
ENDBRANCH  26  30
ENDBRANCH  23  29
ENDBRANCH  22  23
ENDBRANCH  21  22
ENDBRANCH  12  21
ENDBRANCH   1  15
BRANCH   5  32
ATOM     32  N   LIG    1        0.203  -8.692  -4.758  0.00  0.00    -0.313 NA
ATOM     33  H   LIG    1        0.719  -9.365  -4.287  0.00  0.00    +0.120 HD
ATOM     34  H   LIG    1        0.078  -8.761  -5.718  0.00  0.00    +0.120 HD
ENDBRANCH   5  32
BRANCH  11  35
ATOM     35  N   LIG    1       -2.729  -4.839  -7.259  0.00  0.00    -0.234 N 
ATOM     36  H   LIG    1       -3.251  -4.022  -7.232  0.00  0.00    +0.245 HD
BRANCH  35  37
ATOM     37  C   LIG    1       -2.516  -5.531  -8.533  0.00  0.00    +0.220 C 
BRANCH  37  38
ATOM     38  C   LIG    1       -3.207  -4.774  -9.638  0.00  0.00    -0.015 A 
ATOM     39  C   LIG    1       -4.521  -5.064  -9.958  0.00  0.00    +0.008 A 
ATOM     40  C   LIG    1       -5.155  -4.371 -10.971  0.00  0.00    +0.022 A 
ATOM     41  C   LIG    1       -4.477  -3.385 -11.665  0.00  0.00    +0.059 A 
ATOM     42 CL   LIG    1       -5.274  -2.514 -12.938  0.00  0.00    -0.082 Cl
ATOM     43  C   LIG    1       -3.162  -3.094 -11.344  0.00  0.00    +0.060 A 
ATOM     44 CL   LIG    1       -2.309  -1.857 -12.214  0.00  0.00    -0.082 Cl
ATOM     45  C   LIG    1       -2.530  -3.785 -10.326  0.00  0.00    +0.028 A 
ENDBRANCH  37  38
ENDBRANCH  35  37
ENDBRANCH  11  35
TORSDOF 12
