REMARK  Name = ZINC15830292
REMARK                            x       y       z     vdW  Elec       q    Type
REMARK                         _______ _______ _______ _____ _____    ______ ____
ROOT
ATOM      1  C   LIG    1        1.185  -0.514  -0.012  0.00  0.00    +0.069 C 
ATOM      2  N   LIG    1        0.002  -0.004   0.002  0.00  0.00    -0.182 NA
ATOM      3  N   LIG    1       -0.017   1.389   0.010  0.00  0.00    -0.197 N 
ATOM      4  C   LIG    1        1.369   1.884  -0.001  0.00  0.00    +0.136 C 
ATOM      5  C   LIG    1        2.213   0.594  -0.016  0.00  0.00    +0.087 C 
ENDROOT
BRANCH   4   6
ATOM      6  C   LIG    1        1.654   2.690   1.240  0.00  0.00    -0.025 A 
ATOM      7  C   LIG    1        1.128   2.295   2.456  0.00  0.00    +0.007 A 
ATOM      8  C   LIG    1        1.394   3.030   3.596  0.00  0.00    +0.020 A 
ATOM      9  C   LIG    1        2.177   4.168   3.518  0.00  0.00    +0.041 A 
ATOM     10 CL   LIG    1        2.506   5.096   4.947  0.00  0.00    -0.084 Cl
ATOM     11  C   LIG    1        2.698   4.566   2.299  0.00  0.00    +0.020 A 
ATOM     12  C   LIG    1        2.437   3.826   1.161  0.00  0.00    +0.007 A 
ENDBRANCH   4   6
BRANCH   1  16
ATOM     13  C   LIG    1        2.060  -4.668  -0.040  0.00  0.00    +0.000 A 
ATOM     14  C   LIG    1        0.743  -4.241  -0.026  0.00  0.00    +0.001 A 
ATOM     15  C   LIG    1        0.452  -2.893  -0.017  0.00  0.00    +0.010 A 
ATOM     16  C   LIG    1        1.489  -1.958  -0.022  0.00  0.00    -0.002 A 
ATOM     17  C   LIG    1        2.815  -2.395  -0.042  0.00  0.00    +0.010 A 
ATOM     18  C   LIG    1        3.092  -3.746  -0.045  0.00  0.00    +0.001 A 
ENDBRANCH   1  16
BRANCH   3  19
ATOM     19  C   LIG    1       -1.124   2.158   0.019  0.00  0.00    +0.151 C 
ATOM     20  S   LIG    1       -0.981   3.864   0.027  0.00  0.00    -0.017 S 
BRANCH  19  21
ATOM     21  N   LIG    1       -2.343   1.584   0.023  0.00  0.00    -0.339 N 
ATOM     22  H   LIG    1       -3.140   2.138   0.030  0.00  0.00    +0.144 HD
ATOM     23  H   LIG    1       -2.424   0.618   0.018  0.00  0.00    +0.144 HD
ENDBRANCH  19  21
ENDBRANCH   3  19
TORSDOF 4
