REMARK  Name = ZINC13779792
REMARK                            x       y       z     vdW  Elec       q    Type
REMARK                         _______ _______ _______ _____ _____    ______ ____
ROOT
ATOM      1  C   LIG    1        4.048  -1.373  -0.042  0.00  0.00    -0.042 A 
ATOM      2  C   LIG    1        3.405  -1.158   1.162  0.00  0.00    +0.004 A 
ATOM      3  C   LIG    1        2.095  -0.715   1.176  0.00  0.00    +0.004 A 
ATOM      4  C   LIG    1        1.429  -0.487  -0.014  0.00  0.00    -0.036 A 
ATOM      5  C   LIG    1        2.071  -0.708  -1.218  0.00  0.00    +0.004 A 
ATOM      6  C   LIG    1        3.382  -1.146  -1.232  0.00  0.00    +0.004 A 
ENDROOT
BRANCH   1   8
ATOM      7  C   LIG    1        5.566  -3.205   0.656  0.00  0.00    +0.015 C 
ATOM      8  C   LIG    1        5.476  -1.855  -0.058  0.00  0.00    -0.013 C 
ATOM      9  C   LIG    1        6.365  -0.838   0.660  0.00  0.00    +0.015 C 
ATOM     10  C   LIG    1        5.946  -2.012  -1.506  0.00  0.00    +0.015 C 
ENDBRANCH   1   8
BRANCH   4  11
ATOM     11  C   LIG    1        0.002  -0.004   0.002  0.00  0.00    +0.158 C 
BRANCH  11  12
ATOM     12  C   LIG    1       -0.018   1.503   0.010  0.00  0.00    +0.243 C 
ATOM     13  N   LIG    1        1.056   2.208   0.004  0.00  0.00    -0.275 N 
ATOM     14  H   LIG    1        2.010   1.830  -0.007  0.00  0.00    +0.304 HD
ATOM     15  C   LIG    1        0.713   3.641   0.015  0.00  0.00    +0.276 C 
ATOM     16  C   LIG    1       -0.829   3.655   0.030  0.00  0.00    +0.268 C 
ATOM     17  N   LIG    1       -1.175   2.224   0.019  0.00  0.00    -0.237 N 
ATOM     18  H   LIG    1       -2.073   1.856   0.021  0.00  0.00    +0.291 HD
ENDBRANCH  11  12
ENDBRANCH   4  11
TORSDOF 3
