REMARK  Name = ZINC13782477
REMARK                            x       y       z     vdW  Elec       q    Type
REMARK                         _______ _______ _______ _____ _____    ______ ____
ROOT
ATOM      1  C   LIG    1       -0.017   1.383   0.010  0.00  0.00    +0.004 A 
ATOM      2  C   LIG    1        1.161   2.099   0.002  0.00  0.00    +0.015 A 
ATOM      3  C   LIG    1        2.378   1.422  -0.013  0.00  0.00    +0.068 A 
ATOM      4  C   LIG    1        2.401   0.017  -0.021  0.00  0.00    +0.095 A 
ATOM      5  N   LIG    1        3.627  -0.624  -0.036  0.00  0.00    -0.336 N 
ATOM      6  H   LIG    1        3.665  -1.593  -0.042  0.00  0.00    +0.167 HD
ATOM      7  C   LIG    1        4.779   0.100  -0.044  0.00  0.00    +0.143 A 
ATOM      8  N   LIG    1        4.798   1.415  -0.037  0.00  0.00    -0.191 NA
ATOM      9  C   LIG    1        1.202  -0.692  -0.013  0.00  0.00    +0.141 A 
ATOM     10  C   LIG    1        3.668   2.138  -0.022  0.00  0.00    +0.281 A 
ATOM     11  O   LIG    1        3.705   3.356  -0.016  0.00  0.00    -0.265 OA
ATOM     12  C   LIG    1        0.002  -0.004   0.002  0.00  0.00    +0.047 A 
ENDROOT
BRANCH   7  13
ATOM     13  C   LIG    1        6.064  -0.624  -0.060  0.00  0.00    +0.018 A 
ATOM     14  C   LIG    1        6.082  -2.021  -0.073  0.00  0.00    +0.015 A 
ATOM     15  C   LIG    1        7.284  -2.693  -0.088  0.00  0.00    +0.046 A 
ATOM     16  C   LIG    1        8.479  -1.982  -0.090  0.00  0.00    +0.117 A 
ATOM     17  C   LIG    1        8.466  -0.592  -0.076  0.00  0.00    +0.046 A 
ATOM     18  C   LIG    1        7.268   0.087  -0.068  0.00  0.00    +0.015 A 
BRANCH  16  19
ATOM     19  O   LIG    1        9.662  -2.648  -0.104  0.00  0.00    -0.507 OA
ATOM     20  H   LIG    1        9.999  -2.833  -0.992  0.00  0.00    +0.292 HD
ENDBRANCH  16  19
ENDBRANCH   7  13
BRANCH   9  21
ATOM     21  O   LIG    1        1.212  -2.052  -0.021  0.00  0.00    -0.505 OA
ATOM     22  H   LIG    1        2.026  -2.515  -0.031  0.00  0.00    +0.292 HD
ENDBRANCH   9  21
TORSDOF 3
