REMARK  Name = ZINC17298255
REMARK                            x       y       z     vdW  Elec       q    Type
REMARK                         _______ _______ _______ _____ _____    ______ ____
ROOT
ATOM      1  N   LIG    1       -0.011   0.966   0.007  0.00  0.00    -0.310 N 
ATOM      2  H   LIG    1        0.002  -0.004   0.002  0.00  0.00    +0.149 HD
ATOM      3  C   LIG    1        1.147   1.655   0.000  0.00  0.00    +0.260 C 
ATOM      4  O   LIG    1        1.130   2.872   0.007  0.00  0.00    -0.269 OA
ENDROOT
BRANCH   3   5
ATOM      5  C   LIG    1        2.430   0.938  -0.016  0.00  0.00    +0.103 A 
ATOM      6  C   LIG    1        3.658   1.519  -0.031  0.00  0.00    +0.040 A 
ATOM      7  C   LIG    1        4.625   0.485  -0.040  0.00  0.00    +0.000 A 
ATOM      8  C   LIG    1        6.026   0.478  -0.053  0.00  0.00    +0.010 A 
ATOM      9  C   LIG    1        6.698  -0.709  -0.066  0.00  0.00    +0.001 A 
ATOM     10  C   LIG    1        6.006  -1.914  -0.066  0.00  0.00    +0.002 A 
ATOM     11  C   LIG    1        4.630  -1.933  -0.052  0.00  0.00    +0.026 A 
ATOM     12  C   LIG    1        3.921  -0.735  -0.039  0.00  0.00    +0.047 A 
ATOM     13  N   LIG    1        2.580  -0.436  -0.025  0.00  0.00    -0.351 N 
ATOM     14  H   LIG    1        1.857  -1.082  -0.022  0.00  0.00    +0.166 HD
ENDBRANCH   3   5
BRANCH   1  15
ATOM     15  C   LIG    1       -1.290   1.681   0.017  0.00  0.00    +0.105 C 
BRANCH  15  16
ATOM     16  C   LIG    1       -2.439   0.671   0.017  0.00  0.00    +0.023 C 
BRANCH  16  17
ATOM     17  C   LIG    1       -3.774   1.418   0.028  0.00  0.00    +0.036 C 
BRANCH  17  21
ATOM     18  C   LIG    1       -6.983  -1.401   0.028  0.00  0.00    +0.000 A 
ATOM     19  C   LIG    1       -6.458  -0.952   1.225  0.00  0.00    +0.000 A 
ATOM     20  C   LIG    1       -5.420  -0.040   1.225  0.00  0.00    +0.003 A 
ATOM     21  C   LIG    1       -4.906   0.423   0.028  0.00  0.00    -0.047 A 
ATOM     22  C   LIG    1       -5.435  -0.022  -1.169  0.00  0.00    +0.003 A 
ATOM     23  C   LIG    1       -6.470  -0.938  -1.169  0.00  0.00    +0.000 A 
ENDBRANCH  17  21
ENDBRANCH  16  17
ENDBRANCH  15  16
ENDBRANCH   1  15
TORSDOF 5
