REMARK  Name = ZINC00004085
REMARK                            x       y       z     vdW  Elec       q    Type
REMARK                         _______ _______ _______ _____ _____    ______ ____
ROOT
ATOM      1  C   LIG    1       -0.013   1.086   0.008  0.00  0.00    +0.129 C 
ENDROOT
BRANCH   1   2
ATOM      2  N   LIG    1       -0.721   1.571  -1.179  0.00  0.00    -0.326 N 
ATOM      3  C   LIG    1       -1.679   0.873  -1.899  0.00  0.00    +0.105 A 
ATOM      4  C   LIG    1       -2.084   1.648  -2.899  0.00  0.00    +0.102 A 
ATOM      5  N   LIG    1       -1.382   2.841  -2.826  0.00  0.00    -0.340 N 
ATOM      6  H   LIG    1       -1.471   3.593  -3.432  0.00  0.00    +0.167 HD
ATOM      7  C   LIG    1       -0.553   2.772  -1.766  0.00  0.00    +0.158 A 
ATOM      8  S   LIG    1        0.527   3.999  -1.253  0.00  0.00    -0.013 S 
ENDBRANCH   1   2
BRANCH   1   9
ATOM      9  C   LIG    1       -0.729   1.579   1.267  0.00  0.00    +0.064 C 
BRANCH   9  12
ATOM     10  C   LIG    1        1.531   1.016   4.282  0.00  0.00    +0.008 A 
ATOM     11  C   LIG    1        1.009   1.665   3.178  0.00  0.00    +0.011 A 
ATOM     12  C   LIG    1        0.000   1.080   2.488  0.00  0.00    -0.009 A 
ATOM     13  S   LIG    1       -0.247  -0.432   3.405  0.00  0.00    -0.102 S 
ATOM     14  C   LIG    1        1.018  -0.186   4.641  0.00  0.00    +0.045 A 
ENDBRANCH   9  12
ENDBRANCH   1   9
TORSDOF 3
