REMARK  Name = ZINC45259223
REMARK                            x       y       z     vdW  Elec       q    Type
REMARK                         _______ _______ _______ _____ _____    ______ ____
ROOT
ATOM      1  C   LIG    1       -2.097  -4.337   0.070  0.00  0.00    +0.251 C 
ATOM      2  C   LIG    1       -3.318  -5.208  -0.088  0.00  0.00    +0.028 A 
ATOM      3  C   LIG    1       -4.375  -4.800  -0.870  0.00  0.00    +0.019 A 
ATOM      4  C   LIG    1       -5.490  -5.628  -1.013  0.00  0.00    +0.000 A 
ATOM      5  C   LIG    1       -5.528  -6.864  -0.365  0.00  0.00    +0.012 A 
ATOM      6  C   LIG    1       -4.468  -7.263   0.421  0.00  0.00    +0.024 A 
ATOM      7  C   LIG    1       -3.363  -6.435   0.566  0.00  0.00    +0.044 A 
ATOM      8  N   LIG    1       -2.292  -6.808   1.384  0.00  0.00    -0.251 N 
ATOM      9  H   LIG    1       -2.232  -7.712   1.730  0.00  0.00    +0.158 HD
ATOM     10  C   LIG    1       -1.343  -5.900   1.689  0.00  0.00    +0.406 C 
ATOM     11  O   LIG    1       -0.345  -6.250   2.289  0.00  0.00    -0.226 OA
ATOM     12  O   LIG    1       -1.489  -4.610   1.335  0.00  0.00    -0.428 OA
ENDROOT
BRANCH   4  13
ATOM     13  C   LIG    1       -6.631  -5.195  -1.850  0.00  0.00    +0.066 A 
ATOM     14  C   LIG    1       -7.783  -5.896  -2.074  0.00  0.00    +0.049 A 
ATOM     15  C   LIG    1       -8.591  -5.132  -2.916  0.00  0.00    +0.135 A 
ATOM     16  N   LIG    1       -7.966  -4.017  -3.196  0.00  0.00    -0.182 NA
ATOM     17  N   LIG    1       -6.730  -4.022  -2.536  0.00  0.00    -0.277 N 
ATOM     18  H   LIG    1       -6.064  -3.317  -2.564  0.00  0.00    +0.189 HD
ENDBRANCH   4  13
BRANCH   1  19
ATOM     19  C   LIG    1       -1.101  -4.639  -1.052  0.00  0.00    +0.435 C 
ATOM     20  F   LIG    1       -1.654  -4.262  -2.280  0.00  0.00    -0.166 F 
ATOM     21  F   LIG    1       -0.820  -6.010  -1.068  0.00  0.00    -0.166 F 
ATOM     22  F   LIG    1        0.080  -3.923  -0.832  0.00  0.00    -0.166 F 
ENDBRANCH   1  19
BRANCH   1  23
ATOM     23  C   LIG    1       -2.507  -2.864   0.007  0.00  0.00    +0.167 C 
BRANCH  23  25
ATOM     24  C   LIG    1       -3.913  -1.322   1.264  0.00  0.00    +0.244 C 
ATOM     25  N   LIG    1       -3.480  -2.583   1.065  0.00  0.00    -0.307 N 
ATOM     26  H   LIG    1       -3.812  -3.303   1.623  0.00  0.00    +0.149 HD
ATOM     27  O   LIG    1       -3.497  -0.418   0.566  0.00  0.00    -0.270 OA
BRANCH  24  34
ATOM     28  C   LIG    1       -5.345   0.268   2.540  0.00  0.00    +0.016 A 
ATOM     29  C   LIG    1       -6.261   0.527   3.537  0.00  0.00    +0.039 A 
ATOM     30  C   LIG    1       -6.735  -0.505   4.332  0.00  0.00    +0.123 A 
ATOM     31  F   LIG    1       -7.633  -0.246   5.308  0.00  0.00    -0.205 F 
ATOM     32  C   LIG    1       -6.291  -1.803   4.130  0.00  0.00    +0.039 A 
ATOM     33  C   LIG    1       -5.375  -2.074   3.136  0.00  0.00    +0.016 A 
ATOM     34  C   LIG    1       -4.894  -1.038   2.332  0.00  0.00    +0.037 A 
ENDBRANCH  24  34
ENDBRANCH  23  25
ENDBRANCH   1  23
TORSDOF 5
