REMARK  Name = ZINC14954335
REMARK                            x       y       z     vdW  Elec       q    Type
REMARK                         _______ _______ _______ _____ _____    ______ ____
ROOT
ATOM      1  C   LIG    1       -3.592   2.942  -0.167  0.00  0.00    +0.132 A 
ATOM      2  C   LIG    1       -3.554   1.559  -0.050  0.00  0.00    +0.046 A 
ATOM      3  C   LIG    1       -4.730   0.836   0.014  0.00  0.00    +0.005 A 
ATOM      4  C   LIG    1       -5.948   1.487  -0.037  0.00  0.00    +0.023 A 
ATOM      5  C   LIG    1       -5.992   2.871  -0.154  0.00  0.00    +0.037 A 
ATOM      6  C   LIG    1       -4.812   3.599  -0.214  0.00  0.00    +0.069 A 
ENDROOT
BRANCH   5   7
ATOM      7  N   LIG    1       -7.225   3.530  -0.205  0.00  0.00    -0.281 N 
ATOM      8  H   LIG    1       -7.975   3.196   0.311  0.00  0.00    +0.155 HD
ATOM      9  C   LIG    1       -7.370   4.628  -0.973  0.00  0.00    +0.248 C 
ATOM     10  O   LIG    1       -6.409   5.096  -1.552  0.00  0.00    -0.270 OA
BRANCH   9  11
ATOM     11  C   LIG    1       -8.695   5.263  -1.110  0.00  0.00    +0.037 A 
ATOM     12  C   LIG    1       -9.802   4.723  -0.449  0.00  0.00    +0.016 A 
ATOM     13  C   LIG    1      -11.036   5.320  -0.576  0.00  0.00    +0.046 A 
ATOM     14  C   LIG    1      -11.184   6.453  -1.368  0.00  0.00    +0.120 A 
ATOM     15  C   LIG    1      -10.086   6.990  -2.030  0.00  0.00    +0.046 A 
ATOM     16  C   LIG    1       -8.848   6.402  -1.905  0.00  0.00    +0.016 A 
BRANCH  14  17
ATOM     17  O   LIG    1      -12.403   7.036  -1.495  0.00  0.00    -0.494 OA
BRANCH  17  18
ATOM     18  C   LIG    1      -13.487   6.432  -0.787  0.00  0.00    +0.210 C 
BRANCH  18  19
ATOM     19  C   LIG    1      -14.771   7.223  -1.050  0.00  0.00    -0.037 C 
BRANCH  19  20
ATOM     20  N   LIG    1      -15.109   7.116  -2.485  0.00  0.00    +0.385 N 
ATOM     21  H   LIG    1      -14.251   7.219  -3.039  0.00  0.00    -0.081 HD
ATOM     22  C   LIG    1      -15.707   5.794  -2.767  0.00  0.00    -0.050 C 
ATOM     23  C   LIG    1      -16.013   5.702  -4.264  0.00  0.00    +0.141 C 
ATOM     24  O   LIG    1      -16.888   6.771  -4.634  0.00  0.00    -0.383 OA
ATOM     25  C   LIG    1      -16.358   8.070  -4.359  0.00  0.00    +0.141 C 
ATOM     26  C   LIG    1      -16.056   8.186  -2.862  0.00  0.00    -0.050 C 
ENDBRANCH  19  20
ENDBRANCH  18  19
ENDBRANCH  17  18
ENDBRANCH  14  17
ENDBRANCH   9  11
ENDBRANCH   5   7
BRANCH   1  27
ATOM     27  O   LIG    1       -2.435   3.651  -0.230  0.00  0.00    -0.438 OA
BRANCH  27  31
ATOM     28  N   LIG    1        1.220   5.014  -3.205  0.00  0.00    -0.324 N 
ATOM     29  C   LIG    1        0.096   4.389  -2.721  0.00  0.00    +0.074 A 
ATOM     30  C   LIG    1       -0.609   4.422  -1.525  0.00  0.00    +0.095 A 
ATOM     31  C   LIG    1       -1.736   3.629  -1.393  0.00  0.00    +0.223 A 
ATOM     32  N   LIG    1       -2.148   2.852  -2.386  0.00  0.00    -0.219 NA
ATOM     33  C   LIG    1       -1.512   2.782  -3.537  0.00  0.00    +0.142 A 
ATOM     34  C   LIG    1       -0.366   3.548  -3.756  0.00  0.00    +0.083 A 
ATOM     35  N   LIG    1        0.483   3.699  -4.800  0.00  0.00    -0.337 N 
ATOM     36  H   LIG    1        0.406   3.213  -5.701  0.00  0.00    +0.167 HD
ATOM     37  C   LIG    1        1.419   4.559  -4.483  0.00  0.00    +0.145 A 
BRANCH  37  38
ATOM     38  C   LIG    1        2.525   4.978  -5.373  0.00  0.00    +0.189 A 
ATOM     39  C   LIG    1        2.820   4.538  -6.756  0.00  0.00    +0.191 A 
ATOM     40  N   LIG    1        3.898   5.226  -7.051  0.00  0.00    -0.033 NA
ATOM     41  O   LIG    1        4.210   5.911  -6.106  0.00  0.00    -0.240 OA
ATOM     42  N   LIG    1        3.498   5.831  -5.132  0.00  0.00    -0.044 NA
BRANCH  39  43
ATOM     43  N   LIG    1        2.127   3.628  -7.545  0.00  0.00    -0.339 N 
ATOM     44  H   LIG    1        2.436   3.432  -8.443  0.00  0.00    +0.144 HD
ATOM     45  H   LIG    1        1.335   3.189  -7.197  0.00  0.00    +0.144 HD
ENDBRANCH  39  43
ENDBRANCH  37  38
BRANCH  28  47
ATOM     46  C   LIG    1        3.156   5.250  -1.729  0.00  0.00    +0.027 C 
ATOM     47  C   LIG    1        2.051   5.986  -2.489  0.00  0.00    +0.120 C 
ENDBRANCH  28  47
ENDBRANCH  27  31
ENDBRANCH   1  27
TORSDOF 11
