REMARK  Name = ZINC13781168
REMARK                            x       y       z     vdW  Elec       q    Type
REMARK                         _______ _______ _______ _____ _____    ______ ____
ROOT
ATOM      1  C   LIG    1       -0.019   1.526   0.010  0.00  0.00    +0.057 C 
ATOM      2  C   LIG    1        0.002  -0.004   0.002  0.00  0.00    +0.170 C 
ATOM      3  C   LIG    1       -1.440  -0.561   0.048  0.00  0.00    +0.060 C 
ATOM      4  C   LIG    1       -1.620  -0.790   1.568  0.00  0.00    +0.127 C 
ATOM      5  C   LIG    1       -0.205  -0.941   2.082  0.00  0.00    +0.236 C 
ATOM      6  N   LIG    1        0.650  -0.511   1.217  0.00  0.00    -0.277 N 
ATOM      7  H   LIG    1        1.610  -0.522   1.353  0.00  0.00    +0.304 HD
ENDROOT
BRANCH   5   8
ATOM      8  N   LIG    1        0.125  -1.465   3.303  0.00  0.00    -0.254 N 
ATOM      9  H   LIG    1        1.056  -1.531   3.567  0.00  0.00    +0.288 HD
ATOM     10  H   LIG    1       -0.572  -1.770   3.905  0.00  0.00    +0.288 HD
ENDBRANCH   5   8
TORSDOF 1
