REMARK  Name = ZINC21981239
REMARK                            x       y       z     vdW  Elec       q    Type
REMARK                         _______ _______ _______ _____ _____    ______ ____
ROOT
ATOM      1  C   LIG    1       -0.037  -0.032  -0.270  0.00  0.00    +0.095 C 
ENDROOT
BRANCH   1   2
ATOM      2  C   LIG    1        0.925  -0.329   0.850  0.00  0.00    -0.028 A 
ATOM      3  C   LIG    1        1.532   0.708   1.534  0.00  0.00    +0.005 A 
ATOM      4  C   LIG    1        2.412   0.434   2.565  0.00  0.00    +0.000 A 
ATOM      5  C   LIG    1        2.692  -0.876   2.905  0.00  0.00    +0.000 A 
ATOM      6  C   LIG    1        2.090  -1.913   2.218  0.00  0.00    +0.000 A 
ATOM      7  C   LIG    1        1.206  -1.639   1.190  0.00  0.00    +0.005 A 
ENDBRANCH   1   2
BRANCH   1   8
ATOM      8  C   LIG    1        0.058   1.426  -0.640  0.00  0.00    -0.028 A 
ATOM      9  C   LIG    1       -1.013   2.269  -0.411  0.00  0.00    +0.005 A 
ATOM     10  C   LIG    1       -0.924   3.607  -0.746  0.00  0.00    +0.000 A 
ATOM     11  C   LIG    1        0.233   4.100  -1.320  0.00  0.00    +0.000 A 
ATOM     12  C   LIG    1        1.303   3.256  -1.554  0.00  0.00    +0.000 A 
ATOM     13  C   LIG    1        1.215   1.919  -1.214  0.00  0.00    +0.005 A 
ENDBRANCH   1   8
BRANCH   1  17
ATOM     14  C   LIG    1       -0.086  -1.602  -3.761  0.00  0.00    +0.128 C 
ATOM     15  N   LIG    1       -0.422  -0.780  -2.596  0.00  0.00    -0.317 N 
ATOM     16  H   LIG    1       -1.271  -0.082  -2.643  0.00  0.00    +0.148 HD
ATOM     17  C   LIG    1        0.309  -0.878  -1.468  0.00  0.00    +0.228 C 
ATOM     18  O   LIG    1        1.245  -1.647  -1.417  0.00  0.00    -0.274 OA
ENDBRANCH   1  17
BRANCH   1  19
ATOM     19  C   LIG    1       -1.463  -0.350   0.184  0.00  0.00    +0.007 C 
BRANCH  19  20
ATOM     20  C   LIG    1       -1.597  -1.854   0.428  0.00  0.00    -0.077 C 
BRANCH  20  21
ATOM     21  N   LIG    1       -2.998  -2.180   0.721  0.00  0.00    +0.380 N 
ATOM     22  H   LIG    1       -3.621  -1.754  -0.079  0.00  0.00    -0.082 HD
ATOM     23  C   LIG    1       -3.425  -1.576   1.990  0.00  0.00    -0.076 C 
ATOM     24  C   LIG    1       -4.924  -1.813   2.190  0.00  0.00    +0.021 C 
ATOM     25  C   LIG    1       -5.201  -3.319   2.202  0.00  0.00    +0.088 C 
ATOM     26  C   LIG    1       -4.703  -3.932   0.890  0.00  0.00    +0.021 C 
ATOM     27  C   LIG    1       -3.211  -3.634   0.728  0.00  0.00    -0.076 C 
BRANCH  25  28
ATOM     28  C   LIG    1       -6.682  -3.559   2.340  0.00  0.00    -0.016 A 
ATOM     29  C   LIG    1       -7.476  -3.647   1.212  0.00  0.00    +0.008 A 
ATOM     30  C   LIG    1       -8.834  -3.873   1.337  0.00  0.00    +0.020 A 
ATOM     31  C   LIG    1       -9.400  -4.000   2.593  0.00  0.00    +0.041 A 
ATOM     32 CL   LIG    1      -11.106  -4.277   2.752  0.00  0.00    -0.084 Cl
ATOM     33  C   LIG    1       -8.606  -3.907   3.723  0.00  0.00    +0.020 A 
ATOM     34  C   LIG    1       -7.247  -3.686   3.595  0.00  0.00    +0.008 A 
ENDBRANCH  25  28
BRANCH  25  35
ATOM     35  O   LIG    1       -4.515  -3.922   3.302  0.00  0.00    -0.384 OA
ATOM     36  H   LIG    1       -4.596  -5.005   3.473  0.00  0.00    +0.211 HD
ENDBRANCH  25  35
ENDBRANCH  20  21
ENDBRANCH  19  20
ENDBRANCH   1  19
TORSDOF 8
