REMARK  Name = ZINC22453679
REMARK                            x       y       z     vdW  Elec       q    Type
REMARK                         _______ _______ _______ _____ _____    ______ ____
ROOT
ATOM      1  C   LIG    1        3.759  -8.246  -3.439  0.00  0.00    +0.055 C 
ATOM      2  N   LIG    1        4.702  -8.938  -2.873  0.00  0.00    -0.231 NA
ATOM      3  C   LIG    1        4.527 -10.282  -2.961  0.00  0.00    +0.161 A 
ATOM      4  C   LIG    1        3.348 -10.569  -3.655  0.00  0.00    +0.042 A 
ATOM      5  C   LIG    1        2.978 -11.885  -3.859  0.00  0.00    +0.128 A 
ATOM      6  N   LIG    1        3.766 -12.851  -3.381  0.00  0.00    -0.221 NA
ATOM      7  C   LIG    1        4.873 -12.553  -2.730  0.00  0.00    +0.225 A 
ATOM      8  N   LIG    1        5.258 -11.313  -2.518  0.00  0.00    -0.216 NA
ATOM      9  C   LIG    1        2.757  -9.228  -4.014  0.00  0.00    +0.098 C 
ENDROOT
BRANCH   1  13
ATOM     10  C   LIG    1        3.518  -4.015  -3.630  0.00  0.00    -0.033 A 
ATOM     11  C   LIG    1        4.591  -4.616  -2.995  0.00  0.00    +0.005 A 
ATOM     12  C   LIG    1        4.677  -5.990  -2.929  0.00  0.00    +0.010 A 
ATOM     13  C   LIG    1        3.675  -6.778  -3.505  0.00  0.00    -0.003 A 
ATOM     14  C   LIG    1        2.594  -6.163  -4.145  0.00  0.00    +0.010 A 
ATOM     15  C   LIG    1        2.521  -4.787  -4.198  0.00  0.00    +0.005 A 
BRANCH  10  16
ATOM     16  C   LIG    1        3.433  -2.512  -3.697  0.00  0.00    +0.119 C 
BRANCH  16  21
ATOM     17  N   LIG    1        0.690  -0.478  -1.207  0.00  0.00    +0.381 N 
ATOM     18  H   LIG    1        0.251  -0.077  -2.022  0.00  0.00    -0.082 HD
ATOM     19  C   LIG    1        2.100  -0.069  -1.160  0.00  0.00    -0.063 C 
ATOM     20  C   LIG    1        2.812  -0.546  -2.427  0.00  0.00    +0.066 C 
ATOM     21  N   LIG    1        2.711  -2.009  -2.521  0.00  0.00    -0.302 NA
ATOM     22  C   LIG    1        1.305  -2.435  -2.544  0.00  0.00    +0.066 C 
ATOM     23  C   LIG    1        0.605  -1.943  -1.275  0.00  0.00    -0.063 C 
BRANCH  17  25
ATOM     24  C   LIG    1       -0.019   1.526   0.010  0.00  0.00    -0.017 C 
ATOM     25  C   LIG    1        0.002  -0.004   0.002  0.00  0.00    -0.082 C 
ENDBRANCH  17  25
ENDBRANCH  16  21
ENDBRANCH  10  16
ENDBRANCH   1  13
BRANCH   5  26
ATOM     26  N   LIG    1        1.813 -12.195  -4.544  0.00  0.00    -0.322 N 
ATOM     27  H   LIG    1        1.248 -11.485  -4.886  0.00  0.00    +0.148 HD
BRANCH  26  28
ATOM     28  C   LIG    1        1.436 -13.595  -4.750  0.00  0.00    +0.099 C 
ATOM     29  C   LIG    1        2.139 -14.134  -5.998  0.00  0.00    +0.033 C 
BRANCH  28  30
ATOM     30  C   LIG    1       -0.057 -13.691  -4.934  0.00  0.00    -0.028 A 
ATOM     31  C   LIG    1       -0.724 -12.741  -5.684  0.00  0.00    +0.005 A 
ATOM     32  C   LIG    1       -2.093 -12.829  -5.853  0.00  0.00    +0.000 A 
ATOM     33  C   LIG    1       -2.795 -13.868  -5.271  0.00  0.00    +0.000 A 
ATOM     34  C   LIG    1       -2.128 -14.819  -4.522  0.00  0.00    +0.000 A 
ATOM     35  C   LIG    1       -0.758 -14.733  -4.357  0.00  0.00    +0.005 A 
ENDBRANCH  28  30
ENDBRANCH  26  28
ENDBRANCH   5  26
TORSDOF 7
