REMARK  Name = ZINC27646915
REMARK                            x       y       z     vdW  Elec       q    Type
REMARK                         _______ _______ _______ _____ _____    ______ ____
ROOT
ATOM      1  C   LIG    1        2.462   0.385  -2.220  0.00  0.00    +0.105 A 
ATOM      2  C   LIG    1        2.786  -0.157  -3.406  0.00  0.00    +0.044 A 
ATOM      3  I   LIG    1        3.593   0.847  -5.058  0.00  0.00    -0.041 I 
ATOM      4  C   LIG    1        2.465  -1.581  -3.322  0.00  0.00    +0.071 A 
ATOM      5  C   LIG    1        2.561  -2.674  -4.196  0.00  0.00    +0.130 A 
ATOM      6  N   LIG    1        2.175  -3.869  -3.757  0.00  0.00    -0.220 NA
ATOM      7  C   LIG    1        1.699  -4.023  -2.534  0.00  0.00    +0.225 A 
ATOM      8  N   LIG    1        1.586  -3.026  -1.684  0.00  0.00    -0.218 NA
ATOM      9  C   LIG    1        1.955  -1.793  -2.028  0.00  0.00    +0.149 A 
ATOM     10  N   LIG    1        1.961  -0.585  -1.388  0.00  0.00    -0.302 N 
ENDROOT
BRANCH  10  11
ATOM     11  C1* LIG    1        1.506  -0.359  -0.014  0.00  0.00    +0.252 C 
ATOM     12  C2* LIG    1       -0.036  -0.262   0.032  0.00  0.00    +0.195 C 
ATOM     13  C3* LIG    1       -0.319   1.255  -0.042  0.00  0.00    +0.178 C 
ATOM     14  C4* LIG    1        1.084   1.895  -0.124  0.00  0.00    +0.177 C 
ATOM     15  O4* LIG    1        1.970   0.920   0.469  0.00  0.00    -0.346 OA
BRANCH  12  16
ATOM     16  O2* LIG    1       -0.613  -0.935  -1.089  0.00  0.00    -0.385 OA
ATOM     17  H2* LIG    1       -1.706  -0.962  -1.210  0.00  0.00    +0.210 HD
ENDBRANCH  12  16
BRANCH  13  18
ATOM     18  O3* LIG    1       -1.080   1.566  -1.211  0.00  0.00    -0.386 OA
ATOM     19  H3* LIG    1       -1.370   2.606  -1.418  0.00  0.00    +0.210 HD
ENDBRANCH  13  18
BRANCH  14  20
ATOM     20  C5* LIG    1        1.121   3.201   0.671  0.00  0.00    +0.190 C 
BRANCH  20  21
ATOM     21  O5* LIG    1        2.389   3.836   0.488  0.00  0.00    -0.392 OA
ATOM     22  H5* LIG    1        2.602   4.793   0.986  0.00  0.00    +0.210 HD
ENDBRANCH  20  21
ENDBRANCH  14  20
ENDBRANCH  10  11
BRANCH   5  23
ATOM     23  N   LIG    1        3.061  -2.517  -5.476  0.00  0.00    -0.343 N 
ATOM     24  H   LIG    1        3.388  -1.525  -5.821  0.00  0.00    +0.144 HD
ATOM     25  H   LIG    1        3.130  -3.384  -6.150  0.00  0.00    +0.144 HD
ENDBRANCH   5  23
TORSDOF 6
