REMARK  Name = ZINC18115268
REMARK                            x       y       z     vdW  Elec       q    Type
REMARK                         _______ _______ _______ _____ _____    ______ ____
ROOT
ATOM      1  C   LIG    1        1.521   0.233  -4.894  0.00  0.00    +0.110 C 
ENDROOT
BRANCH   1   2
ATOM      2  S   LIG    1        1.692  -0.311  -3.172  0.00  0.00    -0.151 S 
BRANCH   2   3
ATOM      3  C   LIG    1        0.000  -0.736  -2.676  0.00  0.00    +0.126 C 
BRANCH   3   6
ATOM      4  C   LIG    1       -0.364   1.056  -0.135  0.00  0.00    +0.065 C 
ATOM      5  C   LIG    1       -0.156  -0.436  -0.155  0.00  0.00    +0.036 A 
ATOM      6  C   LIG    1        0.001  -1.211  -1.245  0.00  0.00    +0.072 A 
ATOM      7  N   LIG    1        0.158  -2.478  -0.835  0.00  0.00    -0.240 NA
ATOM      8  C   LIG    1        0.104  -2.518   0.468  0.00  0.00    +0.197 A 
ATOM      9  N   LIG    1       -0.085  -1.264   0.933  0.00  0.00    -0.348 N 
ATOM     10  H   LIG    1       -0.159  -1.000   1.863  0.00  0.00    +0.166 HD
ENDBRANCH   3   6
ENDBRANCH   2   3
ENDBRANCH   1   2
BRANCH   1  11
ATOM     11  C   LIG    1        2.893   0.627  -5.444  0.00  0.00    +0.254 C 
BRANCH  11  12
ATOM     12  N   LIG    1        2.754   1.067  -6.835  0.00  0.00    -0.112 NA
ATOM     13  C   LIG    1        3.046   2.293  -7.162  0.00  0.00    +0.395 C 
BRANCH  13  14
ATOM     14  N   LIG    1        3.606   3.138  -6.233  0.00  0.00    -0.278 N 
ATOM     15  H   LIG    1        3.841   2.804  -5.353  0.00  0.00    +0.258 HD
ATOM     16  C   LIG    1        3.846   4.543  -6.572  0.00  0.00    +0.239 C 
ENDBRANCH  13  14
BRANCH  13  17
ATOM     17  N   LIG    1        2.794   2.744  -8.441  0.00  0.00    -0.178 N 
ATOM     18  H   LIG    1        2.399   2.148  -9.096  0.00  0.00    +0.278 HD
BRANCH  17  19
ATOM     19  C   LIG    1        3.097   4.020  -8.781  0.00  0.00    +0.255 C 
ATOM     20  N   LIG    1        3.352   5.090  -9.067  0.00  0.00    -0.154 NA
ENDBRANCH  17  19
ENDBRANCH  13  17
ENDBRANCH  11  12
ENDBRANCH   1  11
TORSDOF 8
