REMARK  Name = ZINC26574557
REMARK                            x       y       z     vdW  Elec       q    Type
REMARK                         _______ _______ _______ _____ _____    ______ ____
ROOT
ATOM      1  C   LIG    1       -0.775   1.603  -1.214  0.00  0.00    -0.011 C 
ATOM      2  C   LIG    1       -0.013   1.086   0.008  0.00  0.00    -0.043 C 
ATOM      3  C   LIG    1        1.428   1.630  -0.003  0.00  0.00    +0.127 C 
ATOM      4  C   LIG    1        1.569   2.424   1.316  0.00  0.00    +0.124 C 
ATOM      5  C   LIG    1        0.457   1.816   2.207  0.00  0.00    -0.048 C 
ATOM      6  N   LIG    1       -0.652   1.574   1.249  0.00  0.00    +0.384 N 
ATOM      7  H   LIG    1       -1.347   0.811   1.628  0.00  0.00    -0.085 HD
ATOM      8  H   LIG    1       -1.205   2.501   1.037  0.00  0.00    -0.085 HD
ENDROOT
BRANCH   3   9
ATOM      9  O   LIG    1        1.624   2.492  -1.126  0.00  0.00    -0.391 OA
ATOM     10  H   LIG    1        2.601   2.970  -1.288  0.00  0.00    +0.210 HD
ENDBRANCH   3   9
BRANCH   4  11
ATOM     11  O   LIG    1        2.857   2.211   1.899  0.00  0.00    -0.391 OA
ATOM     12  H   LIG    1        3.121   2.706   2.845  0.00  0.00    +0.210 HD
ENDBRANCH   4  11
TORSDOF 2
