REMARK  Name = ZINC21989842
REMARK                            x       y       z     vdW  Elec       q    Type
REMARK                         _______ _______ _______ _____ _____    ______ ____
ROOT
ATOM      1  C   LIG    1        4.206  -0.281   5.889  0.00  0.00    +0.016 C 
ATOM      2  C   LIG    1        2.875  -0.890   5.446  0.00  0.00    +0.061 C 
ATOM      3  C   LIG    1        1.703  -0.085   6.023  0.00  0.00    +0.047 C 
ATOM      4  C   LIG    1        0.930   0.445   4.839  0.00  0.00    -0.033 A 
ATOM      5  C   LIG    1       -0.207   1.226   4.790  0.00  0.00    +0.053 A 
ATOM      6  C   LIG    1       -0.748   1.602   3.568  0.00  0.00    +0.162 A 
ATOM      7  C   LIG    1       -0.148   1.182   2.381  0.00  0.00    +0.162 A 
ATOM      8  C   LIG    1        0.987   0.402   2.420  0.00  0.00    +0.061 A 
ATOM      9  C   LIG    1        1.540   0.024   3.656  0.00  0.00    +0.025 A 
ATOM     10  C   LIG    1        2.728  -0.791   3.947  0.00  0.00    +0.167 C 
ATOM     11  O   LIG    1        3.463  -1.297   3.125  0.00  0.00    -0.292 OA
ENDROOT
BRANCH   6  12
ATOM     12  O   LIG    1       -1.863   2.375   3.529  0.00  0.00    -0.491 OA
ATOM     13  C   LIG    1       -2.424   2.769   4.783  0.00  0.00    +0.277 C 
ENDBRANCH   6  12
BRANCH   7  14
ATOM     14  O   LIG    1       -0.682   1.547   1.184  0.00  0.00    -0.491 OA
ATOM     15  C   LIG    1       -0.013   1.086   0.008  0.00  0.00    +0.277 C 
ENDBRANCH   7  14
TORSDOF 2
