REMARK  Name = ZINC27215871
REMARK                            x       y       z     vdW  Elec       q    Type
REMARK                         _______ _______ _______ _____ _____    ______ ____
ROOT
ATOM      1  N   LIG    1       -0.704   1.544   1.212  0.00  0.00    -0.384 N 
ATOM      2  H   LIG    1       -1.619   2.149   1.125  0.00  0.00    +0.160 HD
ATOM      3  C   LIG    1       -0.208   1.213   2.464  0.00  0.00    +0.048 A 
ATOM      4  C   LIG    1        0.949   0.440   2.593  0.00  0.00    +0.028 A 
ATOM      5  C   LIG    1        1.474   0.097   3.822  0.00  0.00    +0.030 A 
ATOM      6  C   LIG    1        0.837   0.514   4.995  0.00  0.00    +0.065 A 
ATOM      7  C   LIG    1       -0.316   1.276   4.853  0.00  0.00    +0.084 A 
ATOM      8  N   LIG    1       -0.805   1.594   6.078  0.00  0.00    -0.299 N 
ATOM      9  C   LIG    1        0.058   1.023   6.970  0.00  0.00    +0.179 A 
ATOM     10  C   LIG    1       -1.964   2.357   6.161  0.00  0.00    +0.059 A 
ATOM     11  C   LIG    1       -2.485   2.693   7.405  0.00  0.00    +0.030 A 
ATOM     12  C   LIG    1       -3.633   3.450   7.495  0.00  0.00    +0.047 A 
ATOM     13  C   LIG    1       -4.284   3.884   6.345  0.00  0.00    +0.118 A 
ATOM     14  C   LIG    1       -3.782   3.559   5.099  0.00  0.00    +0.059 A 
ATOM     15  C   LIG    1       -2.619   2.793   4.996  0.00  0.00    +0.044 A 
ATOM     16  C   LIG    1       -2.086   2.449   3.655  0.00  0.00    +0.137 A 
ATOM     17  N   LIG    1        1.015   0.393   6.335  0.00  0.00    -0.346 N 
ATOM     18  H   LIG    1        1.873  -0.173   6.726  0.00  0.00    +0.167 HD
ATOM     19  C   LIG    1       -0.860   1.640   3.628  0.00  0.00    +0.066 A 
ENDROOT
BRANCH  13  20
ATOM     20  O   LIG    1       -5.417   4.629   6.446  0.00  0.00    -0.507 OA
ATOM     21  H   LIG    1       -5.817   4.888   7.437  0.00  0.00    +0.292 HD
ENDBRANCH  13  20
BRANCH  16  22
ATOM     22  O   LIG    1       -2.634   2.818   2.632  0.00  0.00    -0.505 OA
ATOM     23  H   LIG    1       -3.551   3.423   2.687  0.00  0.00    +0.292 HD
ENDBRANCH  16  22
BRANCH   1  24
ATOM     24  C   LIG    1       -0.009   1.089   0.005  0.00  0.00    +0.111 C 
BRANCH  24  25
ATOM     25  C   LIG    1       -0.757   1.588  -1.233  0.00  0.00    +0.002 C 
BRANCH  25  26
ATOM     26  C   LIG    1       -0.032   1.112  -2.493  0.00  0.00    -0.077 C 
BRANCH  26  27
ATOM     27  N   LIG    1       -0.815   1.485  -3.679  0.00  0.00    +0.379 N 
ATOM     28  H   LIG    1       -1.874   1.282  -3.463  0.00  0.00    -0.082 HD
BRANCH  27  30
ATOM     29  C   LIG    1       -1.692   3.319  -5.045  0.00  0.00    -0.017 C 
ATOM     30  C   LIG    1       -0.680   2.919  -3.969  0.00  0.00    -0.082 C 
ENDBRANCH  27  30
BRANCH  27  31
ATOM     31  C   LIG    1       -0.429   0.674  -4.841  0.00  0.00    -0.082 C 
ATOM     32  C   LIG    1       -1.022  -0.730  -4.704  0.00  0.00    -0.017 C 
ENDBRANCH  27  31
ENDBRANCH  26  27
ENDBRANCH  25  26
ENDBRANCH  24  25
ENDBRANCH   1  24
TORSDOF 8
