REMARK  Name = ZINC14945723
REMARK                            x       y       z     vdW  Elec       q    Type
REMARK                         _______ _______ _______ _____ _____    ______ ____
ROOT
ATOM      1  C   LIG    1        1.056   1.798   2.950  0.00  0.00    +0.131 A 
ATOM      2  C   LIG    1        1.751   1.350   4.100  0.00  0.00    +0.040 A 
ATOM      3  C   LIG    1        1.394   0.177   4.775  0.00  0.00    +0.013 A 
ATOM      4  C   LIG    1        2.106  -0.208   5.873  0.00  0.00    +0.001 A 
ATOM      5  C   LIG    1        3.184   0.545   6.327  0.00  0.00    +0.002 A 
ATOM      6  C   LIG    1        3.561   1.689   5.688  0.00  0.00    +0.028 A 
ATOM      7  C   LIG    1        2.852   2.115   4.556  0.00  0.00    +0.077 A 
ATOM      8  N   LIG    1        3.181   3.232   3.890  0.00  0.00    -0.224 NA
ATOM      9  C   LIG    1        2.497   3.602   2.834  0.00  0.00    +0.236 A 
ATOM     10  N   LIG    1        1.465   2.917   2.367  0.00  0.00    -0.209 NA
ENDROOT
BRANCH   9  11
ATOM     11  C   LIG    1        2.905   4.864   2.119  0.00  0.00    +0.452 C 
ATOM     12  F   LIG    1        2.299   4.904   0.859  0.00  0.00    -0.163 F 
ATOM     13  F   LIG    1        4.296   4.886   1.968  0.00  0.00    -0.163 F 
ATOM     14  F   LIG    1        2.500   5.975   2.866  0.00  0.00    -0.163 F 
ENDBRANCH   9  11
BRANCH   1  15
ATOM     15  N   LIG    1       -0.020   1.094   2.454  0.00  0.00    -0.322 N 
ATOM     16  H   LIG    1       -0.308   0.277   2.890  0.00  0.00    +0.148 HD
BRANCH  15  18
ATOM     17  C   LIG    1       -0.013   1.086   0.008  0.00  0.00    +0.033 C 
ATOM     18  C   LIG    1       -0.729   1.579   1.267  0.00  0.00    +0.099 C 
BRANCH  18  19
ATOM     19  C   LIG    1       -2.143   1.058   1.278  0.00  0.00    -0.028 A 
ATOM     20  C   LIG    1       -2.397  -0.241   1.677  0.00  0.00    +0.005 A 
ATOM     21  C   LIG    1       -3.695  -0.718   1.691  0.00  0.00    +0.000 A 
ATOM     22  C   LIG    1       -4.736   0.101   1.297  0.00  0.00    +0.000 A 
ATOM     23  C   LIG    1       -4.481   1.397   0.892  0.00  0.00    +0.000 A 
ATOM     24  C   LIG    1       -3.184   1.876   0.882  0.00  0.00    +0.005 A 
ENDBRANCH  18  19
ENDBRANCH  15  18
ENDBRANCH   1  15
TORSDOF 4
