REMARK  Name = ZINC13808043
REMARK                            x       y       z     vdW  Elec       q    Type
REMARK                         _______ _______ _______ _____ _____    ______ ____
ROOT
ATOM      1  C   LIG    1       -0.017   1.381   0.010  0.00  0.00    +0.199 A 
ATOM      2  F   LIG    1       -1.195   2.041   0.030  0.00  0.00    -0.199 F 
ATOM      3  C   LIG    1        1.174   2.090   0.002  0.00  0.00    +0.198 A 
ATOM      4  F   LIG    1        1.157   3.441   0.009  0.00  0.00    -0.199 F 
ATOM      5  C   LIG    1        2.383   1.412  -0.013  0.00  0.00    +0.192 A 
ATOM      6  F   LIG    1        3.544   2.102  -0.021  0.00  0.00    -0.200 F 
ATOM      7  C   LIG    1        2.401   0.028  -0.021  0.00  0.00    +0.203 A 
ATOM      8  C   LIG    1        1.212  -0.680  -0.014  0.00  0.00    +0.192 A 
ATOM      9  F   LIG    1        1.230  -2.031  -0.023  0.00  0.00    -0.200 F 
ATOM     10  C   LIG    1        0.002  -0.004   0.002  0.00  0.00    +0.198 A 
ATOM     11  F   LIG    1       -1.159  -0.696   0.010  0.00  0.00    -0.199 F 
ENDROOT
BRANCH   7  12
ATOM     12  S   LIG    1        3.938  -0.833  -0.041  0.00  0.00    +0.160 S 
ATOM     13  O   LIG    1        4.896   0.059  -0.596  0.00  0.00    -0.132 OA
ATOM     14  O   LIG    1        3.679  -2.115  -0.597  0.00  0.00    -0.132 OA
BRANCH  12  15
ATOM     15  N   LIG    1        4.381  -1.081   1.535  0.00  0.00    +0.062 NA
ATOM     16  C   LIG    1        5.493  -1.703   1.810  0.00  0.00    +0.403 C 
BRANCH  16  17
ATOM     17  N   LIG    1        5.860  -1.909   3.118  0.00  0.00    -0.288 N 
ATOM     18  H   LIG    1        6.688  -2.373   3.323  0.00  0.00    +0.255 HD
ATOM     19  H   LIG    1        5.292  -1.591   3.837  0.00  0.00    +0.255 HD
ENDBRANCH  16  17
BRANCH  16  20
ATOM     20  N   LIG    1        6.298  -2.154   0.791  0.00  0.00    -0.288 N 
ATOM     21  H   LIG    1        7.125  -2.617   0.995  0.00  0.00    +0.255 HD
ATOM     22  H   LIG    1        6.039  -2.008  -0.133  0.00  0.00    +0.255 HD
ENDBRANCH  16  20
ENDBRANCH  12  15
ENDBRANCH   7  12
TORSDOF 4
