REMARK  Name = ZINC22938521
REMARK                            x       y       z     vdW  Elec       q    Type
REMARK                         _______ _______ _______ _____ _____    ______ ____
ROOT
ATOM      1  C   LIG    1       -2.036   1.486   3.789  0.00  0.00    +0.022 C 
ATOM      2  C   LIG    1       -0.531   1.735   3.675  0.00  0.00    +0.036 C 
ATOM      3  C   LIG    1        0.178   1.145   4.897  0.00  0.00    -0.063 C 
ATOM      4  N   LIG    1        1.627   1.350   4.766  0.00  0.00    +0.383 N 
ATOM      5  H   LIG    1        2.140   0.916   5.637  0.00  0.00    -0.085 HD
ATOM      6  H   LIG    1        1.842   2.428   4.714  0.00  0.00    -0.085 HD
ATOM      7  C   LIG    1        2.140   0.708   3.547  0.00  0.00    -0.061 C 
ATOM      8  C   LIG    1        3.645   0.956   3.434  0.00  0.00    -0.012 C 
ATOM      9  C   LIG    1        1.431   1.298   2.326  0.00  0.00    +0.068 C 
ATOM     10  N   LIG    1       -0.018   1.093   2.457  0.00  0.00    -0.303 NA
ENDROOT
BRANCH  10  11
ATOM     11  C   LIG    1       -0.729   1.579   1.267  0.00  0.00    +0.085 C 
BRANCH  11  12
ATOM     12  C   LIG    1       -0.013   1.086   0.008  0.00  0.00    +0.020 C 
BRANCH  12  13
ATOM     13  C   LIG    1       -0.753   1.593  -1.232  0.00  0.00    +0.036 C 
BRANCH  13  14
ATOM     14  C   LIG    1       -0.047   1.107  -2.471  0.00  0.00    -0.047 A 
ATOM     15  C   LIG    1        0.950   1.873  -3.045  0.00  0.00    +0.003 A 
ATOM     16  C   LIG    1        1.601   1.425  -4.179  0.00  0.00    +0.000 A 
ATOM     17  C   LIG    1        1.246   0.215  -4.746  0.00  0.00    +0.000 A 
ATOM     18  C   LIG    1        0.245  -0.549  -4.176  0.00  0.00    +0.000 A 
ATOM     19  C   LIG    1       -0.402  -0.103  -3.039  0.00  0.00    +0.003 A 
ENDBRANCH  13  14
ENDBRANCH  12  13
ENDBRANCH  11  12
ENDBRANCH  10  11
TORSDOF 4
