REMARK  Name = ZINC00014669
REMARK                            x       y       z     vdW  Elec       q    Type
REMARK                         _______ _______ _______ _____ _____    ______ ____
ROOT
ATOM      1  N   LIG    1        0.713  -0.491   1.192  0.00  0.00    +0.383 N 
ATOM      2  H   LIG    1        1.658  -0.139   1.185  0.00  0.00    -0.081 HD
ATOM      3  C   LIG    1        0.739  -1.958   1.178  0.00  0.00    -0.078 C 
ATOM      4  C   LIG    1        1.548  -2.469   2.373  0.00  0.00    -0.015 C 
ATOM      5  C   LIG    1        0.896  -1.981   3.670  0.00  0.00    -0.010 C 
ATOM      6  C   LIG    1        0.805  -0.452   3.640  0.00  0.00    -0.015 C 
ATOM      7  C   LIG    1        0.025  -0.017   2.399  0.00  0.00    -0.078 C 
ENDROOT
BRANCH   1   9
ATOM      8  C   LIG    1       -0.019   1.526   0.010  0.00  0.00    -0.010 C 
ATOM      9  C   LIG    1        0.002  -0.004   0.002  0.00  0.00    -0.038 C 
BRANCH   9  10
ATOM     10  C   LIG    1        0.718  -0.497  -1.257  0.00  0.00    +0.131 C 
BRANCH  10  11
ATOM     11  C   LIG    1       -0.077  -0.103  -2.474  0.00  0.00    -0.020 A 
ATOM     12  C   LIG    1        0.094   1.150  -3.034  0.00  0.00    +0.009 A 
ATOM     13  C   LIG    1       -0.634   1.514  -4.151  0.00  0.00    +0.046 A 
ATOM     14  C   LIG    1       -1.537   0.622  -4.710  0.00  0.00    +0.117 A 
ATOM     15  C   LIG    1       -1.707  -0.635  -4.146  0.00  0.00    +0.046 A 
ATOM     16  C   LIG    1       -0.973  -0.996  -3.033  0.00  0.00    +0.009 A 
BRANCH  14  17
ATOM     17  O   LIG    1       -2.255   0.978  -5.807  0.00  0.00    -0.507 OA
ATOM     18  H   LIG    1       -1.825   0.762  -6.646  0.00  0.00    +0.292 HD
ENDBRANCH  14  17
ENDBRANCH  10  11
BRANCH  10  19
ATOM     19  O   LIG    1        2.019   0.090  -1.326  0.00  0.00    -0.389 OA
ATOM     20  H   LIG    1        2.012   1.057  -1.362  0.00  0.00    +0.210 HD
ENDBRANCH  10  19
ENDBRANCH   9  10
ENDBRANCH   1   9
BRANCH   5  21
ATOM     21  C   LIG    1        1.743  -2.421   4.865  0.00  0.00    +0.038 C 
BRANCH  21  22
ATOM     22  C   LIG    1        1.039  -2.048   6.144  0.00  0.00    -0.047 A 
ATOM     23  C   LIG    1        1.267  -0.814   6.724  0.00  0.00    +0.003 A 
ATOM     24  C   LIG    1        0.621  -0.472   7.898  0.00  0.00    +0.000 A 
ATOM     25  C   LIG    1       -0.254  -1.363   8.491  0.00  0.00    +0.000 A 
ATOM     26  C   LIG    1       -0.482  -2.596   7.910  0.00  0.00    +0.000 A 
ATOM     27  C   LIG    1        0.160  -2.937   6.734  0.00  0.00    +0.003 A 
ENDBRANCH  21  22
ENDBRANCH   5  21
TORSDOF 7
