REMARK  Name = ZINC13761493
REMARK                            x       y       z     vdW  Elec       q    Type
REMARK                         _______ _______ _______ _____ _____    ______ ____
ROOT
ATOM      1  C   LIG    1        1.377  -6.345   0.202  0.00  0.00    +0.264 C 
ATOM      2  C   LIG    1        0.917  -4.976   0.645  0.00  0.00    +0.025 C 
ATOM      3  C   LIG    1        0.744  -4.245  -0.469  0.00  0.00    +0.072 C 
ATOM      4  C   LIG    1        1.077  -5.068  -1.643  0.00  0.00    +0.343 C 
ATOM      5  O   LIG    1        1.024  -4.691  -2.797  0.00  0.00    -0.245 OA
ATOM      6  O   LIG    1        1.448  -6.300  -1.250  0.00  0.00    -0.421 OA
ENDROOT
BRANCH   3   7
ATOM      7  C   LIG    1        0.295  -2.832  -0.509  0.00  0.00    -0.007 A 
ATOM      8  C   LIG    1       -0.999  -2.499  -0.111  0.00  0.00    +0.012 A 
ATOM      9  C   LIG    1       -1.416  -1.185  -0.148  0.00  0.00    +0.050 A 
ATOM     10  C   LIG    1       -0.551  -0.191  -0.581  0.00  0.00    +0.166 A 
ATOM     11  C   LIG    1        0.744  -0.518  -0.981  0.00  0.00    +0.167 A 
ATOM     12  O   LIG    1        1.386   0.626  -1.358  0.00  0.00    -0.453 OA
ATOM     13  C   LIG    1        0.611   1.704  -0.800  0.00  0.00    +0.466 C 
ATOM     14  O   LIG    1       -0.718   1.158  -0.709  0.00  0.00    -0.453 OA
ATOM     15  C   LIG    1        1.165  -1.835  -0.945  0.00  0.00    +0.058 A 
ENDBRANCH   3   7
BRANCH   1  19
ATOM     16  C   LIG    1       -1.429  -9.320   1.443  0.00  0.00    +0.120 A 
ATOM     17  C   LIG    1       -0.347  -9.005   2.252  0.00  0.00    +0.046 A 
ATOM     18  C   LIG    1        0.559  -8.043   1.849  0.00  0.00    +0.014 A 
ATOM     19  C   LIG    1        0.388  -7.394   0.640  0.00  0.00    +0.028 A 
ATOM     20  C   LIG    1       -0.693  -7.703  -0.166  0.00  0.00    +0.014 A 
ATOM     21  C   LIG    1       -1.598  -8.668   0.230  0.00  0.00    +0.046 A 
BRANCH  16  23
ATOM     22  C   LIG    1       -3.411 -10.539   0.954  0.00  0.00    +0.277 C 
ATOM     23  O   LIG    1       -2.321 -10.266   1.838  0.00  0.00    -0.495 OA
ENDBRANCH  16  23
ENDBRANCH   1  19
BRANCH   1  24
ATOM     24  O   LIG    1        2.666  -6.628   0.749  0.00  0.00    -0.348 OA
ATOM     25  H   LIG    1        3.029  -7.482   0.479  0.00  0.00    +0.215 HD
ENDBRANCH   1  24
BRANCH   2  26
ATOM     26  C   LIG    1        0.694  -4.517   2.063  0.00  0.00    +0.073 C 
BRANCH  26  27
ATOM     27  C   LIG    1        1.999  -4.045   2.649  0.00  0.00    -0.041 A 
ATOM     28  C   LIG    1        2.771  -4.909   3.404  0.00  0.00    +0.004 A 
ATOM     29  C   LIG    1        3.970  -4.476   3.938  0.00  0.00    +0.002 A 
ATOM     30  C   LIG    1        4.393  -3.177   3.726  0.00  0.00    +0.032 A 
ATOM     31  C   LIG    1        3.619  -2.312   2.976  0.00  0.00    +0.122 A 
ATOM     32  C   LIG    1        2.422  -2.746   2.438  0.00  0.00    +0.036 A 
BRANCH  31  33
ATOM     33  N   LIG    1        4.072  -0.921   2.749  0.00  0.00    +0.006 N 
ATOM     34  O   LIG    1        3.390  -0.159   2.088  0.00  0.00    -0.130 OA
BRANCH  33  35
ATOM     35  O   LIG    1        5.127  -0.539   3.223  0.00  0.00    -0.396 OA
ATOM     36  H   LIG    1        5.652  -1.126   3.731  0.00  0.00    +0.329 HD
ENDBRANCH  33  35
ENDBRANCH  31  33
ENDBRANCH  26  27
ENDBRANCH   2  26
TORSDOF 8
