REMARK  Name = ZINC14980235
REMARK                            x       y       z     vdW  Elec       q    Type
REMARK                         _______ _______ _______ _____ _____    ______ ____
ROOT
ATOM      1  C   LIG    1       -0.017   1.385   0.010  0.00  0.00    +0.039 A 
ATOM      2  C   LIG    1        1.151   2.094   0.002  0.00  0.00    +0.020 A 
ATOM      3  C   LIG    1        2.373   1.419  -0.013  0.00  0.00    +0.084 A 
ATOM      4  C   LIG    1        2.398   0.015  -0.021  0.00  0.00    +0.174 A 
ATOM      5  O   LIG    1        3.693  -0.361  -0.035  0.00  0.00    -0.351 OA
ATOM      6  N   LIG    1        4.516   0.788  -0.037  0.00  0.00    -0.039 NA
ATOM      7  C   LIG    1        1.201  -0.689  -0.013  0.00  0.00    +0.088 A 
ATOM      8  C   LIG    1        3.775   1.859  -0.024  0.00  0.00    +0.260 A 
ATOM      9  C   LIG    1        0.002  -0.004   0.002  0.00  0.00    +0.127 A 
ATOM     10  F   LIG    1       -1.162  -0.690   0.009  0.00  0.00    -0.205 F 
ENDROOT
BRANCH   8  11
ATOM     11  O   LIG    1        4.215   3.142  -0.022  0.00  0.00    -0.490 OA
ATOM     12  H   LIG    1        3.600   3.848  -0.012  0.00  0.00    +0.294 HD
ENDBRANCH   8  11
TORSDOF 1
