REMARK  Name = ZINC13983541
REMARK                            x       y       z     vdW  Elec       q    Type
REMARK                         _______ _______ _______ _____ _____    ______ ____
ROOT
ATOM      1  C   LIG    1       -1.112   1.421  -0.231  0.00  0.00    +0.012 C 
ATOM      2  C   LIG    1       -0.938  -0.099  -0.212  0.00  0.00    +0.040 C 
ATOM      3  C   LIG    1       -2.302  -0.772  -0.397  0.00  0.00    +0.114 C 
ATOM      4  N   LIG    1       -2.137  -2.224  -0.247  0.00  0.00    -0.301 N 
ATOM      5  C   LIG    1       -2.572  -3.067  -1.204  0.00  0.00    +0.217 C 
ATOM      6  O   LIG    1       -3.106  -2.629  -2.201  0.00  0.00    -0.275 OA
ATOM      7  C   LIG    1       -1.489  -2.740   0.967  0.00  0.00    +0.114 C 
ATOM      8  C   LIG    1       -0.134  -2.045   1.136  0.00  0.00    +0.040 C 
ATOM      9  C   LIG    1        0.495  -2.470   2.464  0.00  0.00    +0.012 C 
ATOM     10  C   LIG    1       -0.338  -0.528   1.128  0.00  0.00    +0.099 C 
ENDROOT
BRANCH   5  11
ATOM     11  C   LIG    1       -2.396  -4.554  -1.036  0.00  0.00    +0.064 C 
ATOM     12  C   LIG    1       -0.895  -4.912  -0.974  0.00  0.00    -0.065 C 
ATOM     13  N   LIG    1       -0.541  -5.280  -2.369  0.00  0.00    +0.384 N 
ATOM     14  H   LIG    1       -0.405  -4.452  -2.928  0.00  0.00    -0.081 HD
ATOM     15  C   LIG    1       -1.716  -6.048  -2.854  0.00  0.00    -0.069 C 
ATOM     16  C   LIG    1       -2.938  -5.301  -2.271  0.00  0.00    +0.015 C 
BRANCH  16  17
ATOM     17  C   LIG    1       -4.007  -6.282  -1.863  0.00  0.00    -0.010 A 
ATOM     18  C   LIG    1       -3.710  -7.297  -0.972  0.00  0.00    +0.009 A 
ATOM     19  C   LIG    1       -4.689  -8.196  -0.596  0.00  0.00    +0.039 A 
ATOM     20  C   LIG    1       -5.970  -8.082  -1.112  0.00  0.00    +0.126 A 
ATOM     21  F   LIG    1       -6.926  -8.963  -0.745  0.00  0.00    -0.205 F 
ATOM     22  C   LIG    1       -6.268  -7.067  -2.003  0.00  0.00    +0.077 A 
ATOM     23  C   LIG    1       -5.288  -6.163  -2.375  0.00  0.00    +0.129 A 
ATOM     24  F   LIG    1       -5.580  -5.167  -3.240  0.00  0.00    -0.205 F 
ENDBRANCH  16  17
BRANCH  13  25
ATOM     25  C   LIG    1        0.665  -6.119  -2.388  0.00  0.00    -0.074 C 
ATOM     26  C   LIG    1        1.864  -5.301  -1.903  0.00  0.00    -0.010 C 
ATOM     27  C   LIG    1        0.924  -6.607  -3.814  0.00  0.00    -0.010 C 
ATOM     28  C   LIG    1        0.463  -7.323  -1.466  0.00  0.00    -0.010 C 
ENDBRANCH  13  25
ENDBRANCH   5  11
BRANCH  10  29
ATOM     29  C   LIG    1        0.989   0.158   1.327  0.00  0.00    -0.016 A 
ATOM     30  C   LIG    1        1.763   0.497   0.234  0.00  0.00    +0.006 A 
ATOM     31  C   LIG    1        2.980   1.127   0.416  0.00  0.00    +0.000 A 
ATOM     32  C   LIG    1        3.422   1.418   1.693  0.00  0.00    +0.000 A 
ATOM     33  C   LIG    1        2.648   1.081   2.787  0.00  0.00    +0.000 A 
ATOM     34  C   LIG    1        1.429   0.455   2.604  0.00  0.00    +0.006 A 
ENDBRANCH  10  29
BRANCH  10  35
ATOM     35  O   LIG    1       -1.227  -0.163   2.186  0.00  0.00    -0.383 OA
ATOM     36  H   LIG    1       -0.910  -0.405   3.067  0.00  0.00    +0.211 HD
ENDBRANCH  10  35
TORSDOF 5
