REMARK  Name = ZINC26575028
REMARK                            x       y       z     vdW  Elec       q    Type
REMARK                         _______ _______ _______ _____ _____    ______ ____
ROOT
ATOM      1  C   LIG    1       -6.217  -5.934   4.862  0.00  0.00    +0.235 C 
ENDROOT
BRANCH   1   4
ATOM      2  N   LIG    1       -4.297  -4.564   4.117  0.00  0.00    -0.283 N 
ATOM      3  H   LIG    1       -4.921  -4.014   3.618  0.00  0.00    +0.155 HD
ATOM      4  C   LIG    1       -4.753  -5.577   4.880  0.00  0.00    +0.255 C 
ATOM      5  O   LIG    1       -3.985  -6.201   5.582  0.00  0.00    -0.272 OA
BRANCH   2   9
ATOM      6  C   LIG    1       -0.208  -3.795   3.902  0.00  0.00    -0.043 A 
ATOM      7  C   LIG    1       -0.659  -5.095   4.043  0.00  0.00    +0.006 A 
ATOM      8  C   LIG    1       -2.014  -5.353   4.115  0.00  0.00    +0.023 A 
ATOM      9  C   LIG    1       -2.924  -4.306   4.045  0.00  0.00    +0.034 A 
ATOM     10  C   LIG    1       -2.467  -3.002   3.905  0.00  0.00    +0.023 A 
ATOM     11  C   LIG    1       -1.111  -2.750   3.838  0.00  0.00    +0.006 A 
BRANCH   6  12
ATOM     12  C   LIG    1        1.271  -3.517   3.825  0.00  0.00    +0.061 C 
BRANCH  12  13
ATOM     13  P   LIG    1        1.928  -3.248   5.504  0.00  0.00    -0.120 P 
BRANCH  13  14
ATOM     14  C   LIG    1        1.642  -4.738   6.514  0.00  0.00    +0.027 C 
BRANCH  14  15
ATOM     15  C   LIG    1        2.353  -5.932   5.874  0.00  0.00    +0.004 C 
BRANCH  15  17
ATOM     16  C   LIG    1        2.824  -8.377   6.081  0.00  0.00    +0.004 C 
ATOM     17  C   LIG    1        2.113  -7.183   6.721  0.00  0.00    -0.003 C 
ENDBRANCH  15  17
ENDBRANCH  14  15
ENDBRANCH  13  14
BRANCH  13  18
ATOM     18  C   LIG    1        3.717  -2.911   5.410  0.00  0.00    +0.027 C 
BRANCH  18  19
ATOM     19  C   LIG    1        4.268  -2.686   6.819  0.00  0.00    +0.004 C 
BRANCH  19  20
ATOM     20  C   LIG    1        5.770  -2.403   6.740  0.00  0.00    -0.003 C 
ATOM     21  C   LIG    1        6.321  -2.177   8.150  0.00  0.00    +0.004 C 
ENDBRANCH  19  20
ENDBRANCH  18  19
ENDBRANCH  13  18
BRANCH  13  22
ATOM     22  C   LIG    1        1.081  -1.825   6.267  0.00  0.00    +0.027 C 
BRANCH  22  23
ATOM     23  C   LIG    1        1.321  -0.574   5.419  0.00  0.00    +0.004 C 
BRANCH  23  24
ATOM     24  C   LIG    1        0.610   0.620   6.060  0.00  0.00    -0.003 C 
ATOM     25  C   LIG    1        0.850   1.871   5.212  0.00  0.00    +0.004 C 
ENDBRANCH  23  24
ENDBRANCH  22  23
ENDBRANCH  13  22
ENDBRANCH  12  13
ENDBRANCH   6  12
ENDBRANCH   2   9
ENDBRANCH   1   4
BRANCH   1  26
ATOM     26  N   LIG    1       -6.457  -7.059   5.769  0.00  0.00    -0.267 N 
ATOM     27  H   LIG    1       -5.976  -7.115   6.610  0.00  0.00    +0.259 HD
BRANCH  26  28
ATOM     28  C   LIG    1       -7.358  -8.031   5.430  0.00  0.00    +0.347 C 
ATOM     29  N   LIG    1       -7.962  -7.994   4.244  0.00  0.00    -0.276 N 
ATOM     30  H   LIG    1       -7.799  -7.253   3.639  0.00  0.00    +0.258 HD
BRANCH  29  31
ATOM     31  C   LIG    1       -8.871  -9.074   3.851  0.00  0.00    +0.145 C 
ATOM     32  C   LIG    1       -8.060 -10.325   3.509  0.00  0.00    +0.040 C 
ATOM     33  C   LIG    1       -9.009 -11.453   3.099  0.00  0.00    +0.003 C 
ATOM     34  C   LIG    1       -9.817 -11.019   1.875  0.00  0.00    +0.000 C 
ATOM     35  C   LIG    1      -10.629  -9.767   2.216  0.00  0.00    +0.003 C 
ATOM     36  C   LIG    1       -9.679  -8.640   2.626  0.00  0.00    +0.040 C 
ENDBRANCH  29  31
BRANCH  28  37
ATOM     37  N   LIG    1       -7.632  -9.013   6.287  0.00  0.00    -0.276 N 
ATOM     38  H   LIG    1       -8.297  -9.682   6.061  0.00  0.00    +0.258 HD
BRANCH  37  39
ATOM     39  C   LIG    1       -6.929  -9.083   7.570  0.00  0.00    +0.145 C 
ATOM     40  C   LIG    1       -7.662  -8.222   8.601  0.00  0.00    +0.040 C 
ATOM     41  C   LIG    1       -6.928  -8.295   9.941  0.00  0.00    +0.003 C 
ATOM     42  C   LIG    1       -6.890  -9.747  10.424  0.00  0.00    +0.000 C 
ATOM     43  C   LIG    1       -6.157 -10.607   9.393  0.00  0.00    +0.003 C 
ATOM     44  C   LIG    1       -6.891 -10.534   8.053  0.00  0.00    +0.040 C 
ENDBRANCH  37  39
ENDBRANCH  28  37
ENDBRANCH  26  28
ENDBRANCH   1  26
BRANCH   1  45
ATOM     45  C   LIG    1       -7.042  -4.728   5.317  0.00  0.00    +0.085 C 
BRANCH  45  46
ATOM     46  C   LIG    1       -8.509  -5.032   5.155  0.00  0.00    -0.043 A 
ATOM     47  C   LIG    1       -9.124  -4.808   3.925  0.00  0.00    +0.004 A 
ATOM     48  C   LIG    1      -10.447  -5.072   3.745  0.00  0.00    +0.009 A 
ATOM     49  C   LIG    1      -11.207  -5.578   4.814  0.00  0.00    -0.018 A 
ATOM     50  C   LIG    1      -12.575  -5.863   4.666  0.00  0.00    +0.008 A 
ATOM     51  C   LIG    1      -13.279  -6.353   5.723  0.00  0.00    +0.001 A 
ATOM     52  C   LIG    1      -12.663  -6.577   6.953  0.00  0.00    +0.001 A 
ATOM     53  C   LIG    1      -11.340  -6.313   7.133  0.00  0.00    +0.008 A 
ATOM     54  C   LIG    1      -10.581  -5.806   6.065  0.00  0.00    -0.018 A 
ATOM     55  C   LIG    1       -9.211  -5.527   6.211  0.00  0.00    +0.012 A 
ENDBRANCH  45  46
ENDBRANCH   1  45
TORSDOF 20
