REMARK  Name = ZINC40977335
REMARK                            x       y       z     vdW  Elec       q    Type
REMARK                         _______ _______ _______ _____ _____    ______ ____
ROOT
ATOM      1  C   LIG    1        2.494  -2.495  -4.367  0.00  0.00    +0.018 A 
ATOM      2  C   LIG    1        1.966  -2.352  -5.668  0.00  0.00    +0.123 A 
ATOM      3  N   LIG    1        2.553  -2.937  -6.684  0.00  0.00    -0.235 NA
ATOM      4  C   LIG    1        3.654  -3.675  -6.512  0.00  0.00    +0.163 A 
ATOM      5  C   LIG    1        4.461  -4.392  -7.408  0.00  0.00    +0.047 A 
ATOM      6  C   LIG    1        5.489  -4.979  -6.659  0.00  0.00    +0.145 A 
ATOM      7  N   LIG    1        5.335  -4.652  -5.400  0.00  0.00    -0.173 NA
ATOM      8  N   LIG    1        4.202  -3.840  -5.268  0.00  0.00    -0.221 N 
ATOM      9  C   LIG    1        3.624  -3.243  -4.186  0.00  0.00    +0.124 A 
ENDROOT
BRANCH   5  10
ATOM     10  C   LIG    1        4.263  -4.508  -8.868  0.00  0.00    -0.004 A 
ATOM     11  C   LIG    1        3.961  -5.735  -9.439  0.00  0.00    +0.009 A 
ATOM     12  C   LIG    1        3.773  -5.848 -10.811  0.00  0.00    +0.003 A 
ATOM     13  C   LIG    1        3.880  -4.764 -11.630  0.00  0.00    +0.028 A 
ATOM     14  C   LIG    1        4.185  -3.500 -11.095  0.00  0.00    +0.072 A 
ATOM     15  N   LIG    1        4.293  -2.427 -11.886  0.00  0.00    -0.255 NA
ATOM     16  C   LIG    1        4.561  -1.242 -11.392  0.00  0.00    +0.111 A 
ATOM     17  C   LIG    1        4.763  -1.045 -10.029  0.00  0.00    +0.020 A 
ATOM     18  C   LIG    1        4.672  -2.103  -9.167  0.00  0.00    +0.012 A 
ATOM     19  C   LIG    1        4.373  -3.367  -9.698  0.00  0.00    +0.008 A 
ENDBRANCH   5  10
BRANCH   1  23
ATOM     20  C   LIG    1        0.606  -0.607  -1.056  0.00  0.00    +0.120 A 
ATOM     21  C   LIG    1        1.172   0.164  -2.062  0.00  0.00    +0.046 A 
ATOM     22  C   LIG    1        1.785  -0.446  -3.136  0.00  0.00    +0.012 A 
ATOM     23  C   LIG    1        1.836  -1.836  -3.212  0.00  0.00    -0.015 A 
ATOM     24  C   LIG    1        1.266  -2.607  -2.200  0.00  0.00    +0.012 A 
ATOM     25  C   LIG    1        0.659  -1.992  -1.125  0.00  0.00    +0.046 A 
BRANCH  20  27
ATOM     26  C   LIG    1       -0.017   1.425   0.010  0.00  0.00    +0.277 C 
ATOM     27  O   LIG    1        0.002  -0.004   0.002  0.00  0.00    -0.495 OA
ENDBRANCH  20  27
ENDBRANCH   1  23
TORSDOF 3
