REMARK  Name = ZINC13864192
REMARK                            x       y       z     vdW  Elec       q    Type
REMARK                         _______ _______ _______ _____ _____    ______ ____
ROOT
ATOM      1  C   LIG    1        1.179   1.786   0.000  0.00  0.00    +0.123 A 
ATOM      2  C   LIG    1       -0.013   1.076   0.008  0.00  0.00    +0.047 A 
ATOM      3  C   LIG    1       -1.218   1.751   0.017  0.00  0.00    +0.018 A 
ATOM      4  C   LIG    1       -1.237   3.134   0.031  0.00  0.00    +0.014 A 
ATOM      5  I   LIG    1       -3.067   4.154   0.053  0.00  0.00    -0.044 I 
ATOM      6  C   LIG    1       -0.050   3.844   0.023  0.00  0.00    +0.021 A 
ATOM      7  C   LIG    1        1.157   3.173   0.008  0.00  0.00    -0.007 A 
ENDROOT
BRANCH   1   9
ATOM      8  C   LIG    1        2.312  -0.303  -0.023  0.00  0.00    +0.277 C 
ATOM      9  O   LIG    1        2.366   1.124  -0.015  0.00  0.00    -0.495 OA
ENDBRANCH   1   9
BRANCH   7  10
ATOM     10  C   LIG    1        2.450   3.948   0.000  0.00  0.00    +0.019 C 
BRANCH  10  11
ATOM     11  C   LIG    1        2.939   4.110  -1.440  0.00  0.00    -0.082 C 
BRANCH  11  12
ATOM     12  N   LIG    1        4.191   4.887  -1.438  0.00  0.00    +0.378 N 
ATOM     13  H   LIG    1        4.009   5.820  -1.050  0.00  0.00    -0.090 HD
ATOM     14  H   LIG    1        4.543   4.985  -2.389  0.00  0.00    -0.090 HD
ATOM     15  H   LIG    1        4.891   4.419  -0.864  0.00  0.00    -0.090 HD
ENDBRANCH  11  12
ENDBRANCH  10  11
ENDBRANCH   7  10
TORSDOF 4
