REMARK  Name = ZINC00014864
REMARK                            x       y       z     vdW  Elec       q    Type
REMARK                         _______ _______ _______ _____ _____    ______ ____
ROOT
ATOM      1  C   LIG    1       -1.433  -0.534   0.013  0.00  0.00    +0.121 C 
ENDROOT
BRANCH   1   2
ATOM      2  C   LIG    1       -2.162  -0.034  -1.208  0.00  0.00    +0.022 A 
ATOM      3  C   LIG    1       -3.292   0.749  -1.066  0.00  0.00    +0.012 A 
ATOM      4  C   LIG    1       -3.961   1.208  -2.184  0.00  0.00    +0.039 A 
ATOM      5  C   LIG    1       -3.501   0.883  -3.450  0.00  0.00    +0.126 A 
ATOM      6  F   LIG    1       -4.155   1.331  -4.543  0.00  0.00    -0.205 F 
ATOM      7  C   LIG    1       -2.369   0.099  -3.593  0.00  0.00    +0.077 A 
ATOM      8  C   LIG    1       -1.696  -0.356  -2.472  0.00  0.00    +0.132 A 
ATOM      9  F   LIG    1       -0.589  -1.117  -2.610  0.00  0.00    -0.205 F 
ENDBRANCH   1   2
BRANCH   1  11
ATOM     10  C   LIG    1       -0.019   1.526   0.010  0.00  0.00    +0.017 C 
ATOM     11  C   LIG    1        0.002  -0.004   0.002  0.00  0.00    +0.076 C 
BRANCH  11  12
ATOM     12  C   LIG    1        0.731  -0.503   1.223  0.00  0.00    +0.085 A 
ATOM     13  C   LIG    1        1.873  -1.281   1.092  0.00  0.00    +0.163 A 
ATOM     14  F   LIG    1        2.353  -1.606  -0.129  0.00  0.00    -0.202 F 
ATOM     15  C   LIG    1        2.510  -1.717   2.245  0.00  0.00    +0.152 A 
ATOM     16  N   LIG    1        2.010  -1.379   3.423  0.00  0.00    -0.241 NA
ATOM     17  C   LIG    1        0.923  -0.639   3.508  0.00  0.00    +0.221 A 
ATOM     18  N   LIG    1        0.294  -0.202   2.435  0.00  0.00    -0.237 NA
ENDBRANCH  11  12
ENDBRANCH   1  11
BRANCH   1  19
ATOM     19  O   LIG    1       -2.102  -0.073   1.189  0.00  0.00    -0.381 OA
ATOM     20  H   LIG    1       -2.153   0.890   1.260  0.00  0.00    +0.211 HD
ENDBRANCH   1  19
BRANCH   1  21
ATOM     21  C   LIG    1       -1.413  -2.063   0.004  0.00  0.00    +0.185 C 
BRANCH  21  22
ATOM     22  N   LIG    1       -2.783  -2.570  -0.106  0.00  0.00    -0.249 N 
ATOM     23  C   LIG    1       -3.254  -3.426  -1.029  0.00  0.00    +0.219 A 
ATOM     24  N   LIG    1       -4.523  -3.629  -0.784  0.00  0.00    -0.223 NA
ATOM     25  C   LIG    1       -4.896  -2.923   0.282  0.00  0.00    +0.244 A 
ATOM     26  N   LIG    1       -3.864  -2.262   0.736  0.00  0.00    -0.158 NA
ENDBRANCH  21  22
ENDBRANCH   1  21
TORSDOF 6
