REMARK  Name = ZINC00001758
REMARK                            x       y       z     vdW  Elec       q    Type
REMARK                         _______ _______ _______ _____ _____    ______ ____
ROOT
ATOM      1  C   LIG    1        0.929   1.351  -0.639  0.00  0.00    +0.048 C 
ATOM      2  C   LIG    1        0.993  -0.154  -0.591  0.00  0.00    -0.001 A 
ATOM      3  C   LIG    1        1.389  -0.859  -1.698  0.00  0.00    +0.014 A 
ATOM      4  C   LIG    1        1.451  -2.258  -1.662  0.00  0.00    +0.107 A 
ATOM      5  C   LIG    1        1.903  -2.718  -2.982  0.00  0.00    +0.343 C 
ATOM      6  O   LIG    1        2.110  -1.666  -3.792  0.00  0.00    -0.456 OA
ATOM      7  O   LIG    1        2.066  -3.881  -3.295  0.00  0.00    -0.245 OA
ATOM      8  C   LIG    1        1.105  -2.934  -0.483  0.00  0.00    +0.138 A 
ATOM      9  C   LIG    1        0.706  -2.213   0.629  0.00  0.00    +0.040 A 
ATOM     10  C   LIG    1        1.817  -0.456  -3.087  0.00  0.00    +0.269 C 
ATOM     11  C   LIG    1        0.655  -0.828   0.581  0.00  0.00    +0.130 A 
ENDROOT
BRANCH   8  12
ATOM     12  O   LIG    1        1.160  -4.289  -0.433  0.00  0.00    -0.506 OA
ATOM     13  H   LIG    1        2.015  -4.637  -0.147  0.00  0.00    +0.292 HD
ENDBRANCH   8  12
BRANCH  11  14
ATOM     14  O   LIG    1        0.269  -0.127   1.677  0.00  0.00    -0.494 OA
ATOM     15  C   LIG    1       -1.127   0.145   1.815  0.00  0.00    +0.277 C 
ENDBRANCH  11  14
BRANCH   9  16
ATOM     16  C   LIG    1        0.333  -2.935   1.898  0.00  0.00    +0.069 C 
BRANCH  16  17
ATOM     17  C   LIG    1        1.558  -3.104   2.759  0.00  0.00    -0.023 C 
ATOM     18  C   LIG    1        1.895  -4.293   3.192  0.00  0.00    -0.076 C 
ATOM     19  C   LIG    1        0.986  -5.470   2.949  0.00  0.00    +0.039 C 
BRANCH  18  20
ATOM     20  C   LIG    1        3.193  -4.485   3.934  0.00  0.00    +0.041 C 
BRANCH  20  21
ATOM     21  C   LIG    1        2.935  -4.410   5.441  0.00  0.00    +0.125 C 
BRANCH  21  22
ATOM     22  C   LIG    1        4.232  -4.602   6.183  0.00  0.00    +0.305 C 
ATOM     23  O   LIG    1        5.268  -4.782   5.564  0.00  0.00    -0.251 OA
BRANCH  22  24
ATOM     24  O   LIG    1        4.247  -4.577   7.402  0.00  0.00    -0.481 OA
ATOM     25  H   LIG    1        3.451  -4.439   7.877  0.00  0.00    +0.295 HD
ENDBRANCH  22  24
ENDBRANCH  21  22
ENDBRANCH  20  21
ENDBRANCH  18  20
ENDBRANCH  16  17
ENDBRANCH   9  16
TORSDOF 8
