REMARK  Name = ZINC27015737
REMARK                            x       y       z     vdW  Elec       q    Type
REMARK                         _______ _______ _______ _____ _____    ______ ____
ROOT
ATOM      1  N   LIG    1       -4.905  -3.869  -0.035  0.00  0.00    -0.175 NA
ATOM      2  C   LIG    1       -6.079  -4.468   0.074  0.00  0.00    +0.180 C 
ENDROOT
BRANCH   1   3
ATOM      3  N   LIG    1       -4.833  -2.581   0.003  0.00  0.00    -0.237 N 
ATOM      4  H   LIG    1       -5.644  -2.051   0.045  0.00  0.00    +0.174 HD
BRANCH   3   8
ATOM      5  C   LIG    1       -1.118  -0.702  -0.052  0.00  0.00    +0.120 A 
ATOM      6  C   LIG    1       -2.278   0.058   0.006  0.00  0.00    +0.047 A 
ATOM      7  C   LIG    1       -3.510  -0.564   0.025  0.00  0.00    +0.028 A 
ATOM      8  C   LIG    1       -3.588  -1.951  -0.016  0.00  0.00    +0.049 A 
ATOM      9  C   LIG    1       -2.425  -2.711  -0.075  0.00  0.00    +0.028 A 
ATOM     10  C   LIG    1       -1.195  -2.087  -0.099  0.00  0.00    +0.047 A 
BRANCH   5  12
ATOM     11  C   LIG    1        0.100   1.340  -0.020  0.00  0.00    +0.277 C 
ATOM     12  O   LIG    1        0.095  -0.088  -0.070  0.00  0.00    -0.495 OA
ENDBRANCH   5  12
ENDBRANCH   3   8
ENDBRANCH   1   3
BRANCH   2  13
ATOM     13  C   LIG    1       -7.304  -3.672   0.136  0.00  0.00    +0.289 C 
ATOM     14  O   LIG    1       -7.942  -3.461  -0.875  0.00  0.00    -0.281 OA
BRANCH  13  15
ATOM     15  C   LIG    1       -7.775  -3.115   1.454  0.00  0.00    +0.457 C 
ATOM     16  F   LIG    1       -6.845  -2.181   1.924  0.00  0.00    -0.163 F 
ATOM     17  F   LIG    1       -7.900  -4.155   2.382  0.00  0.00    -0.163 F 
ATOM     18  F   LIG    1       -9.015  -2.492   1.281  0.00  0.00    -0.163 F 
ENDBRANCH  13  15
ENDBRANCH   2  13
BRANCH   2  19
ATOM     19  C   LIG    1       -6.152  -5.936   0.133  0.00  0.00    +0.216 C 
ATOM     20  O   LIG    1       -7.233  -6.493   0.112  0.00  0.00    -0.285 OA
BRANCH  19  21
ATOM     21  C   LIG    1       -4.911  -6.734   0.218  0.00  0.00    +0.024 A 
ATOM     22  C   LIG    1       -3.682  -6.101   0.413  0.00  0.00    +0.013 A 
ATOM     23  C   LIG    1       -2.528  -6.852   0.491  0.00  0.00    +0.021 A 
ATOM     24  C   LIG    1       -2.586  -8.231   0.377  0.00  0.00    +0.041 A 
ATOM     25 CL   LIG    1       -1.129  -9.169   0.476  0.00  0.00    -0.084 Cl
ATOM     26  C   LIG    1       -3.803  -8.865   0.183  0.00  0.00    +0.021 A 
ATOM     27  C   LIG    1       -4.964  -8.126   0.109  0.00  0.00    +0.013 A 
ENDBRANCH  19  21
ENDBRANCH   2  19
TORSDOF 7
