REMARK  Name = ZINC13861501
REMARK                            x       y       z     vdW  Elec       q    Type
REMARK                         _______ _______ _______ _____ _____    ______ ____
ROOT
ATOM      1  C   LIG    1       -5.091   1.939  -7.468  0.00  0.00    -0.079 C 
ENDROOT
BRANCH   1   5
ATOM      2  N   LIG    1       -6.403   0.857 -11.335  0.00  0.00    -0.333 N 
ATOM      3  C   LIG    1       -7.399   1.386 -10.393  0.00  0.00    +0.086 C 
ATOM      4  C   LIG    1       -6.684   2.155  -9.278  0.00  0.00    -0.060 C 
ATOM      5  N   LIG    1       -5.756   1.236  -8.585  0.00  0.00    +0.382 N 
ATOM      6  H   LIG    1       -6.290   0.443  -8.210  0.00  0.00    -0.082 HD
ATOM      7  C   LIG    1       -4.746   0.728  -9.537  0.00  0.00    -0.060 C 
ATOM      8  C   LIG    1       -5.460  -0.040 -10.651  0.00  0.00    +0.086 C 
BRANCH   2  15
ATOM      9  C   LIG    1       -5.922   1.845 -13.959  0.00  0.00    +0.045 C 
ATOM     10  C   LIG    1       -6.815   0.658 -13.704  0.00  0.00    -0.029 A 
ATOM     11  C   LIG    1       -7.428   0.015 -14.762  0.00  0.00    +0.005 A 
ATOM     12  C   LIG    1       -8.248  -1.074 -14.530  0.00  0.00    +0.000 A 
ATOM     13  C   LIG    1       -8.456  -1.524 -13.238  0.00  0.00    +0.002 A 
ATOM     14  C   LIG    1       -7.842  -0.889 -12.177  0.00  0.00    +0.023 A 
ATOM     15  C   LIG    1       -7.022   0.209 -12.406  0.00  0.00    +0.033 A 
ENDBRANCH   2  15
ENDBRANCH   1   5
BRANCH   1  16
ATOM     16  C   LIG    1       -4.314   0.917  -6.635  0.00  0.00    -0.017 C 
BRANCH  16  17
ATOM     17  C   LIG    1       -3.635   1.626  -5.461  0.00  0.00    +0.017 C 
BRANCH  17  18
ATOM     18  C   LIG    1       -2.859   0.605  -4.628  0.00  0.00    +0.108 C 
BRANCH  18  19
ATOM     19  N   LIG    1       -2.209   1.284  -3.504  0.00  0.00    -0.291 N 
ATOM     20  C   LIG    1       -0.849   1.838  -3.622  0.00  0.00    +0.203 C 
ATOM     21  C   LIG    1       -0.064   1.443  -2.388  0.00  0.00    +0.234 C 
ATOM     22  N   LIG    1       -0.702   1.560  -1.183  0.00  0.00    -0.289 N 
ATOM     23  C   LIG    1       -0.013   1.086   0.008  0.00  0.00    +0.108 C 
ATOM     24  C   LIG    1       -0.712   1.571   1.277  0.00  0.00    +0.019 C 
ATOM     25  C   LIG    1       -2.206   1.247   1.138  0.00  0.00    +0.004 C 
ATOM     26  C   LIG    1       -2.788   2.190   0.087  0.00  0.00    +0.032 C 
ATOM     27  C   LIG    1       -2.041   2.117  -1.217  0.00  0.00    +0.162 C 
ATOM     28  O   LIG    1        1.078   1.041  -2.465  0.00  0.00    -0.274 OA
ATOM     29  C   LIG    1       -2.836   1.431  -2.302  0.00  0.00    +0.237 C 
ATOM     30  O   LIG    1       -3.967   1.034  -2.115  0.00  0.00    -0.274 OA
ENDBRANCH  18  19
ENDBRANCH  17  18
ENDBRANCH  16  17
ENDBRANCH   1  16
TORSDOF 6
