REMARK  Name = ZINC16052862
REMARK                            x       y       z     vdW  Elec       q    Type
REMARK                         _______ _______ _______ _____ _____    ______ ____
ROOT
ATOM      1  C   LIG    1       -0.016   1.360   0.009  0.00  0.00    +0.001 A 
ATOM      2  C   LIG    1        1.170   2.085   0.002  0.00  0.00    +0.002 A 
ATOM      3  C   LIG    1        2.378   1.448  -0.013  0.00  0.00    +0.028 A 
ATOM      4  C   LIG    1        2.428   0.056  -0.021  0.00  0.00    +0.066 A 
ATOM      5  C   LIG    1        1.228  -0.679  -0.013  0.00  0.00    +0.019 A 
ATOM      6  C   LIG    1        1.609  -2.088  -0.025  0.00  0.00    +0.142 A 
ATOM      7  N   LIG    1        2.910  -2.147  -0.038  0.00  0.00    -0.181 NA
ATOM      8  N   LIG    1        3.450  -0.857  -0.036  0.00  0.00    -0.277 N 
ATOM      9  H   LIG    1        4.396  -0.642  -0.044  0.00  0.00    +0.189 HD
ATOM     10  C   LIG    1        0.002  -0.004   0.002  0.00  0.00    +0.011 A 
ENDROOT
TORSDOF 0
