REMARK  Name = ZINC40169658
REMARK                            x       y       z     vdW  Elec       q    Type
REMARK                         _______ _______ _______ _____ _____    ______ ____
ROOT
ATOM      1  C   LIG    1       -1.272  -0.766   0.011  0.00  0.00    +0.182 A 
ATOM      2  N   LIG    1       -2.497  -0.231   0.020  0.00  0.00    -0.207 NA
ATOM      3  C   LIG    1       -3.399  -1.188   0.026  0.00  0.00    +0.157 A 
ATOM      4  N   LIG    1       -2.750  -2.376   0.020  0.00  0.00    -0.258 N 
ATOM      5  H   LIG    1       -3.153  -3.258   0.021  0.00  0.00    +0.191 HD
ATOM      6  N   LIG    1       -1.378  -2.078   0.004  0.00  0.00    -0.152 NA
ENDROOT
BRANCH   1  13
ATOM      7  C   LIG    1       -0.017   1.389   0.010  0.00  0.00    +0.013 A 
ATOM      8  C   LIG    1        1.170   2.093   0.002  0.00  0.00    +0.023 A 
ATOM      9  C   LIG    1        2.378   1.417  -0.013  0.00  0.00    +0.071 A 
ATOM     10 CL   LIG    1        3.868   2.308  -0.023  0.00  0.00    -0.081 Cl
ATOM     11  C   LIG    1        2.402   0.033  -0.021  0.00  0.00    +0.140 A 
ATOM     12  C   LIG    1        1.221  -0.680  -0.013  0.00  0.00    +0.045 A 
ATOM     13  C   LIG    1        0.002  -0.004   0.002  0.00  0.00    +0.023 A 
BRANCH  11  14
ATOM     14  N   LIG    1        3.697  -0.684  -0.037  0.00  0.00    +0.007 N 
ATOM     15  O   LIG    1        3.719  -1.893  -0.044  0.00  0.00    -0.130 OA
BRANCH  14  16
ATOM     16  O   LIG    1        4.733  -0.060  -0.044  0.00  0.00    -0.396 OA
ATOM     17  H   LIG    1        4.716   0.877  -0.039  0.00  0.00    +0.329 HD
ENDBRANCH  14  16
ENDBRANCH  11  14
ENDBRANCH   1  13
BRANCH   3  18
ATOM     18  C   LIG    1       -4.868  -1.000   0.038  0.00  0.00    +0.022 A 
ATOM     19  C   LIG    1       -5.734  -2.098   0.049  0.00  0.00    +0.031 A 
ATOM     20  C   LIG    1       -7.095  -1.877   0.060  0.00  0.00    +0.111 A 
ATOM     21  N   LIG    1       -7.582  -0.650   0.059  0.00  0.00    -0.263 NA
ATOM     22  C   LIG    1       -6.801   0.412   0.049  0.00  0.00    +0.111 A 
ATOM     23  C   LIG    1       -5.427   0.282   0.044  0.00  0.00    +0.031 A 
ENDBRANCH   3  18
TORSDOF 4
