REMARK  Name = ZINC00005467
REMARK                            x       y       z     vdW  Elec       q    Type
REMARK                         _______ _______ _______ _____ _____    ______ ____
ROOT
ATOM      1  C   LIG    1        2.341   1.417  -0.013  0.00  0.00    +0.105 A 
ATOM      2  C   LIG    1        1.139   2.066   0.002  0.00  0.00    +0.109 A 
ATOM      3  N   LIG    1       -0.016   1.339   0.009  0.00  0.00    -0.313 N 
ATOM      4  C   LIG    1        0.002  -0.004   0.002  0.00  0.00    +0.327 A 
ATOM      5  N   LIG    1        1.153  -0.699  -0.013  0.00  0.00    -0.274 N 
ATOM      6  H   LIG    1        1.131  -1.698  -0.018  0.00  0.00    +0.173 HD
ATOM      7  O   LIG    1       -1.053  -0.609   0.009  0.00  0.00    -0.247 OA
ATOM      8  H   LIG    1       -0.895   1.816   0.020  0.00  0.00    +0.170 HD
ATOM      9  C   LIG    1        2.338  -0.054  -0.021  0.00  0.00    +0.269 A 
ATOM     10  O   LIG    1        3.384  -0.676  -0.035  0.00  0.00    -0.266 OA
ENDROOT
BRANCH   1  12
ATOM     11  C   LIG    1        4.580   2.750  -0.026  0.00  0.00    +0.009 C 
ATOM     12  C   LIG    1        3.571   2.149  -0.020  0.00  0.00    -0.063 C 
ENDBRANCH   1  12
TORSDOF 1
