REMARK  Name = ZINC59592628
REMARK                            x       y       z     vdW  Elec       q    Type
REMARK                         _______ _______ _______ _____ _____    ______ ____
ROOT
ATOM      1  N   LIG    1        5.707  -3.288   1.540  0.00  0.00    -0.175 NA
ATOM      2  C   LIG    1        6.496  -2.194   2.141  0.00  0.00    +0.111 C 
ATOM      3  C   LIG    1        5.993  -1.854   3.554  0.00  0.00    +0.032 C 
ATOM      4  C   LIG    1        4.482  -1.902   3.581  0.00  0.00    +0.086 C 
ATOM      5  N   LIG    1        4.053  -3.240   3.985  0.00  0.00    -0.297 NA
ATOM      6  C   LIG    1        3.921  -4.196   2.951  0.00  0.00    +0.102 C 
ATOM      7  C   LIG    1        5.293  -4.454   2.294  0.00  0.00    +0.125 C 
ENDROOT
BRANCH   1   8
ATOM      8  S   LIG    1        5.275  -3.176  -0.054  0.00  0.00    +0.061 S 
ATOM      9  O   LIG    1        6.218  -2.310  -0.671  0.00  0.00    -0.153 OA
ATOM     10  O   LIG    1        5.048  -4.503  -0.508  0.00  0.00    -0.153 OA
BRANCH   8  16
ATOM     11  C   LIG    1       -0.025   0.927  -0.358  0.00  0.00    +0.001 A 
ATOM     12  C   LIG    1        1.151   1.674  -0.413  0.00  0.00    +0.001 A 
ATOM     13  C   LIG    1        2.369   1.068  -0.368  0.00  0.00    +0.008 A 
ATOM     14  C   LIG    1        2.445  -0.332  -0.265  0.00  0.00    -0.016 A 
ATOM     15  C   LIG    1        3.684  -0.994  -0.216  0.00  0.00    +0.037 A 
ATOM     16  C   LIG    1        3.720  -2.350  -0.115  0.00  0.00    +0.106 A 
ATOM     17  C   LIG    1        2.544  -3.097  -0.060  0.00  0.00    +0.029 A 
ATOM     18  C   LIG    1        1.326  -2.490  -0.105  0.00  0.00    +0.010 A 
ATOM     19  C   LIG    1        1.250  -1.091  -0.209  0.00  0.00    -0.018 A 
ATOM     20  C   LIG    1        0.011  -0.429  -0.258  0.00  0.00    +0.008 A 
ENDBRANCH   8  16
ENDBRANCH   1   8
BRANCH   5  21
ATOM     21  C   LIG    1        2.834  -3.178   4.803  0.00  0.00    +0.124 C 
BRANCH  21  22
ATOM     22  C   LIG    1        3.184  -2.715   6.193  0.00  0.00    +0.020 A 
ATOM     23  C   LIG    1        3.030  -1.383   6.539  0.00  0.00    +0.129 A 
ATOM     24  F   LIG    1        2.565  -0.498   5.630  0.00  0.00    -0.205 F 
ATOM     25  C   LIG    1        3.353  -0.959   7.817  0.00  0.00    +0.039 A 
ATOM     26  C   LIG    1        3.829  -1.864   8.746  0.00  0.00    +0.004 A 
ATOM     27  C   LIG    1        3.983  -3.194   8.401  0.00  0.00    +0.020 A 
ATOM     28  C   LIG    1        3.655  -3.621   7.126  0.00  0.00    +0.048 A 
ATOM     29 CL   LIG    1        3.843  -5.292   6.695  0.00  0.00    -0.083 Cl
ENDBRANCH  21  22
ENDBRANCH   5  21
TORSDOF 4
