REMARK  Name = ZINC25995973
REMARK                            x       y       z     vdW  Elec       q    Type
REMARK                         _______ _______ _______ _____ _____    ______ ____
ROOT
ATOM      1  C   LIG    1       -3.559   4.400   3.673  0.00  0.00    +0.246 C 
ATOM      2  C   LIG    1       -2.739   5.288   4.618  0.00  0.00    +0.244 C 
ATOM      3  O   LIG    1       -1.431   4.719   4.746  0.00  0.00    -0.479 OA
ATOM      4  C   LIG    1       -0.819   4.331   3.594  0.00  0.00    +0.163 A 
ATOM      5  C   LIG    1        0.552   4.116   3.591  0.00  0.00    +0.050 A 
ATOM      6  C   LIG    1        1.186   3.711   2.432  0.00  0.00    +0.011 A 
ATOM      7  C   LIG    1        0.459   3.530   1.270  0.00  0.00    -0.001 A 
ATOM      8  C   LIG    1       -0.906   3.743   1.266  0.00  0.00    +0.056 A 
ATOM      9  C   LIG    1       -1.550   4.146   2.427  0.00  0.00    +0.163 A 
ATOM     10  O   LIG    1       -2.894   4.360   2.406  0.00  0.00    -0.477 OA
ENDROOT
BRANCH   7  11
ATOM     11  C   LIG    1        1.156   3.092   0.008  0.00  0.00    +0.240 C 
ATOM     12  C   LIG    1        1.286   1.562  -0.002  0.00  0.00    +0.230 C 
ATOM     13  C   LIG    1        2.022   1.182  -1.274  0.00  0.00    +0.202 C 
ATOM     14  C   LIG    1        3.140   2.046  -1.669  0.00  0.00    +0.103 A 
ATOM     15  C   LIG    1        4.033   1.647  -2.676  0.00  0.00    +0.134 A 
ATOM     16  C   LIG    1        5.069   2.487  -3.040  0.00  0.00    +0.091 A 
ATOM     17  C   LIG    1        5.224   3.716  -2.409  0.00  0.00    +0.124 A 
ATOM     18  C   LIG    1        4.348   4.113  -1.408  0.00  0.00    +0.092 A 
ATOM     19  C   LIG    1        3.305   3.287  -1.027  0.00  0.00    +0.139 A 
ATOM     20  O   LIG    1        1.702   0.212  -1.931  0.00  0.00    -0.289 OA
ATOM     21  O   LIG    1        2.457   3.677  -0.046  0.00  0.00    -0.480 OA
BRANCH  12  22
ATOM     22  O   LIG    1       -0.011   0.963   0.007  0.00  0.00    -0.380 OA
ATOM     23  H   LIG    1       -0.111  -0.133   0.002  0.00  0.00    +0.211 HD
ENDBRANCH  12  22
BRANCH  15  24
ATOM     24  O   LIG    1        3.880   0.446  -3.288  0.00  0.00    -0.506 OA
ATOM     25  H   LIG    1        4.582   0.137  -4.077  0.00  0.00    +0.292 HD
ENDBRANCH  15  24
BRANCH  17  26
ATOM     26  O   LIG    1        6.242   4.535  -2.775  0.00  0.00    -0.507 OA
ATOM     27  H   LIG    1        6.369   5.508  -2.279  0.00  0.00    +0.292 HD
ENDBRANCH  17  26
ENDBRANCH   7  11
BRANCH   1  30
ATOM     28  C   LIG    1       -7.250   5.055   4.139  0.00  0.00    +0.162 A 
ATOM     29  C   LIG    1       -5.980   4.524   4.293  0.00  0.00    +0.056 A 
ATOM     30  C   LIG    1       -4.941   4.978   3.503  0.00  0.00    -0.000 A 
ATOM     31  C   LIG    1       -5.164   5.965   2.561  0.00  0.00    +0.011 A 
ATOM     32  C   LIG    1       -6.431   6.495   2.399  0.00  0.00    +0.049 A 
ATOM     33  C   LIG    1       -7.477   6.045   3.188  0.00  0.00    +0.158 A 
BRANCH  28  35
ATOM     34  C   LIG    1       -7.968   3.593   5.872  0.00  0.00    +0.277 C 
ATOM     35  O   LIG    1       -8.274   4.610   4.916  0.00  0.00    -0.491 OA
ENDBRANCH  28  35
BRANCH  33  36
ATOM     36  O   LIG    1       -8.722   6.569   3.032  0.00  0.00    -0.503 OA
ATOM     37  H   LIG    1       -8.900   7.351   2.280  0.00  0.00    +0.292 HD
ENDBRANCH  33  36
ENDBRANCH   1  30
BRANCH   2  38
ATOM     38  C   LIG    1       -2.633   6.700   4.039  0.00  0.00    +0.204 C 
BRANCH  38  39
ATOM     39  O   LIG    1       -1.945   7.544   4.964  0.00  0.00    -0.391 OA
ATOM     40  H   LIG    1       -1.772   8.602   4.719  0.00  0.00    +0.210 HD
ENDBRANCH  38  39
ENDBRANCH   2  38
TORSDOF 9
