REMARK  Name = ZINC28232228
REMARK                            x       y       z     vdW  Elec       q    Type
REMARK                         _______ _______ _______ _____ _____    ______ ____
ROOT
ATOM      1  N   LIG    1       -3.620  -1.910  -1.045  0.00  0.00    -0.327 N 
ATOM      2  C   LIG    1       -3.600  -0.441  -1.009  0.00  0.00    +0.120 C 
ATOM      3  C   LIG    1       -2.153   0.050  -1.101  0.00  0.00    +0.103 C 
ATOM      4  N   LIG    1       -1.376  -0.512   0.012  0.00  0.00    -0.294 NA
ATOM      5  C   LIG    1       -1.396  -1.982  -0.024  0.00  0.00    +0.103 C 
ATOM      6  C   LIG    1       -2.842  -2.472   0.068  0.00  0.00    +0.120 C 
ENDROOT
BRANCH   1  13
ATOM      7  C   LIG    1       -7.984  -2.257   1.189  0.00  0.00    +0.044 C 
ATOM      8  C   LIG    1       -7.068  -2.578   0.035  0.00  0.00    -0.049 A 
ATOM      9  C   LIG    1       -7.526  -3.353  -1.015  0.00  0.00    +0.004 A 
ATOM     10  C   LIG    1       -6.689  -3.649  -2.075  0.00  0.00    +0.005 A 
ATOM     11  C   LIG    1       -5.393  -3.172  -2.088  0.00  0.00    -0.029 A 
ATOM     12  C   LIG    1       -4.481  -3.497  -3.244  0.00  0.00    +0.045 C 
ATOM     13  C   LIG    1       -4.930  -2.394  -1.035  0.00  0.00    +0.033 A 
ATOM     14  C   LIG    1       -5.772  -2.102   0.031  0.00  0.00    +0.026 A 
ENDBRANCH   1  13
BRANCH   4  15
ATOM     15  C   LIG    1        0.002  -0.004   0.002  0.00  0.00    +0.085 C 
ATOM     16  C   LIG    1        0.612  -0.212  -1.386  0.00  0.00    +0.021 C 
ATOM     17  C   LIG    1        2.047   0.318  -1.397  0.00  0.00    +0.002 C 
ATOM     18  C   LIG    1        2.043   1.810  -1.060  0.00  0.00    +0.003 C 
ATOM     19  C   LIG    1        1.433   2.018   0.328  0.00  0.00    +0.033 C 
ATOM     20  C   LIG    1       -0.002   1.488   0.339  0.00  0.00    +0.132 C 
BRANCH  20  21
ATOM     21  O   LIG    1       -0.572   1.683   1.635  0.00  0.00    -0.390 OA
ATOM     22  H   LIG    1       -0.660   2.697   2.051  0.00  0.00    +0.210 HD
ENDBRANCH  20  21
ENDBRANCH   4  15
TORSDOF 3
