REMARK  Name = ZINC19168079
REMARK                            x       y       z     vdW  Elec       q    Type
REMARK                         _______ _______ _______ _____ _____    ______ ____
ROOT
ATOM      1  C   LIG    1        1.853   4.119  -1.243  0.00  0.00    +0.013 C 
ATOM      2  C   LIG    1        1.151   3.592   0.010  0.00  0.00    +0.028 C 
ENDROOT
BRANCH   2   3
ATOM      3  C   LIG    1        1.171   2.086   0.002  0.00  0.00    -0.043 A 
ATOM      4  C   LIG    1       -0.017   1.378   0.010  0.00  0.00    +0.004 A 
ATOM      5  C   LIG    1        0.002  -0.004   0.002  0.00  0.00    +0.000 A 
ATOM      6  C   LIG    1        1.208  -0.679  -0.014  0.00  0.00    +0.000 A 
ATOM      7  C   LIG    1        2.396   0.029  -0.021  0.00  0.00    +0.000 A 
ATOM      8  C   LIG    1        2.377   1.411  -0.014  0.00  0.00    +0.004 A 
ENDBRANCH   2   3
BRANCH   2   9
ATOM      9  C   LIG    1        1.876   4.106   1.255  0.00  0.00    +0.071 C 
BRANCH   9  10
ATOM     10  N   LIG    1        1.754   5.568   1.325  0.00  0.00    -0.369 NA
ATOM     11  H   LIG    1        2.203   6.017   0.428  0.00  0.00    +0.101 HD
BRANCH  10  12
ATOM     12  N   LIG    1        2.433   6.092   2.499  0.00  0.00    +0.387 N 
ATOM     13  H   LIG    1        1.988   5.657   3.406  0.00  0.00    -0.065 HD
ATOM     14  H   LIG    1        3.500   5.830   2.452  0.00  0.00    -0.065 HD
ATOM     15  H   LIG    1        2.325   7.186   2.527  0.00  0.00    -0.065 HD
ENDBRANCH  10  12
ENDBRANCH   9  10
ENDBRANCH   2   9
TORSDOF 4
