REMARK  Name = ZINC22055353
REMARK                            x       y       z     vdW  Elec       q    Type
REMARK                         _______ _______ _______ _____ _____    ______ ____
ROOT
ATOM      1  C   UNK    1       -0.158   0.156  -0.153  0.00  0.00    +0.047 C 
ENDROOT
BRANCH   1   2
ATOM      2  N   UNK    1        0.295  -0.159  -1.514  0.00  0.00    +0.388 N 
ATOM      3  H   UNK    1        0.156  -1.142  -1.696  0.00  0.00    -0.089 HD
ATOM      4  H   UNK    1        1.275   0.064  -1.603  0.00  0.00    -0.089 HD
ATOM      5  H   UNK    1       -0.235   0.384  -2.179  0.00  0.00    -0.089 HD
ENDBRANCH   1   2
BRANCH   1   6
ATOM      6  C   UNK    1       -1.579  -0.311   0.025  0.00  0.00    +0.291 C 
ATOM      7  O   UNK    1       -2.335  -0.339  -0.931  0.00  0.00    -0.253 OA
BRANCH   6   8
ATOM      8  O   UNK    1       -1.973  -0.661   1.124  0.00  0.00    -0.482 OA
ATOM      9  H   UNK    1       -1.392  -0.639   1.859  0.00  0.00    +0.295 HD
ENDBRANCH   6   8
ENDBRANCH   1   6
BRANCH   1  10
ATOM     10  C   UNK    1       -0.086   1.668   0.071  0.00  0.00    +0.090 C 
BRANCH  10  11
ATOM     11  S   UNK    1        1.647   2.204   0.030  0.00  0.00    +0.025 S 
BRANCH  11  12
ATOM     12  S   UNK    1        2.395   1.604   1.841  0.00  0.00    +0.135 S 
ATOM     13  O   UNK    1        1.410   1.970   2.848  0.00  0.00    -0.136 OA
ATOM     14  O   UNK    1        3.654   2.307   2.032  0.00  0.00    -0.136 OA
BRANCH  12  15
ATOM     15  O   UNK    1        2.583   0.163   1.765  0.00  0.00    -0.245 OA
ATOM     16  H   UNK    1        3.244  -0.041   1.085  0.00  0.00    +0.245 HD
ENDBRANCH  12  15
ENDBRANCH  11  12
ENDBRANCH  10  11
ENDBRANCH   1  10
TORSDOF 7
