REMARK  Name = ZINC00005691
REMARK                            x       y       z     vdW  Elec       q    Type
REMARK                         _______ _______ _______ _____ _____    ______ ____
ROOT
ATOM      1  C   LIG    1        4.394  -1.086   1.641  0.00  0.00    +0.131 A 
ATOM      2  C   LIG    1        5.257  -0.263   2.405  0.00  0.00    +0.027 A 
ATOM      3  C   LIG    1        5.945   0.926   2.129  0.00  0.00    +0.032 A 
ATOM      4  C   LIG    1        6.722   1.500   3.093  0.00  0.00    +0.042 A 
ATOM      5 CL   LIG    1        7.574   2.973   2.748  0.00  0.00    -0.084 Cl
ATOM      6  C   LIG    1        6.838   0.915   4.350  0.00  0.00    +0.022 A 
ATOM      7  C   LIG    1        6.171  -0.253   4.644  0.00  0.00    +0.028 A 
ATOM      8  C   LIG    1        5.372  -0.856   3.676  0.00  0.00    +0.049 A 
ATOM      9  N   LIG    1        4.602  -1.996   3.670  0.00  0.00    -0.349 N 
ATOM     10  H   LIG    1        4.492  -2.608   4.414  0.00  0.00    +0.166 HD
ATOM     11  C   LIG    1        4.007  -2.123   2.429  0.00  0.00    +0.128 A 
ENDROOT
BRANCH  11  12
ATOM     12  C   LIG    1        3.103  -3.210   2.025  0.00  0.00    +0.260 C 
ATOM     13  N   LIG    1        2.698  -4.122   2.931  0.00  0.00    -0.324 N 
ATOM     14  H   LIG    1        2.102  -4.839   2.665  0.00  0.00    +0.145 HD
ATOM     15  H   LIG    1        3.004  -4.062   3.850  0.00  0.00    +0.145 HD
ATOM     16  O   LIG    1        2.719  -3.285   0.873  0.00  0.00    -0.269 OA
ENDBRANCH  11  12
BRANCH   1  17
ATOM     17  S   LIG    1        3.903  -0.811  -0.028  0.00  0.00    +0.028 S 
ATOM     18  O   LIG    1        2.571  -1.290  -0.144  0.00  0.00    -0.164 OA
ATOM     19  O   LIG    1        4.261   0.529  -0.341  0.00  0.00    -0.164 OA
BRANCH  17  23
ATOM     20  C   LIG    1        6.469  -3.476  -2.636  0.00  0.00    +0.000 A 
ATOM     21  C   LIG    1        5.265  -3.944  -2.143  0.00  0.00    +0.002 A 
ATOM     22  C   LIG    1        4.482  -3.130  -1.346  0.00  0.00    +0.027 A 
ATOM     23  C   LIG    1        4.902  -1.849  -1.043  0.00  0.00    +0.094 A 
ATOM     24  C   LIG    1        6.106  -1.381  -1.536  0.00  0.00    +0.027 A 
ATOM     25  C   LIG    1        6.889  -2.195  -2.333  0.00  0.00    +0.002 A 
ENDBRANCH  17  23
ENDBRANCH   1  17
TORSDOF 3
