REMARK  Name = ZINC13779543
REMARK                            x       y       z     vdW  Elec       q    Type
REMARK                         _______ _______ _______ _____ _____    ______ ____
ROOT
ATOM      1  C   LIG    1       -0.633   2.967   1.350  0.00  0.00    -0.011 C 
ATOM      2  C   LIG    1       -1.396   3.416   0.102  0.00  0.00    +0.003 C 
ATOM      3  C   LIG    1       -1.424   4.944   0.044  0.00  0.00    +0.001 C 
ATOM      4  C   LIG    1       -2.122   5.489   1.292  0.00  0.00    +0.005 C 
ATOM      5  C   LIG    1       -1.360   5.040   2.540  0.00  0.00    -0.035 C 
ATOM      6  C   LIG    1       -1.331   3.512   2.598  0.00  0.00    +0.009 C 
ENDROOT
BRANCH   1   8
ATOM      7  C   LIG    1        0.202   0.898   0.226  0.00  0.00    +0.004 C 
ATOM      8  C   LIG    1       -0.605   1.438   1.408  0.00  0.00    +0.000 C 
ENDBRANCH   1   8
BRANCH   5   9
ATOM      9  C   LIG    1        0.072   5.575   2.482  0.00  0.00    -0.079 C 
BRANCH   9  10
ATOM     10  N   LIG    1        0.748   5.270   3.756  0.00  0.00    +0.378 N 
ATOM     11  H   LIG    1        0.205   5.670   4.530  0.00  0.00    -0.090 HD
ATOM     12  H   LIG    1        1.683   5.676   3.761  0.00  0.00    -0.090 HD
ATOM     13  H   LIG    1        0.816   4.262   3.882  0.00  0.00    -0.090 HD
ENDBRANCH   9  10
ENDBRANCH   5   9
BRANCH   5  14
ATOM     14  C   LIG    1       -2.058   5.585   3.787  0.00  0.00    +0.125 C 
BRANCH  14  15
ATOM     15  C   LIG    1       -2.133   7.088   3.705  0.00  0.00    +0.305 C 
ATOM     16  O   LIG    1       -1.579   7.672   2.805  0.00  0.00    -0.251 OA
BRANCH  15  17
ATOM     17  O   LIG    1       -2.816   7.778   4.633  0.00  0.00    -0.481 OA
ATOM     18  H   LIG    1       -3.246   7.325   5.331  0.00  0.00    +0.295 HD
ENDBRANCH  15  17
ENDBRANCH  14  15
ENDBRANCH   5  14
TORSDOF 6
