REMARK  Name = ZINC43175302
REMARK                            x       y       z     vdW  Elec       q    Type
REMARK                         _______ _______ _______ _____ _____    ______ ____
ROOT
ATOM      1  C   LIG    1        0.150  -0.838  -1.722  0.00  0.00    +0.127 A 
ATOM      2  C   LIG    1        0.105  -2.171  -2.104  0.00  0.00    +0.057 A 
ATOM      3  C   LIG    1       -0.130  -2.197  -3.495  0.00  0.00    +0.115 A 
ATOM      4  N   LIG    1       -0.219  -0.965  -3.917  0.00  0.00    -0.302 N 
ATOM      5  H   LIG    1       -0.378  -0.695  -4.835  0.00  0.00    +0.186 HD
ATOM      6  N   LIG    1       -0.055  -0.097  -2.832  0.00  0.00    -0.268 N 
ENDROOT
BRANCH   2   7
ATOM      7  C   LIG    1        0.272  -3.344  -1.220  0.00  0.00    +0.081 A 
ATOM      8  C   LIG    1        0.106  -4.641  -1.720  0.00  0.00    +0.048 A 
ATOM      9  C   LIG    1        0.272  -5.706  -0.857  0.00  0.00    +0.116 A 
ATOM     10  N   LIG    1        0.583  -5.471   0.410  0.00  0.00    -0.223 NA
ATOM     11  C   LIG    1        0.734  -4.234   0.858  0.00  0.00    +0.216 A 
ATOM     12  N   LIG    1        0.589  -3.184   0.065  0.00  0.00    -0.214 NA
BRANCH  11  13
ATOM     13  N   LIG    1        1.058  -4.033   2.189  0.00  0.00    -0.311 N 
ATOM     14  H   LIG    1        1.173  -3.132   2.530  0.00  0.00    +0.149 HD
BRANCH  13  15
ATOM     15  C   LIG    1        1.229  -5.182   3.082  0.00  0.00    +0.073 C 
ATOM     16  C   LIG    1       -0.134  -5.609   3.630  0.00  0.00    +0.025 C 
ATOM     17  C   LIG    1       -0.758  -4.447   4.406  0.00  0.00    +0.033 C 
ATOM     18  C   LIG    1        0.160  -4.058   5.567  0.00  0.00    +0.115 C 
ATOM     19  C   LIG    1        1.523  -3.631   5.019  0.00  0.00    +0.033 C 
ATOM     20  C   LIG    1        2.147  -4.793   4.243  0.00  0.00    +0.025 C 
BRANCH  18  21
ATOM     21  O   LIG    1       -0.423  -2.974   6.292  0.00  0.00    -0.392 OA
ATOM     22  H   LIG    1        0.106  -2.674   7.044  0.00  0.00    +0.210 HD
ENDBRANCH  18  21
ENDBRANCH  13  15
ENDBRANCH  11  13
ENDBRANCH   2   7
BRANCH   1  24
ATOM     23  C   LIG    1       -0.784  -0.012   0.409  0.00  0.00    +0.130 C 
ATOM     24  N   LIG    1        0.359  -0.357  -0.439  0.00  0.00    -0.321 N 
ATOM     25  C   LIG    1        1.724  -0.195   0.068  0.00  0.00    +0.130 C 
ENDBRANCH   1  24
BRANCH   6  26
ATOM     26  C   LIG    1       -0.095   1.366  -2.891  0.00  0.00    +0.178 C 
BRANCH  26  27
ATOM     27  C   LIG    1        1.304   1.901  -3.059  0.00  0.00    -0.026 A 
ATOM     28  C   LIG    1        2.026   2.308  -1.952  0.00  0.00    +0.005 A 
ATOM     29  C   LIG    1        3.309   2.798  -2.107  0.00  0.00    +0.000 A 
ATOM     30  C   LIG    1        3.871   2.880  -3.367  0.00  0.00    +0.000 A 
ATOM     31  C   LIG    1        3.150   2.472  -4.473  0.00  0.00    +0.000 A 
ATOM     32  C   LIG    1        1.868   1.978  -4.319  0.00  0.00    +0.005 A 
ENDBRANCH  26  27
ENDBRANCH   6  26
TORSDOF 7
