REMARK  Name = ZINC16051892
REMARK                            x       y       z     vdW  Elec       q    Type
REMARK                         _______ _______ _______ _____ _____    ______ ____
ROOT
ATOM      1  C   LIG    1        1.275  -1.333   4.943  0.00  0.00    +0.073 C 
ATOM      2  C   LIG    1        1.295  -1.000   3.473  0.00  0.00    +0.069 C 
ATOM      3  N   LIG    1        2.189  -0.323   2.843  0.00  0.00    -0.272 NA
ATOM      4  C   LIG    1        2.086  -0.041   1.416  0.00  0.00    +0.176 C 
ATOM      5  C   LIG    1        2.175   1.453   1.201  0.00  0.00    +0.173 C 
ATOM      6  C   LIG    1        1.398   1.961  -0.001  0.00  0.00    +0.176 C 
ATOM      7  C   LIG    1       -0.017   1.405   0.010  0.00  0.00    +0.176 C 
ATOM      8  O   LIG    1        0.002  -0.004   0.002  0.00  0.00    -0.355 OA
ATOM      9  C   LIG    1        0.888  -0.724   0.782  0.00  0.00    +0.209 C 
ATOM     10  S   LIG    1        0.086  -1.450   2.260  0.00  0.00    -0.077 S 
ENDROOT
BRANCH   5  11
ATOM     11  O   LIG    1        3.548   1.801   1.010  0.00  0.00    -0.387 OA
ATOM     12  H   LIG    1        3.698   2.745   0.864  0.00  0.00    +0.210 HD
ENDBRANCH   5  11
BRANCH   6  13
ATOM     13  O   LIG    1        1.342   3.388   0.057  0.00  0.00    -0.387 OA
ATOM     14  H   LIG    1        0.868   3.793  -0.683  0.00  0.00    +0.210 HD
ENDBRANCH   6  13
BRANCH   7  15
ATOM     15  C   LIG    1       -0.765   1.906  -1.228  0.00  0.00    +0.190 C 
BRANCH  15  16
ATOM     16  O   LIG    1       -2.134   1.507  -1.151  0.00  0.00    -0.392 OA
ATOM     17  H   LIG    1       -2.670   1.791  -1.904  0.00  0.00    +0.210 HD
ENDBRANCH  15  16
ENDBRANCH   7  15
TORSDOF 4
