REMARK  Name = ZINC58538228
REMARK                            x       y       z     vdW  Elec       q    Type
REMARK                         _______ _______ _______ _____ _____    ______ ____
ROOT
ATOM      1  C   LIG    1       -1.087  -2.086  -0.091  0.00  0.00    +0.045 A 
ATOM      2  C   LIG    1        0.150  -2.721  -0.092  0.00  0.00    +0.024 A 
ATOM      3  C   LIG    1        0.221  -4.094  -0.192  0.00  0.00    +0.012 A 
ATOM      4  C   LIG    1       -0.949  -4.846  -0.291  0.00  0.00    +0.001 A 
ATOM      5  C   LIG    1       -2.188  -4.207  -0.288  0.00  0.00    +0.024 A 
ATOM      6  C   LIG    1       -2.254  -2.834  -0.184  0.00  0.00    +0.077 A 
ENDROOT
BRANCH   4   7
ATOM      7  C   LIG    1       -0.876  -6.323  -0.398  0.00  0.00    +0.075 A 
ATOM      8  C   LIG    1        0.361  -6.957  -0.288  0.00  0.00    +0.056 A 
ATOM      9  C   LIG    1        0.419  -8.338  -0.390  0.00  0.00    +0.071 A 
ATOM     10  C   LIG    1       -0.777  -9.055  -0.601  0.00  0.00    +0.125 A 
ATOM     11  N   LIG    1       -0.448 -10.359  -0.661  0.00  0.00    -0.233 NA
ATOM     12  C   LIG    1        0.839 -10.497  -0.506  0.00  0.00    +0.197 A 
ATOM     13  C   LIG    1       -1.985  -8.340  -0.701  0.00  0.00    +0.168 A 
ATOM     14  N   LIG    1        1.422  -9.280  -0.335  0.00  0.00    -0.344 N 
ATOM     15  H   LIG    1        2.367  -9.107  -0.199  0.00  0.00    +0.167 HD
ATOM     16  N   LIG    1       -1.989  -7.018  -0.591  0.00  0.00    -0.234 NA
BRANCH  13  17
ATOM     17  C   LIG    1       -3.215  -9.042  -0.915  0.00  0.00    +0.121 C 
ATOM     18  N   LIG    1       -4.190  -9.599  -1.086  0.00  0.00    -0.189 NA
ENDBRANCH  13  17
ENDBRANCH   4   7
BRANCH   1  21
ATOM     19  C   LIG    1       -0.165   1.498   0.588  0.00  0.00    +0.109 C 
ATOM     20  C   LIG    1       -0.150  -0.009   0.590  0.00  0.00    +0.214 C 
ATOM     21  N   LIG    1       -1.156  -0.694   0.009  0.00  0.00    -0.285 N 
ATOM     22  H   LIG    1       -1.928  -0.220  -0.339  0.00  0.00    +0.155 HD
ATOM     23  O   LIG    1        0.766  -0.606   1.113  0.00  0.00    -0.276 OA
ENDBRANCH   1  21
BRANCH   6  24
ATOM     24  C   LIG    1       -3.594  -2.143  -0.175  0.00  0.00    +0.419 C 
ATOM     25  F   LIG    1       -3.670  -1.261  -1.258  0.00  0.00    -0.166 F 
ATOM     26  F   LIG    1       -3.743  -1.429   1.019  0.00  0.00    -0.166 F 
ATOM     27  F   LIG    1       -4.611  -3.097  -0.278  0.00  0.00    -0.166 F 
ENDBRANCH   6  24
TORSDOF 4
