REMARK  Name = ZINC33559155
REMARK                            x       y       z     vdW  Elec       q    Type
REMARK                         _______ _______ _______ _____ _____    ______ ____
ROOT
ATOM      1  C   LIG    1        4.453   0.734  -0.146  0.00  0.00    +0.293 A 
ATOM      2  N   LIG    1        3.727  -0.347  -0.269  0.00  0.00    -0.195 NA
ATOM      3  C   LIG    1        2.416   0.013  -0.335  0.00  0.00    +0.113 A 
ATOM      4  C   LIG    1        1.225  -0.703  -0.465  0.00  0.00    +0.051 A 
ATOM      5  C   LIG    1        0.023  -0.030  -0.503  0.00  0.00    +0.043 A 
ATOM      6 CL   LIG    1       -1.460  -0.918  -0.666  0.00  0.00    -0.083 Cl
ATOM      7  C   LIG    1       -0.009   1.355  -0.412  0.00  0.00    +0.024 A 
ATOM      8  C   LIG    1        1.162   2.074  -0.283  0.00  0.00    +0.050 A 
ATOM      9  C   LIG    1        2.379   1.413  -0.244  0.00  0.00    +0.157 A 
ATOM     10  O   LIG    1        3.663   1.822  -0.128  0.00  0.00    -0.424 OA
ENDROOT
BRANCH   1  11
ATOM     11  N   LIG    1        5.828   0.755  -0.050  0.00  0.00    -0.269 N 
ATOM     12  H   LIG    1        6.364   1.716  -0.046  0.00  0.00    +0.157 HD
BRANCH  11  16
ATOM     13  C   LIG    1        7.951  -2.817   0.225  0.00  0.00    +0.000 A 
ATOM     14  C   LIG    1        8.529  -1.716  -0.379  0.00  0.00    +0.002 A 
ATOM     15  C   LIG    1        7.828  -0.530  -0.472  0.00  0.00    +0.023 A 
ATOM     16  C   LIG    1        6.540  -0.444   0.042  0.00  0.00    +0.035 A 
ATOM     17  C   LIG    1        5.965  -1.550   0.653  0.00  0.00    +0.023 A 
ATOM     18  C   LIG    1        6.669  -2.735   0.738  0.00  0.00    +0.002 A 
ENDBRANCH  11  16
ENDBRANCH   1  11
TORSDOF 2
