REMARK  Name = ZINC22446634
REMARK                            x       y       z     vdW  Elec       q    Type
REMARK                         _______ _______ _______ _____ _____    ______ ____
ROOT
ATOM      1  C   LIG    1       -4.571  -7.207  -0.097  0.00  0.00    +0.019 A 
ATOM      2  C   LIG    1       -5.516  -6.811  -1.052  0.00  0.00    +0.012 A 
ATOM      3  C   LIG    1       -5.416  -5.570  -1.637  0.00  0.00    +0.017 A 
ATOM      4  C   LIG    1       -4.381  -4.707  -1.287  0.00  0.00    +0.034 A 
ATOM      5  C   LIG    1       -3.431  -5.092  -0.338  0.00  0.00    +0.049 A 
ATOM      6  N   LIG    1       -2.377  -4.258   0.026  0.00  0.00    -0.298 N 
ATOM      7  C   LIG    1       -2.387  -2.871  -0.082  0.00  0.00    +0.048 A 
ATOM      8  C   LIG    1       -1.555  -2.127   0.748  0.00  0.00    +0.024 A 
ATOM      9  C   LIG    1       -1.537  -0.748   0.664  0.00  0.00    +0.002 A 
ATOM     10  C   LIG    1       -2.345  -0.096  -0.248  0.00  0.00    +0.001 A 
ATOM     11  C   LIG    1       -3.177  -0.825  -1.077  0.00  0.00    +0.017 A 
ATOM     12  C   LIG    1       -3.204  -2.210  -0.995  0.00  0.00    +0.034 A 
ATOM     13  S   LIG    1       -4.282  -3.121  -2.048  0.00  0.00    -0.086 S 
ATOM     14  C   LIG    1       -3.533  -6.337   0.260  0.00  0.00    +0.036 A 
ENDROOT
BRANCH   1  16
ATOM     15  C   LIG    1       -5.790  -9.462   0.149  0.00  0.00    +0.091 C 
ATOM     16  C   LIG    1       -4.673  -8.528   0.534  0.00  0.00    +0.160 C 
ATOM     17  O   LIG    1       -3.857  -8.867   1.365  0.00  0.00    -0.292 OA
ENDBRANCH   1  16
BRANCH   6  18
ATOM     18  C   LIG    1       -1.167  -4.888   0.562  0.00  0.00    +0.112 C 
BRANCH  18  19
ATOM     19  C   LIG    1       -1.286  -5.006   2.083  0.00  0.00    +0.035 C 
BRANCH  19  20
ATOM     20  C   LIG    1       -0.023  -5.664   2.643  0.00  0.00    +0.086 C 
BRANCH  20  21
ATOM     21  N   LIG    1       -0.136  -5.778   4.104  0.00  0.00    -0.300 NA
ATOM     22  C   LIG    1       -0.145  -4.451   4.736  0.00  0.00    +0.100 C 
ATOM     23  C   LIG    1       -0.344  -4.610   6.245  0.00  0.00    +0.100 C 
ATOM     24  N   LIG    1        0.734  -5.444   6.794  0.00  0.00    -0.298 NA
ATOM     25  C   LIG    1        0.743  -6.771   6.161  0.00  0.00    +0.100 C 
ATOM     26  C   LIG    1        0.942  -6.612   4.652  0.00  0.00    +0.100 C 
BRANCH  24  27
ATOM     27  C   LIG    1        0.621  -5.558   8.254  0.00  0.00    +0.112 C 
BRANCH  27  28
ATOM     28  C   LIG    1        1.883  -6.215   8.814  0.00  0.00    +0.171 C 
BRANCH  28  29
ATOM     29  O   LIG    1        3.006  -5.361   8.587  0.00  0.00    -0.394 OA
ATOM     30  H   LIG    1        3.843  -5.715   8.917  0.00  0.00    +0.209 HD
ENDBRANCH  28  29
ENDBRANCH  27  28
ENDBRANCH  24  27
ENDBRANCH  20  21
ENDBRANCH  19  20
ENDBRANCH  18  19
ENDBRANCH   6  18
TORSDOF 8
