REMARK  Name = ZINC29039138
REMARK                            x       y       z     vdW  Elec       q    Type
REMARK                         _______ _______ _______ _____ _____    ______ ____
ROOT
ATOM      1  C   LIG    1       -0.753   1.592  -1.224  0.00  0.00    -0.004 C 
ATOM      2  C   LIG    1       -0.013   1.086   0.008  0.00  0.00    -0.082 C 
ATOM      3  N   LIG    1       -0.704   1.561   1.214  0.00  0.00    +0.379 N 
ATOM      4  H   LIG    1       -0.240   1.111   2.104  0.00  0.00    -0.086 HD
ATOM      5  H   LIG    1       -1.764   1.272   1.168  0.00  0.00    -0.086 HD
ATOM      6  C   LIG    1       -0.604   3.021   1.302  0.00  0.00    -0.074 C 
ATOM      7  C   LIG    1       -1.239   3.701   0.115  0.00  0.00    +0.009 C 
ATOM      8  C   LIG    1       -2.736   3.832   0.231  0.00  0.00    -0.002 C 
ATOM      9  C   LIG    1       -3.477   3.804  -0.865  0.00  0.00    +0.047 C 
ATOM     10 BR   LIG    1       -5.358   3.965  -0.974  0.00  0.00    -0.043 Br
ATOM     11  S   LIG    1       -2.336   3.583  -2.220  0.00  0.00    -0.114 S 
ATOM     12  C   LIG    1       -0.845   3.108  -1.241  0.00  0.00    +0.055 C 
ENDROOT
TORSDOF 0
