REMARK  Name = ZINC71318831
REMARK                            x       y       z     vdW  Elec       q    Type
REMARK                         _______ _______ _______ _____ _____    ______ ____
ROOT
ATOM      1  N   LIG    1        0.882  -2.129   1.930  0.00  0.00    -0.276 N 
ATOM      2  C   LIG    1        1.943  -2.795   2.425  0.00  0.00    +0.256 A 
ATOM      3  C   LIG    1        1.998  -4.203   2.384  0.00  0.00    +0.071 A 
ATOM      4  C   LIG    1        0.975  -4.911   1.842  0.00  0.00    +0.017 A 
ATOM      5  C   LIG    1       -0.143  -4.214   1.319  0.00  0.00    +0.018 A 
ATOM      6  C   LIG    1       -1.230  -4.900   0.745  0.00  0.00    +0.121 A 
ATOM      7  N   LIG    1       -2.267  -4.255   0.277  0.00  0.00    -0.254 NA
ATOM      8  C   LIG    1       -2.351  -2.917   0.301  0.00  0.00    +0.073 A 
ATOM      9  C   LIG    1       -3.479  -2.264  -0.223  0.00  0.00    +0.028 A 
ATOM     10  C   LIG    1       -3.558  -0.907  -0.197  0.00  0.00    +0.006 A 
ATOM     11  C   LIG    1       -2.522  -0.136   0.350  0.00  0.00    -0.042 A 
ATOM     12  C   LIG    1       -1.397  -0.750   0.875  0.00  0.00    +0.016 A 
ATOM     13  C   LIG    1       -1.300  -2.145   0.856  0.00  0.00    +0.025 A 
ATOM     14  O   LIG    1        2.868  -2.171   2.916  0.00  0.00    -0.267 OA
ATOM     15  C   LIG    1       -0.169  -2.812   1.380  0.00  0.00    +0.068 A 
ENDROOT
BRANCH  11  16
ATOM     16  C   LIG    1       -2.633   1.343   0.367  0.00  0.00    +0.033 C 
ATOM     17  C   LIG    1       -1.504   2.141   0.150  0.00  0.00    +0.012 C 
ATOM     18  C   LIG    1       -1.655   3.513   0.175  0.00  0.00    +0.035 C 
ATOM     19  C   LIG    1       -2.916   4.054   0.413  0.00  0.00    +0.119 C 
ATOM     20  N   LIG    1       -3.964   3.270   0.615  0.00  0.00    -0.301 NA
ATOM     21  H   LIG    1       -4.831   3.673   0.779  0.00  0.00    +0.123 HD
ATOM     22  C   LIG    1       -3.862   1.956   0.593  0.00  0.00    +0.090 C 
BRANCH  19  23
ATOM     23  N   LIG    1       -3.076   5.433   0.440  0.00  0.00    -0.316 NA
ATOM     24  H   LIG    1       -3.952   5.817   0.606  0.00  0.00    +0.120 HD
ATOM     25  H   LIG    1       -2.313   6.013   0.293  0.00  0.00    +0.120 HD
ENDBRANCH  19  23
ENDBRANCH  11  16
BRANCH   1  30
ATOM     26  C   LIG    1        0.224   1.292   3.108  0.00  0.00    +0.003 A 
ATOM     27  C   LIG    1        0.789   2.034   2.087  0.00  0.00    +0.012 A 
ATOM     28  C   LIG    1        1.384   1.397   1.013  0.00  0.00    +0.057 A 
ATOM     29  C   LIG    1        1.417   0.017   0.958  0.00  0.00    +0.038 A 
ATOM     30  C   LIG    1        0.851  -0.731   1.983  0.00  0.00    +0.051 A 
ATOM     31  C   LIG    1        0.254  -0.088   3.059  0.00  0.00    +0.026 A 
BRANCH  28  32
ATOM     32  C   LIG    1        1.998   2.209  -0.098  0.00  0.00    +0.417 C 
ATOM     33  F   LIG    1        1.362   1.903  -1.305  0.00  0.00    -0.166 F 
ATOM     34  F   LIG    1        3.360   1.907  -0.198  0.00  0.00    -0.166 F 
ATOM     35  F   LIG    1        1.842   3.571   0.180  0.00  0.00    -0.166 F 
ENDBRANCH  28  32
ENDBRANCH   1  30
TORSDOF 4
