REMARK  Name = ZINC39473582
REMARK                            x       y       z     vdW  Elec       q    Type
REMARK                         _______ _______ _______ _____ _____    ______ ____
ROOT
ATOM      1  C   LIG    1        0.624  -0.617   1.039  0.00  0.00    +0.219 A 
ATOM      2  C   LIG    1        0.690  -2.005   1.099  0.00  0.00    +0.095 A 
ATOM      3  C   LIG    1        1.342  -2.592   2.187  0.00  0.00    +0.073 A 
ATOM      4  N   LIG    1        1.876  -1.803   3.124  0.00  0.00    -0.215 NA
ATOM      5  C   LIG    1        1.790  -0.486   3.028  0.00  0.00    +0.216 A 
ATOM      6  N   LIG    1        1.183   0.101   2.007  0.00  0.00    -0.180 NA
ENDROOT
BRANCH   5   7
ATOM      7  N   LIG    1        2.355   0.299   4.018  0.00  0.00    -0.327 N 
ATOM      8  H   LIG    1        2.300   1.266   3.960  0.00  0.00    +0.145 HD
ATOM      9  H   LIG    1        2.806  -0.117   4.769  0.00  0.00    +0.145 HD
ENDBRANCH   5   7
BRANCH   1  11
ATOM     10  C   LIG    1       -0.017   1.425   0.010  0.00  0.00    +0.279 C 
ATOM     11  O   LIG    1        0.002  -0.004   0.002  0.00  0.00    -0.480 OA
ENDBRANCH   1  11
BRANCH   3  12
ATOM     12  C   LIG    1        1.440  -4.057   2.299  0.00  0.00    +0.028 C 
ATOM     13  C   LIG    1        2.069  -4.610   3.349  0.00  0.00    +0.010 C 
BRANCH  13  14
ATOM     14  C   LIG    1        2.166  -6.076   3.462  0.00  0.00    -0.025 A 
ATOM     15  C   LIG    1        1.610  -6.894   2.474  0.00  0.00    +0.008 A 
ATOM     16  C   LIG    1        1.705  -8.265   2.586  0.00  0.00    +0.001 A 
ATOM     17  C   LIG    1        2.349  -8.832   3.672  0.00  0.00    +0.000 A 
ATOM     18  C   LIG    1        2.902  -8.028   4.654  0.00  0.00    +0.001 A 
ATOM     19  C   LIG    1        2.820  -6.655   4.553  0.00  0.00    +0.008 A 
ENDBRANCH  13  14
ENDBRANCH   3  12
TORSDOF 4
