REMARK  Name = ZINC14959102
REMARK                            x       y       z     vdW  Elec       q    Type
REMARK                         _______ _______ _______ _____ _____    ______ ____
ROOT
ATOM      1  C   LIG    1        1.379   3.445   0.007  0.00  0.00    +0.135 C 
ENDROOT
BRANCH   1   2
ATOM      2  C   LIG    1        2.807   3.929  -0.004  0.00  0.00    +0.030 A 
ATOM      3  C   LIG    1        3.537   4.261   1.080  0.00  0.00    +0.024 A 
ATOM      4  C   LIG    1        4.810   4.658   0.625  0.00  0.00    +0.019 A 
ATOM      5  C   LIG    1        4.809   4.553  -0.719  0.00  0.00    +0.083 A 
ATOM      6  N   LIG    1        3.584   4.100  -1.111  0.00  0.00    -0.363 N 
ATOM      7  H   LIG    1        3.310   3.930  -2.025  0.00  0.00    +0.165 HD
ENDBRANCH   1   2
BRANCH   1   8
ATOM      8  N   LIG    1        1.360   1.976  -0.000  0.00  0.00    -0.300 NA
ATOM      9  H   LIG    1        1.889   1.604   0.774  0.00  0.00    +0.123 HD
BRANCH   8  10
ATOM     10  C   LIG    1       -0.018   1.468   0.010  0.00  0.00    +0.171 C 
BRANCH  10  12
ATOM     11  C   LIG    1        0.018  -1.178  -0.004  0.00  0.00    +0.005 C 
ATOM     12  C   LIG    1        0.002  -0.004   0.002  0.00  0.00    -0.090 C 
ENDBRANCH  10  12
ENDBRANCH   8  10
ENDBRANCH   1   8
TORSDOF 4
