REMARK  Name = ZINC29053046
REMARK                            x       y       z     vdW  Elec       q    Type
REMARK                         _______ _______ _______ _____ _____    ______ ____
ROOT
ATOM      1  C   LIG    1        1.815  12.305   0.985  0.00  0.00    +0.060 A 
ATOM      2  C   LIG    1        0.633  11.591   0.763  0.00  0.00    +0.128 A 
ATOM      3  N   LIG    1        0.621  10.637  -0.150  0.00  0.00    -0.222 NA
ATOM      4  C   LIG    1        1.707  10.347  -0.854  0.00  0.00    +0.216 A 
ATOM      5  N   LIG    1        2.851  10.989  -0.677  0.00  0.00    -0.214 NA
ATOM      6  C   LIG    1        2.949  11.968   0.218  0.00  0.00    +0.088 A 
ENDROOT
BRANCH   1  12
ATOM      7  C   LIG    1        0.568  15.514   4.674  0.00  0.00    +0.065 C 
ATOM      8  C   LIG    1        1.329  14.778   3.602  0.00  0.00    +0.030 A 
ATOM      9  C   LIG    1        2.602  15.009   3.220  0.00  0.00    +0.105 A 
ATOM     10  N   LIG    1        2.912  14.149   2.243  0.00  0.00    -0.346 N 
ATOM     11  H   LIG    1        3.913  14.171   1.788  0.00  0.00    +0.167 HD
ATOM     12  C   LIG    1        1.873  13.380   1.995  0.00  0.00    +0.120 A 
ATOM     13  N   LIG    1        0.857  13.751   2.828  0.00  0.00    -0.343 N 
ATOM     14  H   LIG    1       -0.174  13.392   2.959  0.00  0.00    +0.167 HD
ENDBRANCH   1  12
BRANCH   6  15
ATOM     15  C   LIG    1        4.229  12.689   0.408  0.00  0.00    +0.020 A 
ATOM     16  C   LIG    1        4.503  13.837  -0.335  0.00  0.00    +0.013 A 
ATOM     17  C   LIG    1        5.696  14.505  -0.153  0.00  0.00    +0.021 A 
ATOM     18  C   LIG    1        6.622  14.038   0.766  0.00  0.00    +0.042 A 
ATOM     19 CL   LIG    1        8.121  14.884   0.988  0.00  0.00    -0.083 Cl
ATOM     20  C   LIG    1        6.356  12.899   1.507  0.00  0.00    +0.040 A 
ATOM     21  C   LIG    1        5.162  12.226   1.337  0.00  0.00    +0.052 A 
ATOM     22 CL   LIG    1        4.826  10.802   2.272  0.00  0.00    -0.083 Cl
ENDBRANCH   6  15
BRANCH   4  23
ATOM     23  N   LIG    1        1.644   9.338  -1.798  0.00  0.00    -0.312 N 
ATOM     24  H   LIG    1        2.535   9.084  -2.392  0.00  0.00    +0.149 HD
BRANCH  23  25
ATOM     25  C   LIG    1        0.391   8.609  -2.009  0.00  0.00    +0.123 C 
BRANCH  25  26
ATOM     26  C   LIG    1        0.591   7.555  -3.100  0.00  0.00    +0.121 C 
BRANCH  26  27
ATOM     27  N   LIG    1       -0.662   6.825  -3.310  0.00  0.00    -0.328 N 
ATOM     28  H   LIG    1       -1.552   7.080  -2.717  0.00  0.00    +0.148 HD
BRANCH  27  29
ATOM     29  C   LIG    1       -0.725   5.815  -4.256  0.00  0.00    +0.119 A 
ATOM     30  C   LIG    1        0.410   5.501  -5.002  0.00  0.00    +0.045 A 
ATOM     31  C   LIG    1        0.344   4.503  -5.936  0.00  0.00    +0.024 A 
ATOM     32  C   LIG    1       -0.874   3.827  -6.110  0.00  0.00    +0.070 A 
ATOM     33  C   LIG    1       -1.972   4.198  -5.331  0.00  0.00    +0.131 A 
ATOM     34  N   LIG    1       -1.863   5.161  -4.439  0.00  0.00    -0.239 NA
BRANCH  32  35
ATOM     35  C   LIG    1       -0.991   2.776  -7.075  0.00  0.00    +0.101 C 
ATOM     36  N   LIG    1       -1.084   1.942  -7.841  0.00  0.00    -0.191 NA
ENDBRANCH  32  35
ENDBRANCH  27  29
ENDBRANCH  26  27
ENDBRANCH  25  26
ENDBRANCH  23  25
ENDBRANCH   4  23
TORSDOF 8
