REMARK  Name = ZINC28956875
REMARK                            x       y       z     vdW  Elec       q    Type
REMARK                         _______ _______ _______ _____ _____    ______ ____
ROOT
ATOM      1  N   LIG    1       -0.387   0.001  -2.356  0.00  0.00    -0.279 N 
ATOM      2  H   LIG    1       -0.751  -0.526  -3.249  0.00  0.00    +0.155 HD
ATOM      3  C   LIG    1       -0.024   1.296  -2.439  0.00  0.00    +0.267 C 
ATOM      4  O   LIG    1        0.283   1.908  -1.433  0.00  0.00    -0.268 OA
ENDROOT
BRANCH   1  12
ATOM      5  C   LIG    1       -1.810   1.069  -0.139  0.00  0.00    +0.046 C 
ATOM      6  C   LIG    1       -0.980  -0.184  -0.027  0.00  0.00    -0.027 A 
ATOM      7  C   LIG    1       -0.900  -0.853   1.178  0.00  0.00    +0.025 A 
ATOM      8  C   LIG    1       -0.140  -2.007   1.291  0.00  0.00    +0.042 A 
ATOM      9 CL   LIG    1       -0.049  -2.836   2.813  0.00  0.00    -0.084 Cl
ATOM     10  C   LIG    1        0.545  -2.499   0.199  0.00  0.00    +0.035 A 
ATOM     11  C   LIG    1        0.472  -1.833  -1.026  0.00  0.00    +0.059 A 
ATOM     12  C   LIG    1       -0.302  -0.668  -1.138  0.00  0.00    +0.049 A 
BRANCH  11  13
ATOM     13  C   LIG    1        1.202  -2.354  -2.198  0.00  0.00    +0.246 C 
ATOM     14  N   LIG    1        1.848  -3.534  -2.120  0.00  0.00    -0.314 N 
ATOM     15  H   LIG    1        1.832  -4.109  -1.182  0.00  0.00    +0.149 HD
ATOM     16  C   LIG    1        2.573  -4.051  -3.283  0.00  0.00    +0.128 C 
ATOM     17  O   LIG    1        1.220  -1.718  -3.235  0.00  0.00    -0.270 OA
ENDBRANCH  11  13
ENDBRANCH   1  12
BRANCH   3  18
ATOM     18  C   LIG    1        0.003   1.970  -3.746  0.00  0.00    +0.132 A 
ATOM     19  C   LIG    1       -0.447   1.454  -4.945  0.00  0.00    +0.070 A 
ATOM     20  C   LIG    1       -0.238   2.420  -5.927  0.00  0.00    +0.129 A 
ATOM     21 BR   LIG    1       -0.675   2.242  -7.758  0.00  0.00    -0.027 Br
ATOM     22  N   LIG    1        0.318   3.471  -5.375  0.00  0.00    -0.157 NA
ATOM     23  N   LIG    1        0.485   3.226  -4.006  0.00  0.00    -0.207 N 
BRANCH  23  24
ATOM     24  C   LIG    1        1.044   4.104  -3.074  0.00  0.00    +0.173 A 
ATOM     25  C   LIG    1        1.344   5.408  -3.450  0.00  0.00    +0.085 A 
ATOM     26 CL   LIG    1        1.030   5.952  -5.068  0.00  0.00    -0.080 Cl
ATOM     27  C   LIG    1        1.893   6.269  -2.514  0.00  0.00    +0.025 A 
ATOM     28  C   LIG    1        2.132   5.790  -1.233  0.00  0.00    +0.021 A 
ATOM     29  C   LIG    1        1.813   4.480  -0.932  0.00  0.00    +0.113 A 
ATOM     30  N   LIG    1        1.287   3.684  -1.842  0.00  0.00    -0.235 NA
ENDBRANCH  23  24
ENDBRANCH   3  18
TORSDOF 4
