REMARK  Name = ZINC13775770
REMARK                            x       y       z     vdW  Elec       q    Type
REMARK                         _______ _______ _______ _____ _____    ______ ____
ROOT
ATOM      1  C   LIG    1        6.236   3.132  -4.840  0.00  0.00    +0.039 A 
ATOM      2  C   LIG    1        5.028   3.513  -4.285  0.00  0.00    +0.018 A 
ATOM      3  C   LIG    1        4.493   2.792  -3.235  0.00  0.00    +0.014 A 
ATOM      4  C   LIG    1        5.140   1.682  -2.699  0.00  0.00    -0.002 A 
ATOM      5  C   LIG    1        4.462   1.012  -1.529  0.00  0.00    +0.165 C 
ATOM      6  C   LIG    1        2.958   1.362  -1.461  0.00  0.00    +0.104 C 
ATOM      7  C   LIG    1        6.356   1.311  -3.279  0.00  0.00    +0.045 A 
ATOM      8  S   LIG    1        2.984   2.993  -2.314  0.00  0.00    -0.117 S 
ATOM      9  C   LIG    1        6.891   2.025  -4.330  0.00  0.00    +0.124 A 
ATOM     10  F   LIG    1        8.070   1.640  -4.867  0.00  0.00    -0.205 F 
ENDROOT
BRANCH   5  11
ATOM     11  O   LIG    1        5.093   1.435  -0.319  0.00  0.00    -0.366 OA
BRANCH  11  12
ATOM     12  C   LIG    1        6.218   0.639   0.058  0.00  0.00    +0.198 C 
BRANCH  12  13
ATOM     13  C   LIG    1        6.803   1.172   1.341  0.00  0.00    +0.004 A 
ATOM     14  C   LIG    1        6.248   2.276   1.960  0.00  0.00    +0.015 A 
ATOM     15  C   LIG    1        6.796   2.727   3.115  0.00  0.00    +0.047 A 
ATOM     16  S   LIG    1        8.147   1.585   3.354  0.00  0.00    -0.085 S 
ATOM     17  C   LIG    1        7.887   0.579   1.902  0.00  0.00    +0.083 A 
ATOM     18 CL   LIG    1        8.786  -0.800   1.353  0.00  0.00    -0.075 Cl
ENDBRANCH  12  13
ENDBRANCH  11  12
ENDBRANCH   5  11
BRANCH   6  19
ATOM     19  C   LIG    1        2.482   1.497  -0.013  0.00  0.00    +0.140 C 
BRANCH  19  20
ATOM     20  N   LIG    1        1.075   1.907   0.002  0.00  0.00    -0.337 N 
ATOM     21  C   LIG    1       -0.013   1.076   0.008  0.00  0.00    +0.104 A 
ATOM     22  C   LIG    1       -1.105   1.864   0.017  0.00  0.00    +0.101 A 
ATOM     23  N   LIG    1       -0.694   3.140   0.025  0.00  0.00    -0.352 N 
ATOM     24  H   LIG    1       -1.309   3.962   0.038  0.00  0.00    +0.166 HD
ATOM     25  C   LIG    1        0.610   3.174   0.013  0.00  0.00    +0.173 A 
ENDBRANCH  19  20
ENDBRANCH   6  19
TORSDOF 5
