REMARK  Name = ZINC38358483
REMARK                            x       y       z     vdW  Elec       q    Type
REMARK                         _______ _______ _______ _____ _____    ______ ____
ROOT
ATOM      1  C   LIG    1        0.606  -0.608  -1.056  0.00  0.00    +0.162 A 
ATOM      2  C   LIG    1        1.173   0.156  -2.062  0.00  0.00    +0.053 A 
ATOM      3  C   LIG    1        1.789  -0.454  -3.144  0.00  0.00    -0.038 A 
ATOM      4  C   LIG    1        1.838  -1.831  -3.222  0.00  0.00    -0.023 A 
ATOM      5  C   LIG    1        2.488  -2.535  -4.383  0.00  0.00    +0.086 C 
ATOM      6  C   LIG    1        3.304  -3.726  -3.877  0.00  0.00    +0.009 C 
ATOM      7  C   LIG    1        3.935  -4.446  -5.073  0.00  0.00    -0.051 C 
ATOM      8  C   LIG    1        4.799  -3.457  -5.860  0.00  0.00    +0.076 C 
ATOM      9  C   LIG    1        3.939  -2.271  -6.303  0.00  0.00    +0.105 C 
ATOM     10  N   LIG    1        3.382  -1.626  -5.106  0.00  0.00    -0.293 NA
ATOM     11  C   LIG    1        2.679  -0.386  -5.463  0.00  0.00    +0.089 C 
ATOM     12  C   LIG    1        1.274  -2.600  -2.215  0.00  0.00    +0.054 A 
ATOM     13  C   LIG    1        2.397   0.421  -4.210  0.00  0.00    +0.051 C 
ATOM     14  C   LIG    1        0.663  -1.996  -1.131  0.00  0.00    +0.162 A 
ENDROOT
BRANCH   8  15
ATOM     15  N   LIG    1        5.355  -4.125  -7.040  0.00  0.00    -0.298 N 
ATOM     16  C   LIG    1        6.790  -4.284  -7.302  0.00  0.00    +0.114 C 
ATOM     17  C   LIG    1        6.893  -5.389  -8.376  0.00  0.00    +0.046 C 
ATOM     18  C   LIG    1        5.516  -5.282  -9.072  0.00  0.00    +0.103 C 
ATOM     19  C   LIG    1        4.616  -4.677  -8.018  0.00  0.00    +0.216 C 
ATOM     20  O   LIG    1        3.404  -4.686  -8.051  0.00  0.00    -0.276 OA
BRANCH  17  21
ATOM     21  C   LIG    1        7.076  -6.764  -7.731  0.00  0.00    +0.218 C 
ATOM     22  F   LIG    1        7.279  -7.724  -8.728  0.00  0.00    -0.249 F 
ENDBRANCH  17  21
ENDBRANCH   8  15
BRANCH   7  23
ATOM     23  N   LIG    1        4.771  -5.554  -4.593  0.00  0.00    +0.381 N 
ATOM     24  H   LIG    1        5.499  -5.193  -3.997  0.00  0.00    -0.090 HD
ATOM     25  H   LIG    1        5.186  -6.028  -5.382  0.00  0.00    -0.090 HD
ATOM     26  H   LIG    1        4.201  -6.204  -4.073  0.00  0.00    -0.090 HD
ENDBRANCH   7  23
BRANCH   1  28
ATOM     27  C   LIG    1       -0.017   1.425   0.010  0.00  0.00    +0.277 C 
ATOM     28  O   LIG    1        0.002  -0.004   0.002  0.00  0.00    -0.491 OA
ENDBRANCH   1  28
BRANCH  14  29
ATOM     29  O   LIG    1        0.115  -2.756  -0.145  0.00  0.00    -0.491 OA
ATOM     30  C   LIG    1        0.212  -4.174  -0.289  0.00  0.00    +0.277 C 
ENDBRANCH  14  29
TORSDOF 5
