REMARK  Name = ZINC18181177
REMARK                            x       y       z     vdW  Elec       q    Type
REMARK                         _______ _______ _______ _____ _____    ______ ____
ROOT
ATOM      1  C   LIG    1       -0.018   1.391   0.029  0.00  0.00    +0.037 A 
ATOM      2  C   LIG    1        1.185   2.099   0.025  0.00  0.00    +0.013 A 
ATOM      3  C   LIG    1        2.384   1.415   0.020  0.00  0.00    +0.005 A 
ATOM      4  C   LIG    1        2.395   0.032   0.020  0.00  0.00    -0.037 A 
ATOM      5  C   LIG    1        1.206  -0.676   0.024  0.00  0.00    +0.005 A 
ATOM      6  C   LIG    1        0.001  -0.005   0.028  0.00  0.00    +0.013 A 
ENDROOT
BRANCH   1   9
ATOM      7  N   LIG    1       -1.320   3.464   0.027  0.00  0.00    -0.278 N 
ATOM      8  H   LIG    1       -0.376   4.024   0.103  0.00  0.00    +0.155 HD
ATOM      9  C   LIG    1       -1.306   2.116   0.027  0.00  0.00    +0.248 C 
ATOM     10  O   LIG    1       -2.352   1.498   0.025  0.00  0.00    -0.270 OA
BRANCH   7  15
ATOM     11  C   LIG    1       -4.880   4.314   0.427  0.00  0.00    +0.122 A 
ATOM     12  C   LIG    1       -4.942   5.516  -0.262  0.00  0.00    +0.049 A 
ATOM     13  C   LIG    1       -3.807   6.037  -0.854  0.00  0.00    +0.051 A 
ATOM     14  C   LIG    1       -2.601   5.362  -0.756  0.00  0.00    +0.141 A 
ATOM     15  C   LIG    1       -2.536   4.152  -0.069  0.00  0.00    +0.079 A 
ATOM     16  C   LIG    1       -3.677   3.631   0.524  0.00  0.00    +0.072 A 
BRANCH  11  18
ATOM     17  C   LIG    1       -7.203   4.561   0.869  0.00  0.00    +0.277 C 
ATOM     18  O   LIG    1       -5.999   3.805   1.009  0.00  0.00    -0.495 OA
ENDBRANCH  11  18
BRANCH  14  19
ATOM     19  O   LIG    1       -1.483   5.878  -1.334  0.00  0.00    -0.493 OA
ATOM     20  C   LIG    1       -1.623   7.122  -2.022  0.00  0.00    +0.277 C 
ENDBRANCH  14  19
ENDBRANCH   7  15
ENDBRANCH   1   9
BRANCH   4  21
ATOM     21  C   LIG    1        3.708  -0.708   0.015  0.00  0.00    +0.111 C 
BRANCH  21  22
ATOM     22  S   LIG    1        4.228  -1.003  -1.694  0.00  0.00    -0.099 S 
BRANCH  22  23
ATOM     23  C   LIG    1        5.743  -1.856  -1.409  0.00  0.00    +0.126 A 
ATOM     24  C   LIG    1        6.531  -2.301  -2.486  0.00  0.00    +0.117 A 
ATOM     25  N   LIG    1        6.418  -2.249  -3.834  0.00  0.00    -0.341 N 
ATOM     26  C   LIG    1        7.446  -2.834  -4.378  0.00  0.00    +0.199 A 
ATOM     27  N   LIG    1        8.294  -3.279  -3.409  0.00  0.00    -0.216 NA
ATOM     28  H   LIG    1        5.546  -1.762  -4.295  0.00  0.00    +0.167 HD
ATOM     29  C   LIG    1        7.734  -2.967  -2.196  0.00  0.00    +0.182 A 
ATOM     30  N   LIG    1        8.078  -3.155  -0.926  0.00  0.00    -0.214 NA
ATOM     31  C   LIG    1        7.306  -2.727   0.050  0.00  0.00    +0.224 A 
ATOM     32  N   LIG    1        6.172  -2.088  -0.172  0.00  0.00    -0.227 NA
ENDBRANCH  22  23
ENDBRANCH  21  22
ENDBRANCH   4  21
TORSDOF 7
