REMARK  Name = ZINC40880920
REMARK                            x       y       z     vdW  Elec       q    Type
REMARK                         _______ _______ _______ _____ _____    ______ ____
ROOT
ATOM      1  C   LIG    1        0.080  -2.968  -0.013  0.00  0.00    +0.047 A 
ATOM      2  C   LIG    1       -0.341  -3.819   1.019  0.00  0.00    +0.145 A 
ATOM      3  N   LIG    1       -1.473  -4.378   0.669  0.00  0.00    -0.173 NA
ATOM      4  N   LIG    1       -1.843  -3.921  -0.601  0.00  0.00    -0.221 N 
ATOM      5  C   LIG    1       -2.917  -4.196  -1.395  0.00  0.00    +0.124 A 
ATOM      6  C   LIG    1       -3.021  -3.573  -2.608  0.00  0.00    +0.018 A 
ATOM      7  C   LIG    1       -2.009  -2.675  -3.009  0.00  0.00    +0.123 A 
ATOM      8  N   LIG    1       -0.988  -2.441  -2.218  0.00  0.00    -0.235 NA
ATOM      9  C   LIG    1       -0.886  -3.040  -1.029  0.00  0.00    +0.163 A 
ENDROOT
BRANCH   1  15
ATOM     10  C   LIG    1        0.013   1.362  -0.030  0.00  0.00    +0.001 A 
ATOM     11  C   LIG    1        1.205   2.082  -0.042  0.00  0.00    +0.002 A 
ATOM     12  C   LIG    1        2.410   1.448  -0.048  0.00  0.00    +0.028 A 
ATOM     13  C   LIG    1        2.458   0.043  -0.043  0.00  0.00    +0.072 A 
ATOM     14  C   LIG    1        1.243  -0.684  -0.031  0.00  0.00    +0.008 A 
ATOM     15  C   LIG    1        1.306  -2.146  -0.025  0.00  0.00    -0.002 A 
ATOM     16  C   LIG    1        2.572  -2.729  -0.032  0.00  0.00    +0.029 A 
ATOM     17  C   LIG    1        3.697  -1.920  -0.044  0.00  0.00    +0.112 A 
ATOM     18  N   LIG    1        3.625  -0.610  -0.048  0.00  0.00    -0.255 NA
ATOM     19  C   LIG    1        0.022  -0.002  -0.025  0.00  0.00    +0.010 A 
ENDBRANCH   1  15
BRANCH   6  20
ATOM     20  C   LIG    1       -4.179  -3.845  -3.496  0.00  0.00    -0.015 A 
ATOM     21  C   LIG    1       -4.369  -5.120  -4.024  0.00  0.00    +0.010 A 
ATOM     22  C   LIG    1       -5.446  -5.370  -4.849  0.00  0.00    +0.024 A 
ATOM     23  C   LIG    1       -6.341  -4.351  -5.152  0.00  0.00    +0.030 A 
ATOM     24  C   LIG    1       -6.154  -3.079  -4.626  0.00  0.00    +0.024 A 
ATOM     25  C   LIG    1       -5.082  -2.826  -3.796  0.00  0.00    +0.010 A 
BRANCH  23  26
ATOM     26  N   LIG    1       -7.430  -4.607  -5.988  0.00  0.00    -0.333 N 
ATOM     27  C   LIG    1       -8.455  -3.580  -6.229  0.00  0.00    +0.086 C 
ATOM     28  C   LIG    1       -8.664  -3.448  -7.742  0.00  0.00    -0.063 C 
ATOM     29  N   LIG    1       -8.981  -4.765  -8.308  0.00  0.00    +0.381 N 
ATOM     30  H   LIG    1       -9.192  -4.666  -9.289  0.00  0.00    -0.086 HD
ATOM     31  H   LIG    1       -9.782  -5.151  -7.831  0.00  0.00    -0.086 HD
ATOM     32  C   LIG    1       -7.835  -5.669  -8.144  0.00  0.00    -0.063 C 
ATOM     33  C   LIG    1       -7.582  -5.908  -6.656  0.00  0.00    +0.086 C 
ENDBRANCH  23  26
ENDBRANCH   6  20
TORSDOF 3
