REMARK  Name = ZINC19172197
REMARK                            x       y       z     vdW  Elec       q    Type
REMARK                         _______ _______ _______ _____ _____    ______ ____
ROOT
ATOM      1  C   LIG    1       -0.076   5.351   0.032  0.00  0.00    +0.160 C 
ENDROOT
BRANCH   1   6
ATOM      2  C   LIG    1        1.179   1.786   0.000  0.00  0.00    +0.120 A 
ATOM      3  C   LIG    1       -0.013   1.076   0.008  0.00  0.00    +0.045 A 
ATOM      4  C   LIG    1       -1.218   1.751   0.017  0.00  0.00    +0.004 A 
ATOM      5  C   LIG    1       -1.237   3.133   0.030  0.00  0.00    +0.006 A 
ATOM      6  C   LIG    1       -0.051   3.844   0.023  0.00  0.00    -0.014 A 
ATOM      7  C   LIG    1        1.157   3.173   0.008  0.00  0.00    +0.051 A 
BRANCH   2   9
ATOM      8  C   LIG    1        2.313  -0.303  -0.021  0.00  0.00    +0.277 C 
ATOM      9  O   LIG    1        2.366   1.125  -0.014  0.00  0.00    -0.495 OA
ENDBRANCH   2   9
ENDBRANCH   1   6
BRANCH   1  10
ATOM     10  O   LIG    1       -1.195   5.813  -0.728  0.00  0.00    -0.386 OA
ATOM     11  H   LIG    1       -1.378   6.892  -0.836  0.00  0.00    +0.210 HD
ENDBRANCH   1  10
BRANCH   1  12
ATOM     12  C   LIG    1       -0.196   5.851   1.473  0.00  0.00    +0.134 C 
BRANCH  12  13
ATOM     13  N   LIG    1       -0.221   7.319   1.481  0.00  0.00    -0.256 NA
ATOM     14  H   LIG    1       -1.082   7.675   0.896  0.00  0.00    +0.140 HD
BRANCH  13  15
ATOM     15  N   LIG    1       -0.334   7.831   2.837  0.00  0.00    -0.270 NA
ATOM     16  H   LIG    1       -1.265   7.460   3.292  0.00  0.00    +0.137 HD
ATOM     17  H   LIG    1       -0.350   8.931   2.814  0.00  0.00    +0.137 HD
ENDBRANCH  13  15
ENDBRANCH  12  13
ENDBRANCH   1  12
TORSDOF 6
