REMARK  Name = ZINC19167342
REMARK                            x       y       z     vdW  Elec       q    Type
REMARK                         _______ _______ _______ _____ _____    ______ ____
ROOT
ATOM      1  C   LIG    1        0.791  -0.317   1.251  0.00  0.00    +0.160 C 
ENDROOT
BRANCH   1   2
ATOM      2  C   LIG    1        2.257  -0.003   1.097  0.00  0.00    -0.018 A 
ATOM      3  C   LIG    1        2.719   1.277   1.339  0.00  0.00    +0.006 A 
ATOM      4  C   LIG    1        4.064   1.564   1.197  0.00  0.00    +0.000 A 
ATOM      5  C   LIG    1        4.946   0.572   0.813  0.00  0.00    +0.000 A 
ATOM      6  C   LIG    1        4.484  -0.708   0.572  0.00  0.00    +0.000 A 
ATOM      7  C   LIG    1        3.140  -0.997   0.718  0.00  0.00    +0.006 A 
ENDBRANCH   1   2
BRANCH   1   9
ATOM      8  C   LIG    1        0.159   1.535  -0.303  0.00  0.00    +0.025 C 
ATOM      9  C   LIG    1        0.056   0.030  -0.045  0.00  0.00    +0.070 C 
BRANCH   9  10
ATOM     10  N   LIG    1       -1.358  -0.350   0.077  0.00  0.00    -0.354 NA
ATOM     11  C   LIG    1       -2.071  -0.142  -1.190  0.00  0.00    +0.084 C 
BRANCH  10  12
ATOM     12  N   LIG    1       -1.490  -1.726   0.529  0.00  0.00    +0.389 N 
ATOM     13  H   LIG    1       -0.957  -2.332  -0.076  0.00  0.00    -0.065 HD
ATOM     14  H   LIG    1       -2.462  -1.996   0.504  0.00  0.00    -0.065 HD
ATOM     15  H   LIG    1       -1.144  -1.805   1.474  0.00  0.00    -0.065 HD
ENDBRANCH  10  12
ENDBRANCH   9  10
ENDBRANCH   1   9
BRANCH   1  16
ATOM     16  O   LIG    1        0.250   0.454   2.326  0.00  0.00    -0.386 OA
ATOM     17  H   LIG    1        0.326   1.410   2.202  0.00  0.00    +0.210 HD
ENDBRANCH   1  16
TORSDOF 5
