REMARK  Name = ZINC15924305
REMARK                            x       y       z     vdW  Elec       q    Type
REMARK                         _______ _______ _______ _____ _____    ______ ____
ROOT
ATOM      1  C   LIG    1        5.201   0.971  -1.563  0.00  0.00    +0.392 C 
ATOM      2  N   LIG    1        6.324   1.625  -1.498  0.00  0.00    -0.129 NA
ATOM      3  H   LIG    1        6.444   2.437  -2.016  0.00  0.00    +0.306 HD
ENDROOT
BRANCH   1   4
ATOM      4  N   LIG    1        4.222   1.369  -2.444  0.00  0.00    -0.243 N 
ATOM      5  H   LIG    1        4.324   2.196  -2.941  0.00  0.00    +0.265 HD
BRANCH   4   8
ATOM      6  C   LIG    1        0.732   0.404  -3.081  0.00  0.00    +0.005 A 
ATOM      7  C   LIG    1        1.859   1.183  -2.904  0.00  0.00    +0.042 A 
ATOM      8  C   LIG    1        3.079   0.583  -2.623  0.00  0.00    +0.101 A 
ATOM      9  C   LIG    1        3.163  -0.799  -2.520  0.00  0.00    +0.062 A 
ATOM     10  C   LIG    1        2.032  -1.573  -2.698  0.00  0.00    +0.044 A 
ATOM     11 CL   LIG    1        2.135  -3.302  -2.570  0.00  0.00    -0.083 Cl
ATOM     12  C   LIG    1        0.817  -0.972  -2.978  0.00  0.00    +0.020 A 
ENDBRANCH   4   8
ENDBRANCH   1   4
BRANCH   1  13
ATOM     13  N   LIG    1        4.991  -0.124  -0.748  0.00  0.00    -0.189 N 
ATOM     14  H   LIG    1        4.127  -0.564  -0.739  0.00  0.00    +0.271 HD
BRANCH  13  15
ATOM     15  C   LIG    1        6.007  -0.591   0.049  0.00  0.00    +0.350 C 
ATOM     16  N   LIG    1        5.852  -1.724   0.731  0.00  0.00    -0.291 N 
ATOM     17  H   LIG    1        6.569  -2.053   1.294  0.00  0.00    +0.255 HD
ATOM     18  H   LIG    1        5.021  -2.220   0.663  0.00  0.00    +0.255 HD
BRANCH  15  19
ATOM     19  N   LIG    1        7.147   0.090   0.141  0.00  0.00    -0.291 N 
ATOM     20  H   LIG    1        7.996  -0.372   0.059  0.00  0.00    +0.255 HD
ATOM     21  H   LIG    1        7.129   1.049   0.291  0.00  0.00    +0.255 HD
ENDBRANCH  15  19
ENDBRANCH  13  15
ENDBRANCH   1  13
TORSDOF 5
