REMARK  Name = ZINC21093230
REMARK                            x       y       z     vdW  Elec       q    Type
REMARK                         _______ _______ _______ _____ _____    ______ ____
ROOT
ATOM      1  N   LIG    1        1.159   3.487   0.009  0.00  0.00    -0.299 N 
ATOM      2  H   LIG    1        0.551   3.336   0.914  0.00  0.00    +0.154 HD
ENDROOT
BRANCH   1  12
ATOM      3  C   LIG    1        2.411   5.522   0.199  0.00  0.00    +0.014 A 
ATOM      4  C   LIG    1        3.650   6.153   0.281  0.00  0.00    +0.049 A 
ATOM      5  C   LIG    1        3.719   7.654   0.397  0.00  0.00    +0.066 C 
ATOM      6  N   LIG    1        4.761   5.447   0.258  0.00  0.00    -0.215 NA
ATOM      7  C   LIG    1        4.733   4.113   0.155  0.00  0.00    +0.255 A 
ATOM      8  N   LIG    1        5.695   3.198   0.112  0.00  0.00    -0.197 NA
ATOM      9  C   LIG    1        5.158   1.989   0.005  0.00  0.00    +0.247 A 
ATOM     10  N   LIG    1        3.851   2.088  -0.024  0.00  0.00    -0.151 NA
ATOM     11  N   LIG    1        3.541   3.450   0.077  0.00  0.00    -0.182 N 
ATOM     12  C   LIG    1        2.366   4.146   0.092  0.00  0.00    +0.133 A 
BRANCH   3  14
ATOM     13  C   LIG    1        0.668   6.493   1.672  0.00  0.00    +0.009 C 
ATOM     14  C   LIG    1        1.139   6.330   0.225  0.00  0.00    +0.037 C 
ENDBRANCH   3  14
ENDBRANCH   1  12
BRANCH   1  15
ATOM     15  C   LIG    1        0.705   3.010  -1.226  0.00  0.00    +0.033 A 
ATOM     16  C   LIG    1       -0.453   2.246  -1.294  0.00  0.00    +0.027 A 
ATOM     17  C   LIG    1       -0.899   1.776  -2.513  0.00  0.00    +0.048 A 
ATOM     18  C   LIG    1       -0.192   2.067  -3.670  0.00  0.00    +0.130 A 
ATOM     19  C   LIG    1        0.965   2.829  -3.604  0.00  0.00    +0.048 A 
ATOM     20  C   LIG    1        1.414   3.300  -2.385  0.00  0.00    +0.027 A 
BRANCH  18  21
ATOM     21  O   LIG    1       -0.632   1.604  -4.870  0.00  0.00    -0.406 OA
BRANCH  21  22
ATOM     22  C   LIG    1        0.145   1.941  -6.021  0.00  0.00    +0.575 C 
ATOM     23  F   LIG    1        0.203   3.333  -6.153  0.00  0.00    -0.133 F 
ATOM     24  F   LIG    1       -0.446   1.388  -7.162  0.00  0.00    -0.133 F 
ATOM     25  F   LIG    1        1.440   1.432  -5.874  0.00  0.00    -0.133 F 
ENDBRANCH  21  22
ENDBRANCH  18  21
ENDBRANCH   1  15
TORSDOF 5
