REMARK  Name = ZINC26658844
REMARK                            x       y       z     vdW  Elec       q    Type
REMARK                         _______ _______ _______ _____ _____    ______ ____
ROOT
ATOM      1  N   LIG    1       -1.320  -3.281   2.671  0.00  0.00    -0.273 N 
ATOM      2  H   LIG    1       -2.065  -2.896   2.183  0.00  0.00    +0.258 HD
ATOM      3  C   LIG    1       -1.542  -4.089   3.669  0.00  0.00    +0.341 C 
ENDROOT
BRANCH   3   4
ATOM      4  N   LIG    1       -2.832  -4.395   4.032  0.00  0.00    -0.292 N 
ATOM      5  H   LIG    1       -2.997  -4.996   4.775  0.00  0.00    +0.255 HD
ATOM      6  H   LIG    1       -3.577  -4.010   3.545  0.00  0.00    +0.255 HD
ENDBRANCH   3   4
BRANCH   3   7
ATOM      7  N   LIG    1       -0.486  -4.635   4.359  0.00  0.00    -0.292 N 
ATOM      8  H   LIG    1       -0.651  -5.236   5.103  0.00  0.00    +0.255 HD
ATOM      9  H   LIG    1        0.425  -4.419   4.103  0.00  0.00    +0.255 HD
ENDBRANCH   3   7
BRANCH   1  10
ATOM     10  C   LIG    1        0.055  -2.955   2.284  0.00  0.00    +0.258 C 
BRANCH  10  15
ATOM     11  C   LIG    1       -0.018   1.503   0.010  0.00  0.00    +0.066 C 
ATOM     12  C   LIG    1        0.002  -0.004   0.002  0.00  0.00    +0.046 A 
ATOM     13  C   LIG    1        0.006  -0.708  -1.159  0.00  0.00    +0.070 A 
ATOM     14  S   LIG    1        0.032  -2.379  -0.531  0.00  0.00    -0.077 S 
ATOM     15  C   LIG    1        0.036  -2.009   1.111  0.00  0.00    +0.112 A 
ATOM     16  N   LIG    1        0.023  -0.699   1.122  0.00  0.00    -0.246 NA
ENDBRANCH  10  15
ENDBRANCH   1  10
TORSDOF 4
