REMARK  Name = ZINC29332890
REMARK                            x       y       z     vdW  Elec       q    Type
REMARK                         _______ _______ _______ _____ _____    ______ ____
ROOT
ATOM      1  C   LIG    1        1.295   3.534  -0.028  0.00  0.00    -0.011 C 
ATOM      2  C   LIG    1        1.350   2.006  -0.000  0.00  0.00    -0.049 C 
ATOM      3  C   LIG    1        2.084   1.497  -1.244  0.00  0.00    +0.144 C 
ATOM      4  O   LIG    1        2.066   0.067  -1.251  0.00  0.00    -0.379 OA
ATOM      5  C   LIG    1        0.750  -0.492  -1.242  0.00  0.00    +0.112 C 
ATOM      6  C   LIG    1        0.002  -0.004   0.002  0.00  0.00    -0.050 C 
ATOM      7  N   LIG    1       -0.018   1.466   0.010  0.00  0.00    +0.384 N 
ATOM      8  H   LIG    1       -0.558   1.819  -0.881  0.00  0.00    -0.085 HD
ATOM      9  H   LIG    1       -0.541   1.809   0.915  0.00  0.00    -0.085 HD
ENDROOT
BRANCH   5  10
ATOM     10  C   LIG    1        0.844  -2.019  -1.215  0.00  0.00    +0.150 C 
BRANCH  10  11
ATOM     11  C   LIG    1        1.470  -2.506  -2.496  0.00  0.00    +0.307 C 
ATOM     12  O   LIG    1        1.806  -1.714  -3.344  0.00  0.00    -0.251 OA
BRANCH  11  13
ATOM     13  O   LIG    1        1.654  -3.821  -2.696  0.00  0.00    -0.481 OA
ATOM     14  H   LIG    1        1.393  -4.435  -2.039  0.00  0.00    +0.295 HD
ENDBRANCH  11  13
ENDBRANCH  10  11
ENDBRANCH   5  10
TORSDOF 3
