REMARK  Name = ZINC19809854
REMARK                            x       y       z     vdW  Elec       q    Type
REMARK                         _______ _______ _______ _____ _____    ______ ____
ROOT
ATOM      1  N   LIG    1        4.551  -0.233  -0.913  0.00  0.00    -0.289 NA
ATOM      2  C   LIG    1        4.629   1.233  -0.848  0.00  0.00    +0.104 C 
ATOM      3  C   LIG    1        3.504   1.761   0.050  0.00  0.00    +0.122 C 
ATOM      4  N   LIG    1        2.225   1.227  -0.442  0.00  0.00    -0.310 N 
ATOM      5  C   LIG    1        2.113  -0.224  -0.658  0.00  0.00    +0.122 C 
ATOM      6  C   LIG    1        3.294  -0.673  -1.533  0.00  0.00    +0.104 C 
ENDROOT
BRANCH   4   7
ATOM      7  C   LIG    1        1.181   2.045  -0.682  0.00  0.00    +0.133 C 
ATOM      8  S   LIG    1        1.371   3.740  -0.540  0.00  0.00    -0.019 S 
BRANCH   7   9
ATOM      9  N   LIG    1       -0.013   1.528  -1.034  0.00  0.00    -0.324 N 
ATOM     10  H   LIG    1       -0.116   0.445  -1.200  0.00  0.00    +0.148 HD
BRANCH   9  11
ATOM     11  C   LIG    1       -1.174   2.407  -1.194  0.00  0.00    +0.072 C 
ATOM     12  C   LIG    1       -1.840   2.625   0.166  0.00  0.00    +0.022 C 
ATOM     13  C   LIG    1       -3.052   3.544  -0.002  0.00  0.00    +0.002 C 
ATOM     14  C   LIG    1       -4.053   2.898  -0.963  0.00  0.00    +0.000 C 
ATOM     15  C   LIG    1       -3.386   2.680  -2.322  0.00  0.00    +0.002 C 
ATOM     16  C   LIG    1       -2.174   1.762  -2.155  0.00  0.00    +0.022 C 
ENDBRANCH   9  11
ENDBRANCH   7   9
ENDBRANCH   4   7
BRANCH   1  17
ATOM     17  C   LIG    1        5.711  -0.790  -1.622  0.00  0.00    +0.117 C 
BRANCH  17  21
ATOM     18  C   LIG    1        9.288   0.230   0.478  0.00  0.00    +0.000 A 
ATOM     19  C   LIG    1        9.287   0.183  -0.903  0.00  0.00    +0.000 A 
ATOM     20  C   LIG    1        8.130  -0.147  -1.583  0.00  0.00    +0.005 A 
ATOM     21  C   LIG    1        6.973  -0.430  -0.881  0.00  0.00    -0.026 A 
ATOM     22  C   LIG    1        6.972  -0.378   0.500  0.00  0.00    +0.005 A 
ATOM     23  C   LIG    1        8.131  -0.053   1.180  0.00  0.00    +0.000 A 
ENDBRANCH  17  21
BRANCH  17  24
ATOM     24  C   LIG    1        5.582  -2.290  -1.696  0.00  0.00    -0.026 A 
ATOM     25  C   LIG    1        5.167  -3.003  -0.586  0.00  0.00    +0.005 A 
ATOM     26  C   LIG    1        5.044  -4.378  -0.655  0.00  0.00    +0.000 A 
ATOM     27  C   LIG    1        5.345  -5.041  -1.830  0.00  0.00    +0.000 A 
ATOM     28  C   LIG    1        5.765  -4.328  -2.938  0.00  0.00    +0.000 A 
ATOM     29  C   LIG    1        5.883  -2.953  -2.870  0.00  0.00    +0.005 A 
ENDBRANCH  17  24
ENDBRANCH   1  17
TORSDOF 6
