REMARK  Name = ZINC00033131
REMARK                            x       y       z     vdW  Elec       q    Type
REMARK                         _______ _______ _______ _____ _____    ______ ____
ROOT
ATOM      1  O   LIG    1       -0.240  -4.103   0.577  0.00  0.00    -0.458 OA
ENDROOT
BRANCH   1   9
ATOM      2  C   LIG    1       -0.018   1.465   0.010  0.00  0.00    -0.095 C 
ATOM      3  N   LIG    1        0.002  -0.004   0.002  0.00  0.00    +0.382 N 
ATOM      4  H   LIG    1        0.429  -0.349  -0.845  0.00  0.00    -0.081 HD
ATOM      5  C   LIG    1       -1.374  -0.547   0.157  0.00  0.00    -0.065 C 
ATOM      6  C   LIG    1       -1.682  -0.375   1.663  0.00  0.00    -0.017 C 
ATOM      7  C   LIG    1       -0.301  -0.360   2.350  0.00  0.00    -0.017 C 
ATOM      8  C   LIG    1       -1.308  -2.051  -0.154  0.00  0.00    +0.029 C 
ATOM      9  C   LIG    1       -0.424  -2.727   0.918  0.00  0.00    +0.174 C 
ATOM     10  C   LIG    1        0.938  -2.030   0.977  0.00  0.00    +0.029 C 
ATOM     11  C   LIG    1        0.717  -0.525   1.198  0.00  0.00    -0.065 C 
ENDBRANCH   1   9
BRANCH   1  12
ATOM     12  C   LIG    1       -1.143  -4.979   1.058  0.00  0.00    +0.340 C 
ATOM     13  O   LIG    1       -2.062  -4.586   1.748  0.00  0.00    -0.245 OA
BRANCH  12  14
ATOM     14  C   LIG    1       -1.015  -6.417   0.746  0.00  0.00    +0.062 A 
ATOM     15  C   LIG    1        0.043  -6.872  -0.043  0.00  0.00    +0.035 A 
ATOM     16  C   LIG    1        0.157  -8.218  -0.330  0.00  0.00    +0.043 A 
ATOM     17 CL   LIG    1        1.473  -8.786  -1.310  0.00  0.00    -0.083 Cl
ATOM     18  C   LIG    1       -0.776  -9.115   0.161  0.00  0.00    +0.040 A 
ATOM     19  C   LIG    1       -1.828  -8.670   0.943  0.00  0.00    +0.043 A 
ATOM     20 CL   LIG    1       -2.993  -9.803   1.554  0.00  0.00    -0.083 Cl
ATOM     21  C   LIG    1       -1.950  -7.328   1.243  0.00  0.00    +0.035 A 
ENDBRANCH  12  14
ENDBRANCH   1  12
TORSDOF 3
