REMARK  Name = ZINC29327729
REMARK                            x       y       z     vdW  Elec       q    Type
REMARK                         _______ _______ _______ _____ _____    ______ ____
ROOT
ATOM      1  C   LIG    1       -0.967   1.815   2.311  0.00  0.00    +0.047 C 
ATOM      2  C   LIG    1       -1.767   2.227   1.102  0.00  0.00    -0.010 A 
ATOM      3  C   LIG    1       -1.304   1.942  -0.175  0.00  0.00    +0.073 A 
ATOM      4  C   LIG    1       -2.130   2.376  -1.302  0.00  0.00    +0.015 A 
ATOM      5  C   LIG    1       -1.750   2.129  -2.625  0.00  0.00    +0.011 A 
ATOM      6  C   LIG    1       -2.554   2.545  -3.645  0.00  0.00    +0.001 A 
ATOM      7  C   LIG    1       -3.752   3.207  -3.386  0.00  0.00    +0.002 A 
ATOM      8  C   LIG    1       -4.154   3.458  -2.111  0.00  0.00    +0.028 A 
ATOM      9  C   LIG    1       -3.351   3.044  -1.031  0.00  0.00    +0.072 A 
ATOM     10  N   LIG    1       -3.720   3.276   0.229  0.00  0.00    -0.246 NA
ATOM     11  C   LIG    1       -2.989   2.900   1.258  0.00  0.00    +0.075 A 
ENDROOT
BRANCH  11  12
ATOM     12  C   LIG    1       -3.472   3.197   2.626  0.00  0.00    +0.001 A 
ATOM     13  C   LIG    1       -4.812   2.985   2.954  0.00  0.00    +0.010 A 
ATOM     14  C   LIG    1       -5.259   3.256   4.229  0.00  0.00    +0.009 A 
ATOM     15  C   LIG    1       -4.377   3.753   5.187  0.00  0.00    -0.018 A 
ATOM     16  C   LIG    1       -3.039   3.972   4.857  0.00  0.00    +0.009 A 
ATOM     17  C   LIG    1       -2.590   3.695   3.585  0.00  0.00    +0.010 A 
BRANCH  15  18
ATOM     18  C   LIG    1       -4.861   4.051   6.557  0.00  0.00    -0.018 A 
ATOM     19  C   LIG    1       -3.980   4.543   7.519  0.00  0.00    +0.008 A 
ATOM     20  C   LIG    1       -4.437   4.823   8.790  0.00  0.00    +0.001 A 
ATOM     21  C   LIG    1       -5.764   4.606   9.114  0.00  0.00    +0.000 A 
ATOM     22  C   LIG    1       -6.642   4.112   8.166  0.00  0.00    +0.001 A 
ATOM     23  C   LIG    1       -6.197   3.834   6.889  0.00  0.00    +0.008 A 
ENDBRANCH  15  18
ENDBRANCH  11  12
BRANCH   3  24
ATOM     24  C   LIG    1       -0.024   1.235  -0.388  0.00  0.00    +0.338 C 
ATOM     25  O   LIG    1       -0.003   0.022  -0.454  0.00  0.00    -0.245 OA
BRANCH  24  26
ATOM     26  O   LIG    1        1.120   1.936  -0.515  0.00  0.00    -0.477 OA
ATOM     27  H   LIG    1        1.104   2.871  -0.464  0.00  0.00    +0.295 HD
ENDBRANCH  24  26
ENDBRANCH   3  24
TORSDOF 4
