REMARK  Name = ZINC38415863
REMARK                            x       y       z     vdW  Elec       q    Type
REMARK                         _______ _______ _______ _____ _____    ______ ____
ROOT
ATOM      1  C   LIG    1        0.604  -0.493  -1.316  0.00  0.00    +0.043 C 
ENDROOT
BRANCH   1   2
ATOM      2  C   LIG    1        0.497  -1.985  -1.498  0.00  0.00    +0.150 A 
ATOM      3  N   LIG    1        1.056  -2.916  -0.738  0.00  0.00    -0.113 NA
ATOM      4  N   LIG    1        0.725  -4.064  -1.222  0.00  0.00    -0.023 NA
ATOM      5  N   LIG    1       -0.014  -3.884  -2.261  0.00  0.00    -0.047 NA
ATOM      6  N   LIG    1       -0.168  -2.619  -2.453  0.00  0.00    -0.243 N 
ATOM      7  H   LIG    1       -0.687  -2.199  -3.176  0.00  0.00    +0.192 HD
ENDBRANCH   1   2
BRANCH   1   9
ATOM      8  C   LIG    1        0.040   1.420   0.190  0.00  0.00    +0.008 C 
ATOM      9  C   LIG    1        0.034  -0.104   0.050  0.00  0.00    -0.009 C 
ATOM     10  C   LIG    1       -1.401  -0.621   0.170  0.00  0.00    +0.008 C 
ENDBRANCH   1   9
BRANCH   1  11
ATOM     11  C   LIG    1        2.074  -0.074  -1.393  0.00  0.00    -0.075 C 
BRANCH  11  12
ATOM     12  N   LIG    1        2.587  -0.334  -2.745  0.00  0.00    +0.379 N 
ATOM     13  H   LIG    1        3.528   0.021  -2.821  0.00  0.00    -0.090 HD
ATOM     14  H   LIG    1        1.997   0.126  -3.422  0.00  0.00    -0.090 HD
ATOM     15  H   LIG    1        2.587  -1.328  -2.919  0.00  0.00    -0.090 HD
ENDBRANCH  11  12
ENDBRANCH   1  11
TORSDOF 4
