REMARK  Name = ZINC00020228
REMARK                            x       y       z     vdW  Elec       q    Type
REMARK                         _______ _______ _______ _____ _____    ______ ____
ROOT
ATOM      1  C   LIG    1        0.552   1.375  -1.067  0.00  0.00    -0.006 C 
ATOM      2  C   LIG    1        0.101   0.035  -0.482  0.00  0.00    -0.001 C 
ENDROOT
BRANCH   2   3
ATOM      3  N   LIG    1        0.658  -1.062  -1.284  0.00  0.00    +0.389 N 
ATOM      4  H   LIG    1        1.629  -0.872  -1.486  0.00  0.00    -0.084 HD
ATOM      5  H   LIG    1        0.145  -1.142  -2.148  0.00  0.00    -0.084 HD
BRANCH   3   6
ATOM      6  C   LIG    1        0.552  -2.320  -0.533  0.00  0.00    -0.076 C 
ATOM      7  C   LIG    1        1.282  -2.179   0.804  0.00  0.00    -0.011 C 
ATOM      8  C   LIG    1        1.186  -3.453  -1.343  0.00  0.00    -0.011 C 
ATOM      9  C   LIG    1       -0.923  -2.639  -0.278  0.00  0.00    -0.011 C 
ENDBRANCH   3   6
ENDBRANCH   2   3
BRANCH   2  10
ATOM     10  C   LIG    1       -1.404  -0.041  -0.504  0.00  0.00    +0.149 C 
ATOM     11  O   LIG    1       -1.972  -0.555  -1.445  0.00  0.00    -0.294 OA
BRANCH  10  12
ATOM     12  C   LIG    1       -2.186   0.508   0.616  0.00  0.00    +0.017 A 
ATOM     13  C   LIG    1       -1.535   1.106   1.700  0.00  0.00    +0.011 A 
ATOM     14  C   LIG    1       -2.273   1.619   2.745  0.00  0.00    +0.002 A 
ATOM     15  C   LIG    1       -3.655   1.542   2.725  0.00  0.00    +0.020 A 
ATOM     16  C   LIG    1       -4.307   0.951   1.655  0.00  0.00    +0.042 A 
ATOM     17 CL   LIG    1       -6.041   0.860   1.641  0.00  0.00    -0.084 Cl
ATOM     18  C   LIG    1       -3.582   0.439   0.599  0.00  0.00    +0.031 A 
ENDBRANCH  10  12
ENDBRANCH   2  10
TORSDOF 4
