REMARK  Name = ZINC45947071
REMARK                            x       y       z     vdW  Elec       q    Type
REMARK                         _______ _______ _______ _____ _____    ______ ____
ROOT
ATOM      1  C   LIG    1        0.451   1.461   0.021  0.00  0.00    +0.049 C 
ATOM      2  C   LIG    1        0.170  -0.019   0.006  0.00  0.00    +0.011 A 
ATOM      3  C   LIG    1        0.110  -0.716  -1.187  0.00  0.00    +0.047 A 
ATOM      4  C   LIG    1        0.326  -0.002  -2.497  0.00  0.00    +0.066 C 
ATOM      5  N   LIG    1       -0.139  -2.015  -1.167  0.00  0.00    -0.232 NA
ATOM      6  C   LIG    1       -0.331  -2.655  -0.021  0.00  0.00    +0.162 A 
ATOM      7  N   LIG    1       -0.282  -2.023   1.144  0.00  0.00    -0.212 NA
ATOM      8  C   LIG    1       -0.031  -0.720   1.197  0.00  0.00    +0.130 A 
ENDROOT
BRANCH   6   9
ATOM      9  C   LIG    1       -0.608  -4.112  -0.043  0.00  0.00    +0.019 A 
ATOM     10  C   LIG    1       -0.818  -4.802   1.150  0.00  0.00    +0.011 A 
ATOM     11  C   LIG    1       -1.075  -6.157   1.123  0.00  0.00    +0.001 A 
ATOM     12  C   LIG    1       -1.123  -6.831  -0.084  0.00  0.00    +0.000 A 
ATOM     13  C   LIG    1       -0.915  -6.152  -1.270  0.00  0.00    +0.001 A 
ATOM     14  C   LIG    1       -0.663  -4.795  -1.256  0.00  0.00    +0.011 A 
ENDBRANCH   6   9
BRANCH   8  15
ATOM     15  N   LIG    1        0.026  -0.064   2.418  0.00  0.00    -0.299 N 
ATOM     16  H   LIG    1        0.124   0.901   2.446  0.00  0.00    +0.154 HD
BRANCH  15  17
ATOM     17  C   LIG    1       -0.058  -0.789   3.602  0.00  0.00    +0.032 A 
ATOM     18  C   LIG    1        0.559  -2.033   3.700  0.00  0.00    +0.024 A 
ATOM     19  C   LIG    1        0.479  -2.748   4.861  0.00  0.00    +0.017 A 
ATOM     20  C   LIG    1       -0.224  -2.228   5.954  0.00  0.00    +0.059 A 
ATOM     21  C   LIG    1       -0.843  -0.977   5.852  0.00  0.00    +0.017 A 
ATOM     22  C   LIG    1       -0.754  -0.265   4.689  0.00  0.00    +0.024 A 
BRANCH  20  23
ATOM     23  C   LIG    1       -0.313  -2.995   7.206  0.00  0.00    +0.337 C 
ATOM     24  O   LIG    1        0.228  -4.089   7.294  0.00  0.00    -0.245 OA
BRANCH  23  25
ATOM     25  O   LIG    1       -0.928  -2.539   8.161  0.00  0.00    -0.477 OA
ATOM     26  H   LIG    1       -1.342  -1.701   8.094  0.00  0.00    +0.295 HD
ENDBRANCH  23  25
ENDBRANCH  20  23
ENDBRANCH  15  17
ENDBRANCH   8  15
TORSDOF 5
