REMARK  Name = ZINC36349009
REMARK                            x       y       z     vdW  Elec       q    Type
REMARK                         _______ _______ _______ _____ _____    ______ ____
ROOT
ATOM      1  C   LIG    1        6.475  -0.499   0.589  0.00  0.00    +0.121 A 
ATOM      2  C   LIG    1        7.692  -0.048   1.225  0.00  0.00    +0.098 A 
ATOM      3  C   LIG    1        8.784  -0.886   0.997  0.00  0.00    +0.106 A 
ATOM      4  S   LIG    1        8.147  -2.101   0.035  0.00  0.00    +0.029 S 
ATOM      5  N   LIG    1        6.556  -1.610  -0.095  0.00  0.00    -0.202 NA
ENDROOT
BRANCH   3   6
ATOM      6  N   LIG    1       10.084  -0.747   1.455  0.00  0.00    -0.262 N 
ATOM      7  H   LIG    1       10.323   0.012   2.010  0.00  0.00    +0.157 HD
ATOM      8  C   LIG    1       11.015  -1.665   1.129  0.00  0.00    +0.302 C 
ATOM      9  N   LIG    1       12.280  -1.529   1.575  0.00  0.00    -0.313 N 
ATOM     10  H   LIG    1       12.950  -2.190   1.341  0.00  0.00    +0.146 HD
ATOM     11  H   LIG    1       12.520  -0.770   2.130  0.00  0.00    +0.146 HD
ATOM     12  O   LIG    1       10.715  -2.615   0.434  0.00  0.00    -0.253 OA
ENDBRANCH   3   6
BRANCH   2  13
ATOM     13  C   LIG    1        7.772   1.173   2.031  0.00  0.00    +0.246 C 
ATOM     14  N   LIG    1        8.080   2.348   1.447  0.00  0.00    -0.325 N 
ATOM     15  H   LIG    1        8.133   3.156   1.980  0.00  0.00    +0.145 HD
ATOM     16  H   LIG    1        8.249   2.385   0.492  0.00  0.00    +0.145 HD
ATOM     17  O   LIG    1        7.560   1.127   3.229  0.00  0.00    -0.270 OA
ENDBRANCH   2  13
BRANCH   1  18
ATOM     18  S   LIG    1        4.963   0.395   0.735  0.00  0.00    -0.096 S 
BRANCH  18  28
ATOM     19  C   LIG    1        0.144   1.609  -0.524  0.00  0.00    +0.000 A 
ATOM     20  C   LIG    1        1.379   2.229  -0.492  0.00  0.00    +0.000 A 
ATOM     21  C   LIG    1        2.522   1.471  -0.345  0.00  0.00    +0.005 A 
ATOM     22  C   LIG    1        2.443   0.088  -0.222  0.00  0.00    -0.031 A 
ATOM     23  C   LIG    1        1.215  -0.525  -0.235  0.00  0.00    -0.043 A 
ATOM     24  C   LIG    1        1.042  -2.009  -0.050  0.00  0.00    +0.035 C 
ATOM     25  C   LIG    1        1.955  -2.788  -1.001  0.00  0.00    +0.005 C 
ATOM     26  C   LIG    1        3.253  -3.092  -0.259  0.00  0.00    +0.002 C 
ATOM     27  C   LIG    1        3.572  -1.951   0.710  0.00  0.00    +0.019 C 
ATOM     28  C   LIG    1        3.746  -0.664  -0.095  0.00  0.00    +0.083 C 
ATOM     29  C   LIG    1        0.064   0.238  -0.398  0.00  0.00    +0.004 A 
ENDBRANCH  18  28
ENDBRANCH   1  18
TORSDOF 4
