REMARK  Name = ZINC29046428
REMARK                            x       y       z     vdW  Elec       q    Type
REMARK                         _______ _______ _______ _____ _____    ______ ____
ROOT
ATOM      1  C   LIG    1        2.380   1.424  -0.013  0.00  0.00    +0.001 A 
ATOM      2  C   LIG    1        1.156   2.091   0.002  0.00  0.00    +0.001 A 
ATOM      3  C   LIG    1       -0.017   1.401   0.010  0.00  0.00    +0.009 A 
ATOM      4  C   LIG    1        0.002  -0.004   0.002  0.00  0.00    -0.015 A 
ATOM      5  C   LIG    1        1.247  -0.682  -0.013  0.00  0.00    -0.018 A 
ATOM      6  C   LIG    1        1.266  -2.087  -0.022  0.00  0.00    +0.008 A 
ATOM      7  C   LIG    1        0.093  -2.776  -0.015  0.00  0.00    +0.001 A 
ATOM      8  C   LIG    1       -1.131  -2.110   0.001  0.00  0.00    +0.004 A 
ATOM      9  C   LIG    1       -1.188  -0.750   0.009  0.00  0.00    -0.038 A 
ATOM     10  C   LIG    1        2.438   0.065  -0.021  0.00  0.00    +0.008 A 
ENDROOT
BRANCH   9  11
ATOM     11  C   LIG    1       -2.522  -0.049   0.026  0.00  0.00    +0.004 C 
ATOM     12  C   LIG    1       -3.770  -0.908   0.236  0.00  0.00    -0.009 C 
ATOM     13  C   LIG    1       -3.474  -0.313  -1.142  0.00  0.00    -0.067 C 
BRANCH  13  14
ATOM     14  N   LIG    1       -4.318   0.801  -1.595  0.00  0.00    +0.380 N 
ATOM     15  H   LIG    1       -4.960   1.135  -0.766  0.00  0.00    -0.090 HD
ATOM     16  H   LIG    1       -3.680   1.635  -1.923  0.00  0.00    -0.090 HD
ATOM     17  H   LIG    1       -4.946   0.468  -2.434  0.00  0.00    -0.090 HD
ENDBRANCH  13  14
ENDBRANCH   9  11
TORSDOF 2
