REMARK  Name = ZINC13817975
REMARK                            x       y       z     vdW  Elec       q    Type
REMARK                         _______ _______ _______ _____ _____    ______ ____
ROOT
ATOM      1  C   LIG    1       -0.018   1.503   0.010  0.00  0.00    +0.044 C 
ATOM      2  C   LIG    1        0.002  -0.004   0.002  0.00  0.00    -0.050 A 
ATOM      3  C   LIG    1        0.006  -0.684  -1.203  0.00  0.00    +0.005 A 
ATOM      4  C   LIG    1        0.019  -2.069  -1.217  0.00  0.00    +0.030 A 
ATOM      5  C   LIG    1        0.033  -2.763  -0.030  0.00  0.00    +0.116 A 
ATOM      6  C   LIG    1        0.039  -2.092   1.191  0.00  0.00    +0.011 A 
ATOM      7  C   LIG    1        0.082  -2.827   2.478  0.00  0.00    +0.008 A 
ATOM      8  C   LIG    1       -0.205  -2.100   3.653  0.00  0.00    +0.011 A 
ATOM      9  C   LIG    1       -0.213  -2.698   4.870  0.00  0.00    +0.011 A 
ATOM     10  C   LIG    1        0.069  -4.070   4.983  0.00  0.00    +0.002 A 
ATOM     11  C   LIG    1        0.055  -4.720   6.231  0.00  0.00    +0.011 A 
ATOM     12  C   LIG    1        0.339  -6.056   6.264  0.00  0.00    +0.020 A 
ATOM     13  C   LIG    1        0.631  -6.735   5.083  0.00  0.00    +0.111 A 
ATOM     14  N   LIG    1        0.643  -6.125   3.923  0.00  0.00    -0.253 NA
ATOM     15  C   LIG    1        0.373  -4.820   3.822  0.00  0.00    +0.094 A 
ATOM     16  C   LIG    1        0.387  -4.175   2.564  0.00  0.00    +0.082 A 
ATOM     17  N   LIG    1        0.736  -4.931   1.441  0.00  0.00    -0.214 N 
ATOM     18  H   LIG    1        1.366  -5.665   1.509  0.00  0.00    +0.174 HD
ATOM     19  S   LIG    1        0.037  -4.530  -0.016  0.00  0.00    +0.073 S 
ATOM     20  O   LIG    1       -1.320  -4.950   0.044  0.00  0.00    -0.150 OA
ATOM     21  O   LIG    1        0.930  -4.953  -1.037  0.00  0.00    -0.150 OA
ATOM     22  C   LIG    1        0.023  -0.695   1.196  0.00  0.00    +0.014 A 
ENDROOT
TORSDOF 0
