REMARK  Name = ZINC17040529
REMARK                            x       y       z     vdW  Elec       q    Type
REMARK                         _______ _______ _______ _____ _____    ______ ____
ROOT
ATOM      1  N   LIG    1       -0.165  -4.248  -0.025  0.00  0.00    -0.154 N 
ATOM      2  C   LIG    1       -0.274  -5.024  -1.171  0.00  0.00    +0.426 C 
ATOM      3  N   LIG    1       -0.557  -6.337  -1.061  0.00  0.00    -0.009 NA
ATOM      4  C   LIG    1       -0.727  -6.912   0.112  0.00  0.00    +0.376 C 
ATOM      5  N   LIG    1       -0.630  -6.176   1.265  0.00  0.00    -0.204 N 
ATOM      6  H   LIG    1       -1.079  -6.458   2.078  0.00  0.00    +0.248 HD
ATOM      7  N   LIG    1       -0.103  -4.483  -2.352  0.00  0.00    -0.128 NA
ATOM      8  H   LIG    1       -0.180  -5.028  -3.151  0.00  0.00    +0.306 HD
ATOM      9  C   LIG    1        0.185  -4.943   1.229  0.00  0.00    +0.193 C 
ATOM     10  C   LIG    1        1.674  -5.294   1.235  0.00  0.00    +0.090 C 
ATOM     11  C   LIG    1       -0.151  -4.057   2.430  0.00  0.00    +0.090 C 
ENDROOT
BRANCH   1  16
ATOM     12  C   LIG    1       -1.006   1.360  -0.163  0.00  0.00    +0.044 C 
ATOM     13  C   LIG    1       -0.782  -0.130  -0.126  0.00  0.00    -0.050 A 
ATOM     14  C   LIG    1        0.500  -0.638  -0.219  0.00  0.00    +0.006 A 
ATOM     15  C   LIG    1        0.709  -2.003  -0.185  0.00  0.00    +0.040 A 
ATOM     16  C   LIG    1       -0.372  -2.866  -0.058  0.00  0.00    +0.098 A 
ATOM     17  C   LIG    1       -1.659  -2.353   0.035  0.00  0.00    +0.040 A 
ATOM     18  C   LIG    1       -1.860  -0.987   0.006  0.00  0.00    +0.006 A 
ENDBRANCH   1  16
BRANCH   4  19
ATOM     19  N   LIG    1       -1.000  -8.249   0.179  0.00  0.00    -0.251 N 
ATOM     20  H   LIG    1       -1.125  -8.675   1.042  0.00  0.00    +0.241 HD
ATOM     21  H   LIG    1       -1.070  -8.772  -0.635  0.00  0.00    +0.241 HD
ENDBRANCH   4  19
TORSDOF 2
