REMARK  Name = ZINC29127351
REMARK                            x       y       z     vdW  Elec       q    Type
REMARK                         _______ _______ _______ _____ _____    ______ ____
ROOT
ATOM      1  N   LIG    1       -0.016   1.343   0.009  0.00  0.00    -0.260 N 
ATOM      2  C   LIG    1        1.248   1.744  -0.382  0.00  0.00    +0.086 A 
ATOM      3  C   LIG    1        1.802   2.953  -0.854  0.00  0.00    +0.028 A 
ATOM      4  C   LIG    1        1.018   4.100  -1.019  0.00  0.00    +0.029 A 
ATOM      5  C   LIG    1        1.607   5.267  -1.487  0.00  0.00    +0.026 A 
ATOM      6  C   LIG    1        2.980   5.297  -1.793  0.00  0.00    +0.019 A 
ATOM      7  C   LIG    1        3.751   4.191  -1.638  0.00  0.00    +0.029 A 
ATOM      8  C   LIG    1        3.184   2.993  -1.165  0.00  0.00    +0.073 A 
ATOM      9  N   LIG    1        3.937   1.897  -1.010  0.00  0.00    -0.253 NA
ATOM     10  C   LIG    1        3.438   0.766  -0.573  0.00  0.00    +0.139 A 
ATOM     11  C   LIG    1        2.088   0.644  -0.245  0.00  0.00    +0.089 A 
ATOM     12  N   LIG    1        1.303  -0.403   0.231  0.00  0.00    -0.293 N 
ATOM     13  C   LIG    1        1.768  -1.761   0.525  0.00  0.00    +0.154 C 
ATOM     14  C   LIG    1        0.041   0.047   0.374  0.00  0.00    +0.334 A 
ATOM     15  O   LIG    1       -0.900  -0.613   0.771  0.00  0.00    -0.246 OA
ENDROOT
BRANCH   1  19
ATOM     16  C   LIG    1       -3.431   3.733   0.040  0.00  0.00    -0.028 A 
ATOM     17  C   LIG    1       -3.161   2.928  -1.052  0.00  0.00    +0.007 A 
ATOM     18  C   LIG    1       -2.030   2.135  -1.065  0.00  0.00    +0.026 A 
ATOM     19  C   LIG    1       -1.164   2.147   0.019  0.00  0.00    +0.052 A 
ATOM     20  C   LIG    1       -1.440   2.951   1.117  0.00  0.00    +0.026 A 
ATOM     21  C   LIG    1       -2.570   3.746   1.122  0.00  0.00    +0.007 A 
BRANCH  16  23
ATOM     22  C   LIG    1       -4.727   5.381   1.363  0.00  0.00    +0.032 C 
ATOM     23  C   LIG    1       -4.665   4.597   0.051  0.00  0.00    +0.077 C 
ATOM     24  C   LIG    1       -4.614   5.574  -1.126  0.00  0.00    +0.032 C 
BRANCH  23  25
ATOM     25  C   LIG    1       -5.861   3.747  -0.070  0.00  0.00    +0.073 C 
ATOM     26  N   LIG    1       -6.783   3.091  -0.162  0.00  0.00    -0.196 NA
ENDBRANCH  23  25
ENDBRANCH  16  23
ENDBRANCH   1  19
BRANCH   5  27
ATOM     27  C   LIG    1        0.812   6.446  -1.658  0.00  0.00    -0.061 C 
ATOM     28  C   LIG    1        0.161   7.413  -1.799  0.00  0.00    -0.060 C 
BRANCH  28  29
ATOM     29  C   LIG    1       -0.633   8.592  -1.971  0.00  0.00    +0.043 A 
ATOM     30  C   LIG    1       -2.003   8.578  -1.676  0.00  0.00    +0.020 A 
ATOM     31  C   LIG    1       -2.724   9.745  -1.855  0.00  0.00    +0.021 A 
ATOM     32  C   LIG    1       -2.078  10.876  -2.325  0.00  0.00    +0.111 A 
ATOM     33  N   LIG    1       -0.787  10.859  -2.599  0.00  0.00    -0.262 NA
ATOM     34  C   LIG    1       -0.056   9.775  -2.441  0.00  0.00    +0.127 A 
ENDBRANCH  28  29
ENDBRANCH   5  27
TORSDOF 5
