REMARK  Name = ZINC17655310
REMARK                            x       y       z     vdW  Elec       q    Type
REMARK                         _______ _______ _______ _____ _____    ______ ____
ROOT
ATOM      1  P   LIG    1        1.902   0.621  -2.497  0.00  0.00    +0.147 P 
ATOM      2  O   LIG    1        0.903   1.141  -3.457  0.00  0.00    -0.311 OA
ENDROOT
BRANCH   1   8
ATOM      3  C   LIG    1        2.746   3.305   1.147  0.00  0.00    +0.007 C 
ATOM      4  C   LIG    1        1.607   3.715   0.212  0.00  0.00    -0.013 C 
ATOM      5  C   LIG    1        0.266   3.334   0.844  0.00  0.00    +0.003 C 
ATOM      6  C   LIG    1        0.221   1.822   1.071  0.00  0.00    +0.005 C 
ATOM      7  C   LIG    1        0.376   1.100  -0.269  0.00  0.00    +0.002 C 
ATOM      8  C   LIG    1        1.717   1.481  -0.901  0.00  0.00    +0.062 C 
ATOM      9  C   LIG    1        1.762   2.993  -1.128  0.00  0.00    +0.015 C 
BRANCH   7  10
ATOM     10  C   LIG    1       -0.763   1.510  -1.204  0.00  0.00    -0.013 C 
ATOM     11  C   LIG    1       -0.942   3.029  -1.155  0.00  0.00    +0.007 C 
ATOM     12  C   LIG    1       -2.059   0.829  -0.759  0.00  0.00    +0.007 C 
ENDBRANCH   7  10
ENDBRANCH   1   8
BRANCH   1  13
ATOM     13  C   LIG    1        1.641  -1.159  -2.260  0.00  0.00    +0.016 A 
ATOM     14  C   LIG    1        1.968  -1.750  -1.053  0.00  0.00    +0.011 A 
ATOM     15  C   LIG    1        1.765  -3.105  -0.870  0.00  0.00    +0.001 A 
ATOM     16  C   LIG    1        1.244  -3.871  -1.897  0.00  0.00    +0.000 A 
ATOM     17  C   LIG    1        0.923  -3.281  -3.105  0.00  0.00    +0.001 A 
ATOM     18  C   LIG    1        1.122  -1.925  -3.286  0.00  0.00    +0.011 A 
ENDBRANCH   1  13
BRANCH   1  19
ATOM     19  C   LIG    1        3.571   0.905  -3.148  0.00  0.00    +0.016 A 
ATOM     20  C   LIG    1        4.627   1.108  -2.278  0.00  0.00    +0.011 A 
ATOM     21  C   LIG    1        5.899   1.320  -2.773  0.00  0.00    +0.001 A 
ATOM     22  C   LIG    1        6.115   1.340  -4.139  0.00  0.00    +0.000 A 
ATOM     23  C   LIG    1        5.059   1.143  -5.008  0.00  0.00    +0.001 A 
ATOM     24  C   LIG    1        3.787   0.926  -4.513  0.00  0.00    +0.011 A 
ENDBRANCH   1  19
TORSDOF 4
