REMARK  Name = ZINC13805752
REMARK                            x       y       z     vdW  Elec       q    Type
REMARK                         _______ _______ _______ _____ _____    ______ ____
ROOT
ATOM      1  C   LIG    1       -0.549  -4.006   0.035  0.00  0.00    +0.020 C 
ATOM      2  C   LIG    1       -0.194  -2.675   0.007  0.00  0.00    +0.079 C 
ATOM      3  C   LIG    1        1.140  -2.056  -0.122  0.00  0.00    +0.276 C 
ATOM      4  N   LIG    1        1.177  -0.741  -0.124  0.00  0.00    -0.154 NA
ATOM      5  C   LIG    1        0.087  -0.000  -0.007  0.00  0.00    +0.156 C 
ATOM      6  O   LIG    1        2.155  -2.729  -0.226  0.00  0.00    -0.267 OA
ATOM      7  S   LIG    1       -1.218  -1.213   0.115  0.00  0.00    -0.051 S 
ENDROOT
BRANCH   1   9
ATOM      8  C   LIG    1       -2.250  -5.685   0.195  0.00  0.00    +0.046 C 
ATOM      9  C   LIG    1       -1.898  -4.369   0.167  0.00  0.00    +0.005 C 
BRANCH   8  12
ATOM     10  C   LIG    1       -5.497  -7.226   0.507  0.00  0.00    +0.042 A 
ATOM     11  C   LIG    1       -4.105  -7.339   0.365  0.00  0.00    +0.049 A 
ATOM     12  C   LIG    1       -3.609  -6.050   0.327  0.00  0.00    +0.128 A 
ATOM     13  O   LIG    1       -4.654  -5.203   0.434  0.00  0.00    -0.464 OA
ATOM     14  C   LIG    1       -5.790  -5.907   0.542  0.00  0.00    +0.195 A 
ENDBRANCH   8  12
ENDBRANCH   1   9
BRANCH   5  15
ATOM     15  N   LIG    1       -0.017   1.368   0.010  0.00  0.00    -0.296 N 
ATOM     16  H   LIG    1       -0.891   1.789   0.017  0.00  0.00    +0.154 HD
BRANCH  15  17
ATOM     17  C   LIG    1        1.138   2.157   0.011  0.00  0.00    +0.035 A 
ATOM     18  C   LIG    1        2.329   1.646   0.511  0.00  0.00    +0.043 A 
ATOM     19  C   LIG    1        3.470   2.426   0.507  0.00  0.00    +0.044 A 
ATOM     20 CL   LIG    1        4.960   1.787   1.127  0.00  0.00    -0.083 Cl
ATOM     21  C   LIG    1        3.424   3.719   0.013  0.00  0.00    +0.040 A 
ATOM     22  C   LIG    1        2.237   4.232  -0.481  0.00  0.00    +0.044 A 
ATOM     23 CL   LIG    1        2.185   5.853  -1.099  0.00  0.00    -0.083 Cl
ATOM     24  C   LIG    1        1.095   3.454  -0.484  0.00  0.00    +0.043 A 
ENDBRANCH  15  17
ENDBRANCH   5  15
TORSDOF 4
