REMARK  Name = ZINC45339644
REMARK                            x       y       z     vdW  Elec       q    Type
REMARK                         _______ _______ _______ _____ _____    ______ ____
ROOT
ATOM      1  C   LIG    1        0.410  -0.871  -1.134  0.00  0.00    -0.011 C 
ATOM      2  C   LIG    1        1.855  -0.367  -0.895  0.00  0.00    +0.004 C 
ATOM      3  C   LIG    1        2.672  -1.160  -1.945  0.00  0.00    +0.006 C 
ATOM      4  C   LIG    1        2.018  -2.557  -1.957  0.00  0.00    -0.035 C 
ATOM      5  C   LIG    1        0.577  -2.373  -1.443  0.00  0.00    +0.009 C 
ENDROOT
BRANCH   1   7
ATOM      6  C   LIG    1       -0.657   0.821   0.362  0.00  0.00    +0.004 C 
ATOM      7  C   LIG    1       -0.441  -0.674   0.122  0.00  0.00    +0.000 C 
ENDBRANCH   1   7
BRANCH   4   8
ATOM      8  C   LIG    1        2.789  -3.504  -1.034  0.00  0.00    -0.079 C 
BRANCH   8   9
ATOM      9  N   LIG    1        4.138  -3.721  -1.573  0.00  0.00    +0.378 N 
ATOM     10  H   LIG    1        4.601  -2.832  -1.688  0.00  0.00    -0.090 HD
ATOM     11  H   LIG    1        4.073  -4.184  -2.467  0.00  0.00    -0.090 HD
ATOM     12  H   LIG    1        4.667  -4.296  -0.934  0.00  0.00    -0.090 HD
ENDBRANCH   8   9
ENDBRANCH   4   8
BRANCH   4  13
ATOM     13  C   LIG    1        1.997  -3.114  -3.381  0.00  0.00    +0.125 C 
BRANCH  13  14
ATOM     14  C   LIG    1        1.252  -4.424  -3.397  0.00  0.00    +0.305 C 
ATOM     15  O   LIG    1        0.727  -4.840  -2.378  0.00  0.00    -0.251 OA
BRANCH  14  16
ATOM     16  O   LIG    1        1.175  -5.069  -4.429  0.00  0.00    -0.481 OA
ATOM     17  H   LIG    1        1.579  -4.750  -5.212  0.00  0.00    +0.295 HD
ENDBRANCH  14  16
ENDBRANCH  13  14
ENDBRANCH   4  13
TORSDOF 6
