REMARK  Name = ZINC13804672
REMARK                            x       y       z     vdW  Elec       q    Type
REMARK                         _______ _______ _______ _____ _____    ______ ____
ROOT
ATOM      1  N   LIG    1        4.516  -2.225  -3.466  0.00  0.00    -0.162 NA
ATOM      2  C   LIG    1        5.539  -1.382  -4.100  0.00  0.00    +0.129 C 
ATOM      3  C   LIG    1        6.350  -2.244  -5.075  0.00  0.00    +0.125 C 
ATOM      4  N   LIG    1        6.772  -3.468  -4.379  0.00  0.00    -0.294 N 
ATOM      5  C   LIG    1        8.075  -3.811  -4.324  0.00  0.00    +0.247 C 
ATOM      6  O   LIG    1        8.905  -3.139  -4.906  0.00  0.00    -0.270 OA
ATOM      7  C   LIG    1        5.749  -4.311  -3.745  0.00  0.00    +0.138 C 
ATOM      8  C   LIG    1        4.939  -3.446  -2.766  0.00  0.00    +0.185 C 
ENDROOT
BRANCH   5   9
ATOM      9  C   LIG    1        8.493  -5.002  -3.557  0.00  0.00    +0.037 A 
ATOM     10  C   LIG    1        7.860  -6.228  -3.770  0.00  0.00    +0.013 A 
ATOM     11  C   LIG    1        8.251  -7.338  -3.055  0.00  0.00    +0.009 A 
ATOM     12  C   LIG    1        9.279  -7.237  -2.118  0.00  0.00    -0.018 A 
ATOM     13  C   LIG    1        9.912  -6.013  -1.904  0.00  0.00    +0.009 A 
ATOM     14  C   LIG    1        9.527  -4.903  -2.622  0.00  0.00    +0.013 A 
BRANCH  12  15
ATOM     15  C   LIG    1        9.700  -8.433  -1.348  0.00  0.00    -0.018 A 
ATOM     16  C   LIG    1        9.073  -9.659  -1.563  0.00  0.00    +0.008 A 
ATOM     17  C   LIG    1        9.468 -10.769  -0.844  0.00  0.00    +0.001 A 
ATOM     18  C   LIG    1       10.485 -10.666   0.088  0.00  0.00    +0.000 A 
ATOM     19  C   LIG    1       11.111  -9.451   0.306  0.00  0.00    +0.001 A 
ATOM     20  C   LIG    1       10.727  -8.336  -0.411  0.00  0.00    +0.008 A 
ENDBRANCH  12  15
ENDBRANCH   5   9
BRANCH   8  21
ATOM     21  C   LIG    1        5.795  -3.079  -1.581  0.00  0.00    +0.256 C 
ATOM     22  N   LIG    1        6.299  -4.045  -0.788  0.00  0.00    -0.196 N 
ATOM     23  H   LIG    1        6.110  -4.977  -0.980  0.00  0.00    +0.182 HD
ATOM     24  O   LIG    1        6.032  -1.914  -1.342  0.00  0.00    -0.272 OA
BRANCH  22  25
ATOM     25  O   LIG    1        7.104  -3.700   0.325  0.00  0.00    -0.295 OA
ATOM     26  H   LIG    1        7.418  -4.460   0.833  0.00  0.00    +0.241 HD
ENDBRANCH  22  25
ENDBRANCH   8  21
BRANCH   1  27
ATOM     27  S   LIG    1        2.916  -1.804  -3.534  0.00  0.00    +0.062 S 
ATOM     28  O   LIG    1        2.762  -0.973  -4.676  0.00  0.00    -0.153 OA
ATOM     29  O   LIG    1        2.172  -3.002  -3.358  0.00  0.00    -0.153 OA
BRANCH  27  33
ATOM     30  C   LIG    1        2.059   0.791   0.077  0.00  0.00    +0.120 A 
ATOM     31  C   LIG    1        2.475   1.371  -1.112  0.00  0.00    +0.047 A 
ATOM     32  C   LIG    1        2.736   0.577  -2.212  0.00  0.00    +0.032 A 
ATOM     33  C   LIG    1        2.583  -0.794  -2.129  0.00  0.00    +0.106 A 
ATOM     34  C   LIG    1        2.168  -1.375  -0.944  0.00  0.00    +0.032 A 
ATOM     35  C   LIG    1        1.912  -0.586   0.161  0.00  0.00    +0.047 A 
BRANCH  30  37
ATOM     36  C   LIG    1        1.976   2.979   1.003  0.00  0.00    +0.277 C 
ATOM     37  O   LIG    1        1.803   1.570   1.161  0.00  0.00    -0.495 OA
ENDBRANCH  30  37
ENDBRANCH  27  33
ENDBRANCH   1  27
TORSDOF 7
