REMARK  Name = ZINC37858319
REMARK                            x       y       z     vdW  Elec       q    Type
REMARK                         _______ _______ _______ _____ _____    ______ ____
ROOT
ATOM      1  C   LIG    1        0.025   0.022   2.495  0.00  0.00    -0.015 A 
ATOM      2  C   LIG    1        1.143  -0.064   3.342  0.00  0.00    +0.014 A 
ATOM      3  C   LIG    1        1.170   0.595   4.530  0.00  0.00    -0.022 A 
ATOM      4  C   LIG    1        2.379   0.489   5.424  0.00  0.00    +0.046 C 
ATOM      5  C   LIG    1        0.071   1.375   4.923  0.00  0.00    +0.097 A 
ATOM      6  C   LIG    1       -1.065   1.470   4.076  0.00  0.00    +0.112 A 
ATOM      7  N   LIG    1       -2.103   2.218   4.466  0.00  0.00    -0.144 NA
ATOM      8  N   LIG    1       -2.059   2.837   5.596  0.00  0.00    -0.113 NA
ATOM      9  C   LIG    1       -1.000   2.759   6.404  0.00  0.00    +0.233 A 
ATOM     10  N   LIG    1        0.061   2.040   6.085  0.00  0.00    -0.212 NA
ATOM     11  C   LIG    1       -1.071   0.786   2.852  0.00  0.00    +0.040 A 
ENDROOT
BRANCH   1  19
ATOM     12  C   LIG    1       -0.018   1.503   0.010  0.00  0.00    +0.044 C 
ATOM     13  C   LIG    1        0.002  -0.004   0.002  0.00  0.00    -0.042 A 
ATOM     14  C   LIG    1        0.006  -0.689  -1.196  0.00  0.00    +0.004 A 
ATOM     15  C   LIG    1        0.025  -2.072  -1.205  0.00  0.00    +0.001 A 
ATOM     16  C   LIG    1        0.040  -2.776  -0.015  0.00  0.00    +0.004 A 
ATOM     17  C   LIG    1        0.037  -2.102   1.189  0.00  0.00    -0.042 A 
ATOM     18  C   LIG    1        0.054  -2.871   2.485  0.00  0.00    +0.044 C 
ATOM     19  C   LIG    1        0.023  -0.709   1.204  0.00  0.00    -0.012 A 
ENDBRANCH   1  19
BRANCH   9  20
ATOM     20  N   LIG    1       -1.014   3.447   7.604  0.00  0.00    -0.326 N 
ATOM     21  H   LIG    1       -0.251   3.398   8.200  0.00  0.00    +0.145 HD
ATOM     22  H   LIG    1       -1.788   3.978   7.850  0.00  0.00    +0.145 HD
ENDBRANCH   9  20
TORSDOF 2
