REMARK  Name = ZINC38206526
REMARK                            x       y       z     vdW  Elec       q    Type
REMARK                         _______ _______ _______ _____ _____    ______ ____
ROOT
ATOM      1  C   LIG    1        1.260  -2.189  -0.227  0.00  0.00    +0.015 C 
ATOM      2  C   LIG    1        0.109  -2.878  -0.077  0.00  0.00    +0.000 C 
ATOM      3  C   LIG    1       -0.004  -4.323   0.109  0.00  0.00    +0.185 C 
ATOM      4  C   LIG    1       -1.410  -4.700   0.235  0.00  0.00    +0.000 C 
ATOM      5  C   LIG    1       -2.252  -3.453   0.127  0.00  0.00    +0.044 C 
ATOM      6  C   LIG    1       -1.877  -5.954   0.417  0.00  0.00    +0.015 C 
ATOM      7  O   LIG    1        0.936  -5.098   0.153  0.00  0.00    -0.287 OA
ATOM      8  C   LIG    1       -1.278  -2.284  -0.066  0.00  0.00    +0.044 C 
ENDROOT
BRANCH   1  14
ATOM      9  C   LIG    1        2.408   1.381  -0.276  0.00  0.00    +0.002 A 
ATOM     10  C   LIG    1        1.198   2.051  -0.329  0.00  0.00    +0.015 A 
ATOM     11  C   LIG    1        0.007   1.345  -0.349  0.00  0.00    +0.018 A 
ATOM     12 BR   LIG    1       -1.639   2.272  -0.421  0.00  0.00    -0.050 Br
ATOM     13  C   LIG    1        0.019  -0.035  -0.316  0.00  0.00    +0.023 A 
ATOM     14  C   LIG    1        1.238  -0.719  -0.263  0.00  0.00    -0.024 A 
ATOM     15  C   LIG    1        2.436   0.003  -0.243  0.00  0.00    +0.008 A 
ENDBRANCH   1  14
BRANCH   6  16
ATOM     16  C   LIG    1       -3.326  -6.209   0.397  0.00  0.00    -0.024 A 
ATOM     17  C   LIG    1       -4.228  -5.141   0.354  0.00  0.00    +0.023 A 
ATOM     18  C   LIG    1       -5.585  -5.389   0.335  0.00  0.00    +0.018 A 
ATOM     19 BR   LIG    1       -6.806  -3.947   0.278  0.00  0.00    -0.050 Br
ATOM     20  C   LIG    1       -6.054  -6.692   0.358  0.00  0.00    +0.015 A 
ATOM     21  C   LIG    1       -5.168  -7.753   0.400  0.00  0.00    +0.002 A 
ATOM     22  C   LIG    1       -3.808  -7.522   0.414  0.00  0.00    +0.008 A 
ENDBRANCH   6  16
TORSDOF 2
