REMARK  Name = ZINC14950346
REMARK                            x       y       z     vdW  Elec       q    Type
REMARK                         _______ _______ _______ _____ _____    ______ ____
ROOT
ATOM      1  C   LIG    1       -0.019   1.526   0.016  0.00  0.00    +0.028 C 
ATOM      2  C   LIG    1        0.002  -0.004  -0.022  0.00  0.00    +0.019 C 
ATOM      3  C   LIG    1        0.730  -0.472  -1.284  0.00  0.00    +0.037 C 
ATOM      4  C   LIG    1        2.156   0.087  -1.283  0.00  0.00    +0.087 C 
ATOM      5  N   LIG    1        2.815  -0.298  -0.028  0.00  0.00    -0.287 NA
ATOM      6  C   LIG    1        2.155   0.024   1.244  0.00  0.00    +0.087 C 
ATOM      7  C   LIG    1        0.729  -0.535   1.216  0.00  0.00    +0.037 C 
ENDROOT
BRANCH   5   8
ATOM      8  C   LIG    1        4.040  -0.956  -0.044  0.00  0.00    +0.125 C 
ATOM      9  C   LIG    1        4.705  -1.200   1.153  0.00  0.00    +0.049 C 
ATOM     10  C   LIG    1        5.934  -1.862   1.120  0.00  0.00    +0.102 C 
ATOM     11  C   LIG    1        6.442  -2.253  -0.126  0.00  0.00    +0.030 C 
ATOM     12  C   LIG    1        5.717  -1.971  -1.266  0.00  0.00    +0.083 C 
ATOM     13  N   LIG    1        4.557  -1.348  -1.197  0.00  0.00    -0.301 NA
ATOM     14  H   LIG    1        4.070  -1.168  -2.016  0.00  0.00    +0.123 HD
BRANCH  10  15
ATOM     15  C   LIG    1        6.679  -2.144   2.366  0.00  0.00    +0.308 C 
ATOM     16  O   LIG    1        6.221  -1.796   3.444  0.00  0.00    -0.251 OA
BRANCH  15  17
ATOM     17  O   LIG    1        7.754  -2.725   2.318  0.00  0.00    -0.480 OA
ATOM     18  H   LIG    1        8.105  -2.992   1.491  0.00  0.00    +0.295 HD
ENDBRANCH  15  17
ENDBRANCH  10  15
ENDBRANCH   5   8
BRANCH   2  19
ATOM     19  N   LIG    1       -1.376  -0.511  -0.035  0.00  0.00    -0.303 NA
ATOM     20  H   LIG    1       -1.391  -1.520   0.005  0.00  0.00    +0.123 HD
BRANCH  19  21
ATOM     21  C   LIG    1       -2.107  -0.021  -1.211  0.00  0.00    +0.178 C 
BRANCH  21  22
ATOM     22  C   LIG    1       -3.514  -0.561  -1.191  0.00  0.00    +0.231 C 
ATOM     23  N   LIG    1       -4.373  -0.241  -2.178  0.00  0.00    -0.271 N 
ATOM     24  C   LIG    1       -5.773  -0.693  -2.279  0.00  0.00    +0.152 C 
ATOM     25  C   LIG    1       -6.473   0.377  -3.154  0.00  0.00    +0.038 C 
ATOM     26  C   LIG    1       -5.358   0.721  -4.177  0.00  0.00    +0.040 C 
ATOM     27  C   LIG    1       -4.072   0.621  -3.330  0.00  0.00    +0.180 C 
ATOM     28  O   LIG    1       -3.872  -1.284  -0.285  0.00  0.00    -0.274 OA
BRANCH  24  29
ATOM     29  C   LIG    1       -6.390  -0.750  -0.944  0.00  0.00    -0.083 C 
ATOM     30  C   LIG    1       -6.882  -0.795   0.121  0.00  0.00    +0.006 C 
ENDBRANCH  24  29
BRANCH  27  31
ATOM     31  C   LIG    1       -3.672   1.959  -2.864  0.00  0.00    +0.085 C 
ATOM     32  N   LIG    1       -3.364   2.991  -2.503  0.00  0.00    -0.195 NA
ENDBRANCH  27  31
ENDBRANCH  21  22
ENDBRANCH  19  21
ENDBRANCH   2  19
TORSDOF 8
