REMARK  Name = ZINC00017343
REMARK                            x       y       z     vdW  Elec       q    Type
REMARK                         _______ _______ _______ _____ _____    ______ ____
ROOT
ATOM      1  C   LIG    1        1.179   3.557   0.009  0.00  0.00    +0.006 C 
ATOM      2  C   LIG    1        0.704   4.357   1.046  0.00  0.00    +0.092 C 
ATOM      3  C   LIG    1        0.878   5.766   0.653  0.00  0.00    +0.199 C 
ATOM      4  C   LIG    1        1.494   5.766  -0.700  0.00  0.00    +0.030 A 
ATOM      5  C   LIG    1        1.878   6.786  -1.554  0.00  0.00    +0.012 A 
ATOM      6  C   LIG    1        2.453   6.482  -2.783  0.00  0.00    +0.001 A 
ATOM      7  C   LIG    1        2.632   5.168  -3.160  0.00  0.00    +0.001 A 
ATOM      8  C   LIG    1        2.248   4.135  -2.315  0.00  0.00    +0.009 A 
ATOM      9  O   LIG    1        0.575   6.742   1.310  0.00  0.00    -0.286 OA
ATOM     10  C   LIG    1        1.678   4.425  -1.081  0.00  0.00    -0.006 A 
ENDROOT
BRANCH   1  14
ATOM     11  C   LIG    1        1.208  -0.684  -0.014  0.00  0.00    +0.000 A 
ATOM     12  C   LIG    1        0.002  -0.004   0.002  0.00  0.00    +0.001 A 
ATOM     13  C   LIG    1       -0.017   1.374   0.010  0.00  0.00    +0.008 A 
ATOM     14  C   LIG    1        1.189   2.087   0.002  0.00  0.00    -0.016 A 
ATOM     15  C   LIG    1        2.405   1.391  -0.013  0.00  0.00    +0.008 A 
ATOM     16  C   LIG    1        2.405   0.013  -0.021  0.00  0.00    +0.001 A 
ENDBRANCH   1  14
BRANCH   2  17
ATOM     17  C   LIG    1        0.133   3.881   2.307  0.00  0.00    +0.246 C 
ATOM     18  N   LIG    1       -0.291   4.765   3.231  0.00  0.00    -0.325 N 
ATOM     19  H   LIG    1       -0.669   4.449   4.067  0.00  0.00    +0.145 HD
ATOM     20  H   LIG    1       -0.217   5.717   3.061  0.00  0.00    +0.145 HD
ATOM     21  O   LIG    1        0.041   2.686   2.521  0.00  0.00    -0.270 OA
ENDBRANCH   2  17
TORSDOF 2
