REMARK  Name = ZINC00005030
REMARK                            x       y       z     vdW  Elec       q    Type
REMARK                         _______ _______ _______ _____ _____    ______ ____
ROOT
ATOM      1  C   LIG    1        2.390   4.502   0.004  0.00  0.00    +0.026 C 
ATOM      2  C   LIG    1        2.214   5.792  -0.802  0.00  0.00    -0.069 C 
ATOM      3  N   LIG    1        2.471   6.973   0.050  0.00  0.00    +0.380 N 
ATOM      4  H   LIG    1        2.347   7.823  -0.512  0.00  0.00    -0.082 HD
ATOM      5  C   LIG    1        3.858   6.934   0.561  0.00  0.00    -0.079 C 
ATOM      6  C   LIG    1        4.093   5.659   1.407  0.00  0.00    -0.015 C 
ATOM      7  C   LIG    1        1.518   7.000   1.179  0.00  0.00    -0.079 C 
ATOM      8  C   LIG    1        1.674   5.744   2.041  0.00  0.00    -0.015 C 
ATOM      9  C   LIG    1        2.780   4.866   1.442  0.00  0.00    -0.007 C 
ENDROOT
BRANCH   1  11
ATOM     10  C   LIG    1       -0.112   4.405   0.026  0.00  0.00    +0.134 A 
ATOM     11  C   LIG    1        1.096   3.730   0.011  0.00  0.00    +0.063 A 
ATOM     12  N   LIG    1        1.115   2.409   0.004  0.00  0.00    -0.237 NA
ATOM     13  C   LIG    1       -0.021   1.732   0.012  0.00  0.00    +0.148 A 
ATOM     14 CL   LIG    1        0.002  -0.004   0.002  0.00  0.00    -0.060 Cl
ATOM     15  C   LIG    1       -1.230   2.408   0.021  0.00  0.00    +0.150 A 
ATOM     16  N   LIG    1       -1.247   3.729   0.033  0.00  0.00    -0.258 NA
ENDBRANCH   1  11
TORSDOF 1
