REMARK  Name = ZINC27415684
REMARK                            x       y       z     vdW  Elec       q    Type
REMARK                         _______ _______ _______ _____ _____    ______ ____
ROOT
ATOM      1  C   LIG    1       -0.530  -2.165   7.571  0.00  0.00    +0.242 C 
ATOM      2  C   LIG    1       -0.006  -3.092   8.643  0.00  0.00    +0.063 C 
ATOM      3  C   LIG    1        1.242  -2.663   8.946  0.00  0.00    +0.210 C 
ATOM      4  C   LIG    1        1.551  -1.497   8.118  0.00  0.00    +0.376 C 
ATOM      5  O   LIG    1        2.596  -0.876   8.149  0.00  0.00    -0.241 OA
ATOM      6  O   LIG    1        0.508  -1.213   7.316  0.00  0.00    -0.436 OA
ENDROOT
BRANCH   2   7
ATOM      7  C   LIG    1       -0.711  -4.235   9.239  0.00  0.00    -0.014 A 
ATOM      8  C   LIG    1       -1.034  -5.348   8.454  0.00  0.00    +0.012 A 
ATOM      9  C   LIG    1       -1.695  -6.417   9.018  0.00  0.00    +0.046 A 
ATOM     10  C   LIG    1       -2.042  -6.391  10.364  0.00  0.00    +0.117 A 
ATOM     11  C   LIG    1       -1.724  -5.288  11.147  0.00  0.00    +0.046 A 
ATOM     12  C   LIG    1       -1.058  -4.217  10.595  0.00  0.00    +0.012 A 
BRANCH  10  13
ATOM     13  O   LIG    1       -2.695  -7.447  10.914  0.00  0.00    -0.507 OA
ATOM     14  H   LIG    1       -2.109  -8.123  11.281  0.00  0.00    +0.292 HD
ENDBRANCH  10  13
ENDBRANCH   2   7
BRANCH   1  15
ATOM     15  C   LIG    1       -1.770  -1.460   8.057  0.00  0.00    +0.356 C 
ATOM     16  O   LIG    1       -2.862  -1.890   7.769  0.00  0.00    -0.246 OA
BRANCH  15  17
ATOM     17  O   LIG    1       -1.662  -0.354   8.810  0.00  0.00    -0.465 OA
ATOM     18  C   LIG    1       -2.878   0.263   9.236  0.00  0.00    +0.280 C 
ENDBRANCH  15  17
ENDBRANCH   1  15
BRANCH   3  19
ATOM     19  O   LIG    1        2.071  -3.222   9.868  0.00  0.00    -0.501 OA
ATOM     20  H   LIG    1        1.791  -3.971  10.356  0.00  0.00    +0.292 HD
ENDBRANCH   3  19
BRANCH   1  21
ATOM     21  C   LIG    1       -0.841  -2.956   6.299  0.00  0.00    +0.100 C 
BRANCH  21  24
ATOM     22  C   LIG    1       -0.864  -0.562   3.381  0.00  0.00    -0.002 A 
ATOM     23  C   LIG    1       -0.421  -1.425   4.364  0.00  0.00    +0.011 A 
ATOM     24  C   LIG    1       -1.326  -2.014   5.228  0.00  0.00    -0.042 A 
ATOM     25  C   LIG    1       -2.677  -1.740   5.110  0.00  0.00    +0.007 A 
ATOM     26  C   LIG    1       -3.124  -0.877   4.129  0.00  0.00    +0.046 A 
ATOM     27  C   LIG    1       -2.217  -0.281   3.264  0.00  0.00    +0.120 A 
BRANCH  27  28
ATOM     28  O   LIG    1       -2.655   0.573   2.301  0.00  0.00    -0.506 OA
ATOM     29  H   LIG    1       -2.874   0.142   1.464  0.00  0.00    +0.292 HD
ENDBRANCH  27  28
BRANCH  22  30
ATOM     30  C   LIG    1        0.123   0.078   2.439  0.00  0.00    +0.066 C 
BRANCH  30  34
ATOM     31  C   LIG    1       -0.178   1.490   0.016  0.00  0.00    +0.038 C 
ATOM     32  C   LIG    1       -0.081  -0.014   0.008  0.00  0.00    -0.079 C 
ATOM     33  C   LIG    1       -0.216  -0.771  -1.288  0.00  0.00    +0.038 C 
ATOM     34  C   LIG    1        0.121  -0.664   1.128  0.00  0.00    -0.023 C 
ENDBRANCH  30  34
ENDBRANCH  22  30
ENDBRANCH  21  24
ENDBRANCH   1  21
TORSDOF 10
