REMARK  Name = ZINC13819609
REMARK                            x       y       z     vdW  Elec       q    Type
REMARK                         _______ _______ _______ _____ _____    ______ ____
ROOT
ATOM      1  O   LIG    1       -0.778   1.448   1.183  0.00  0.00    -0.492 OA
ENDROOT
BRANCH   1   2
ATOM      2  C   LIG    1       -0.269   1.071   2.385  0.00  0.00    +0.139 A 
ATOM      3  C   LIG    1       -0.938   1.386   3.564  0.00  0.00    +0.064 A 
ATOM      4  C   LIG    1       -0.380   0.980   4.766  0.00  0.00    +0.039 A 
ATOM      5 BR   LIG    1       -1.240   1.376   6.403  0.00  0.00    -0.049 Br
ATOM      6  C   LIG    1        0.814   0.280   4.754  0.00  0.00    +0.126 A 
ATOM      7  N   LIG    1        1.421  -0.002   3.618  0.00  0.00    -0.259 NA
ATOM      8  C   LIG    1        0.921   0.362   2.454  0.00  0.00    +0.156 A 
ENDBRANCH   1   2
BRANCH   1   9
ATOM      9  C   LIG    1       -0.031   1.086   0.020  0.00  0.00    +0.210 C 
BRANCH   9  10
ATOM     10  C   LIG    1       -0.754   1.593  -1.230  0.00  0.00    -0.038 C 
BRANCH  10  12
ATOM     11  C   LIG    1        0.542   3.606  -1.590  0.00  0.00    -0.096 C 
ATOM     12  N   LIG    1       -0.779   3.070  -1.197  0.00  0.00    +0.378 N 
ATOM     13  H   LIG    1       -0.993   3.379  -0.241  0.00  0.00    -0.082 HD
ATOM     14  C   LIG    1       -1.823   3.579  -2.111  0.00  0.00    -0.096 C 
ENDBRANCH  10  12
ENDBRANCH   9  10
ENDBRANCH   1   9
TORSDOF 4
