REMARK  Name = ZINC00003709
REMARK                            x       y       z     vdW  Elec       q    Type
REMARK                         _______ _______ _______ _____ _____    ______ ____
ROOT
ATOM      1  N   LIG    1       -2.454   3.822   0.044  0.00  0.00    -0.251 N 
ATOM      2  C   LIG    1       -3.725   3.092  -0.064  0.00  0.00    +0.128 C 
ATOM      3  C   LIG    1       -4.622   3.846  -1.048  0.00  0.00    +0.030 C 
ATOM      4  C   LIG    1       -4.893   5.248  -0.498  0.00  0.00    +0.099 C 
ATOM      5  C   LIG    1       -3.604   5.913  -0.105  0.00  0.00    +0.229 C 
ATOM      6  O   LIG    1       -3.574   7.122  -0.020  0.00  0.00    -0.274 OA
ATOM      7  N   LIG    1       -2.487   5.220   0.157  0.00  0.00    -0.234 N 
ATOM      8  H   LIG    1       -1.686   5.694   0.429  0.00  0.00    +0.173 HD
ENDROOT
BRANCH   1  12
ATOM      9  C   LIG    1        1.176   1.783  -0.001  0.00  0.00    +0.000 A 
ATOM     10  C   LIG    1        1.161   3.165  -0.047  0.00  0.00    +0.002 A 
ATOM     11  C   LIG    1       -0.041   3.845  -0.027  0.00  0.00    +0.025 A 
ATOM     12  C   LIG    1       -1.236   3.138   0.029  0.00  0.00    +0.048 A 
ATOM     13  C   LIG    1       -1.217   1.750   0.076  0.00  0.00    +0.025 A 
ATOM     14  C   LIG    1       -0.011   1.077   0.061  0.00  0.00    +0.002 A 
ENDBRANCH   1  12
TORSDOF 1
