REMARK  Name = ZINC53190616
REMARK                            x       y       z     vdW  Elec       q    Type
REMARK                         _______ _______ _______ _____ _____    ______ ____
ROOT
ATOM      1  N   LIG    1        4.266  -0.621   1.321  0.00  0.00    -0.298 NA
ATOM      2  C   LIG    1        4.677   0.579   2.062  0.00  0.00    +0.083 C 
ATOM      3  C   LIG    1        4.934   0.214   3.525  0.00  0.00    -0.000 C 
ATOM      4  C   LIG    1        6.030  -0.853   3.595  0.00  0.00    -0.069 C 
ATOM      5  C   LIG    1        5.598  -2.073   2.777  0.00  0.00    -0.000 C 
ATOM      6  C   LIG    1        5.322  -1.641   1.335  0.00  0.00    +0.083 C 
ENDROOT
BRANCH   4   7
ATOM      7  N   LIG    1        6.240  -1.250   4.994  0.00  0.00    +0.383 N 
ATOM      8  H   LIG    1        5.413  -1.714   5.340  0.00  0.00    -0.085 HD
ATOM      9  H   LIG    1        6.425  -0.430   5.552  0.00  0.00    -0.085 HD
BRANCH   7  10
ATOM     10  C   LIG    1        7.385  -2.167   5.076  0.00  0.00    -0.065 C 
ATOM     11  C   LIG    1        7.513  -2.696   6.506  0.00  0.00    -0.024 C 
ATOM     12  C   LIG    1        7.727  -1.525   7.466  0.00  0.00    +0.005 C 
ATOM     13  C   LIG    1        9.006  -0.778   7.083  0.00  0.00    -0.010 C 
ATOM     14  C   LIG    1       10.199  -1.732   7.169  0.00  0.00    +0.007 C 
ATOM     15  C   LIG    1        9.985  -2.904   6.208  0.00  0.00    -0.010 C 
ATOM     16  C   LIG    1        9.857  -2.374   4.778  0.00  0.00    +0.005 C 
ATOM     17  C   LIG    1        8.879  -0.248   5.653  0.00  0.00    +0.005 C 
ATOM     18  C   LIG    1        8.706  -3.651   6.591  0.00  0.00    +0.005 C 
ATOM     19  C   LIG    1        8.665  -1.420   4.693  0.00  0.00    -0.024 C 
ENDBRANCH   7  10
ENDBRANCH   4   7
BRANCH   1  20
ATOM     20  C   LIG    1        3.877  -0.283  -0.055  0.00  0.00    +0.119 C 
BRANCH  20  24
ATOM     21  C   LIG    1        0.363   2.144   0.011  0.00  0.00    +0.000 A 
ATOM     22  C   LIG    1        1.612   2.735   0.051  0.00  0.00    +0.000 A 
ATOM     23  C   LIG    1        2.749   1.950   0.030  0.00  0.00    +0.005 A 
ATOM     24  C   LIG    1        2.638   0.573  -0.031  0.00  0.00    -0.033 A 
ATOM     25  C   LIG    1        1.389  -0.018  -0.070  0.00  0.00    +0.005 A 
ATOM     26  C   LIG    1        0.251   0.768  -0.051  0.00  0.00    +0.000 A 
ENDBRANCH  20  24
ENDBRANCH   1  20
TORSDOF 4
