REMARK  Name = ZINC19874821
REMARK                            x       y       z     vdW  Elec       q    Type
REMARK                         _______ _______ _______ _____ _____    ______ ____
ROOT
ATOM      1  N   LIG    1        0.057  -2.674   2.325  0.00  0.00    -0.032 NA
ATOM      2  C   LIG    1        0.146  -2.004   3.455  0.00  0.00    +0.387 C 
ENDROOT
BRANCH   1   9
ATOM      3  C   LIG    1        2.571  -0.674  -1.209  0.00  0.00    +0.066 C 
ATOM      4  C   LIG    1        1.252  -1.038  -0.578  0.00  0.00    +0.045 A 
ATOM      5  C   LIG    1        0.060  -0.700  -1.200  0.00  0.00    +0.046 A 
ATOM      6  C   LIG    1       -1.133  -1.053  -0.588  0.00  0.00    +0.045 A 
ATOM      7  C   LIG    1       -2.451  -0.704  -1.230  0.00  0.00    +0.066 C 
ATOM      8  N   LIG    1       -1.102  -1.698   0.565  0.00  0.00    -0.201 NA
ATOM      9  C   LIG    1        0.058  -2.009   1.138  0.00  0.00    +0.330 A 
ATOM     10  N   LIG    1        1.219  -1.689   0.572  0.00  0.00    -0.201 NA
ENDBRANCH   1   9
BRANCH   2  11
ATOM     11  N   LIG    1        0.127  -0.635   3.442  0.00  0.00    -0.289 N 
ATOM     12  H   LIG    1        0.270  -0.141   4.264  0.00  0.00    +0.255 HD
ATOM     13  H   LIG    1       -0.029  -0.160   2.611  0.00  0.00    +0.255 HD
ENDBRANCH   2  11
BRANCH   2  14
ATOM     14  N   LIG    1        0.257  -2.676   4.643  0.00  0.00    -0.275 N 
ATOM     15  H   LIG    1        0.271  -3.646   4.651  0.00  0.00    +0.258 HD
BRANCH  14  16
ATOM     16  C   LIG    1        0.356  -1.930   5.900  0.00  0.00    +0.202 C 
BRANCH  16  17
ATOM     17  C   LIG    1        0.470  -2.912   7.067  0.00  0.00    +0.091 C 
BRANCH  17  18
ATOM     18  C   LIG    1        0.572  -2.145   8.361  0.00  0.00    +0.036 A 
ATOM     19  N   LIG    1        1.722  -1.804   9.018  0.00  0.00    -0.350 N 
ATOM     20  H   LIG    1        2.628  -2.010   8.739  0.00  0.00    +0.166 HD
ATOM     21  C   LIG    1        1.361  -1.123  10.128  0.00  0.00    +0.171 A 
ATOM     22  N   LIG    1        0.059  -1.050  10.168  0.00  0.00    -0.352 N 
ATOM     23  H   LIG    1       -0.457  -0.616  10.865  0.00  0.00    +0.166 HD
ATOM     24  C   LIG    1       -0.453  -1.670   9.095  0.00  0.00    +0.105 A 
ENDBRANCH  17  18
ENDBRANCH  16  17
ENDBRANCH  14  16
ENDBRANCH   2  14
TORSDOF 6
