REMARK  Name = ZINC56966182
REMARK                            x       y       z     vdW  Elec       q    Type
REMARK                         _______ _______ _______ _____ _____    ______ ____
ROOT
ATOM      1  C   LIG    1       -2.380  -6.712  -1.964  0.00  0.00    +0.121 C 
ENDROOT
BRANCH   1   2
ATOM      2  N   LIG    1       -2.569  -8.121  -2.316  0.00  0.00    -0.189 NA
ATOM      3  H   LIG    1       -1.804  -8.669  -2.554  0.00  0.00    +0.148 HD
BRANCH   2   4
ATOM      4  S   LIG    1       -4.088  -8.780  -2.306  0.00  0.00    +0.058 S 
ATOM      5  O   LIG    1       -4.682  -8.413  -1.069  0.00  0.00    -0.153 OA
ATOM      6  O   LIG    1       -3.946 -10.134  -2.712  0.00  0.00    -0.153 OA
BRANCH   4   7
ATOM      7  C   LIG    1       -5.014  -7.971  -3.569  0.00  0.00    +0.106 A 
ATOM      8  C   LIG    1       -5.729  -6.815  -3.261  0.00  0.00    +0.029 A 
ATOM      9  C   LIG    1       -6.455  -6.166  -4.213  0.00  0.00    +0.010 A 
ATOM     10  C   LIG    1       -6.486  -6.667  -5.526  0.00  0.00    -0.018 A 
ATOM     11  C   LIG    1       -7.223  -6.024  -6.535  0.00  0.00    +0.008 A 
ATOM     12  C   LIG    1       -7.229  -6.538  -7.795  0.00  0.00    +0.001 A 
ATOM     13  C   LIG    1       -6.514  -7.694  -8.102  0.00  0.00    +0.001 A 
ATOM     14  C   LIG    1       -5.789  -8.343  -7.151  0.00  0.00    +0.008 A 
ATOM     15  C   LIG    1       -5.758  -7.843  -5.838  0.00  0.00    -0.016 A 
ATOM     16  C   LIG    1       -5.016  -8.482  -4.830  0.00  0.00    +0.037 A 
ENDBRANCH   4   7
ENDBRANCH   2   4
ENDBRANCH   1   2
BRANCH   1  17
ATOM     17  C   LIG    1       -0.898  -6.450  -1.685  0.00  0.00    +0.101 C 
BRANCH  17  21
ATOM     18  N   LIG    1        0.098  -2.778   0.086  0.00  0.00    -0.325 N 
ATOM     19  C   LIG    1        0.871  -3.179  -1.099  0.00  0.00    +0.120 C 
ATOM     20  C   LIG    1        0.719  -4.692  -1.290  0.00  0.00    +0.103 C 
ATOM     21  N   LIG    1       -0.708  -5.037  -1.333  0.00  0.00    -0.298 NA
ATOM     22  C   LIG    1       -1.372  -4.717  -0.062  0.00  0.00    +0.103 C 
ATOM     23  C   LIG    1       -1.305  -3.211   0.182  0.00  0.00    +0.120 C 
BRANCH  18  29
ATOM     24  C   LIG    1        0.626  -0.619   1.042  0.00  0.00    +0.141 A 
ATOM     25  C   LIG    1        1.202   0.136   2.051  0.00  0.00    +0.047 A 
ATOM     26  C   LIG    1        1.837  -0.490   3.107  0.00  0.00    +0.004 A 
ATOM     27  C   LIG    1        1.899  -1.870   3.162  0.00  0.00    +0.002 A 
ATOM     28  C   LIG    1        1.326  -2.631   2.160  0.00  0.00    +0.027 A 
ATOM     29  C   LIG    1        0.683  -2.010   1.099  0.00  0.00    +0.072 A 
BRANCH  24  31
ATOM     30  C   LIG    1       -0.017   1.425   0.010  0.00  0.00    +0.277 C 
ATOM     31  O   LIG    1        0.002  -0.004   0.002  0.00  0.00    -0.493 OA
ENDBRANCH  24  31
ENDBRANCH  18  29
ENDBRANCH  17  21
ENDBRANCH   1  17
TORSDOF 7
