REMARK  Name = ZINC17819771
REMARK                            x       y       z     vdW  Elec       q    Type
REMARK                         _______ _______ _______ _____ _____    ______ ____
ROOT
ATOM      1  C   LIG    1       -4.655   5.009   0.053  0.00  0.00    +0.131 A 
ATOM      2  C   LIG    1       -3.433   5.675   0.051  0.00  0.00    +0.133 A 
ATOM      3  N   LIG    1       -2.300   5.002   0.041  0.00  0.00    -0.233 NA
ATOM      4  C   LIG    1       -2.324   3.669   0.033  0.00  0.00    +0.187 A 
ATOM      5  C   LIG    1       -3.569   2.998   0.035  0.00  0.00    +0.172 A 
ATOM      6  C   LIG    1       -3.563   1.525   0.027  0.00  0.00    +0.280 A 
ATOM      7  N   LIG    1       -2.360   0.906   0.018  0.00  0.00    -0.293 N 
ATOM      8  C   LIG    1       -1.207   1.635   0.017  0.00  0.00    +0.195 A 
ATOM      9  H   LIG    1       -2.307  -0.193   0.012  0.00  0.00    +0.172 HD
ATOM     10  O   LIG    1       -4.600   0.889   0.028  0.00  0.00    -0.265 OA
ATOM     11  N   LIG    1       -1.190   2.945   0.029  0.00  0.00    -0.195 NA
ATOM     12  N   LIG    1       -4.699   3.691   0.045  0.00  0.00    -0.245 NA
ENDROOT
BRANCH   8  13
ATOM     13  N   LIG    1       -0.011   0.966   0.007  0.00  0.00    -0.329 N 
ATOM     14  H   LIG    1        0.004  -0.134   0.001  0.00  0.00    +0.145 HD
ATOM     15  H   LIG    1        0.934   1.529   0.006  0.00  0.00    +0.145 HD
ENDBRANCH   8  13
TORSDOF 1
