REMARK  Name = ZINC28262454
REMARK                            x       y       z     vdW  Elec       q    Type
REMARK                         _______ _______ _______ _____ _____    ______ ____
ROOT
ATOM      1  C   LIG    1        1.349   8.470   0.037  0.00  0.00    +0.000 A 
ATOM      2  C   LIG    1        0.678   7.261   0.037  0.00  0.00    +0.002 A 
ATOM      3  C   LIG    1        1.383   6.076   0.023  0.00  0.00    +0.024 A 
ATOM      4  C   LIG    1        2.779   6.088   0.009  0.00  0.00    +0.040 A 
ATOM      5  C   LIG    1        3.442   7.304   0.009  0.00  0.00    -0.024 A 
ATOM      6  C   LIG    1        4.931   7.041  -0.007  0.00  0.00    +0.071 C 
ATOM      7  C   LIG    1        5.053   5.509  -0.011  0.00  0.00    +0.194 C 
ATOM      8  N   LIG    1        3.674   5.013  -0.006  0.00  0.00    -0.257 N 
ATOM      9  C   LIG    1        3.320   3.713  -0.010  0.00  0.00    +0.221 C 
ATOM     10  O   LIG    1        4.174   2.852  -0.022  0.00  0.00    -0.275 OA
ATOM     11  C   LIG    1        2.731   8.489   0.023  0.00  0.00    +0.005 A 
ENDROOT
BRANCH   7  12
ATOM     12  C   LIG    1        5.770   5.047  -1.253  0.00  0.00    +0.326 C 
ATOM     13  O   LIG    1        5.192   4.366  -2.067  0.00  0.00    -0.249 OA
BRANCH  12  14
ATOM     14  O   LIG    1        7.051   5.392  -1.456  0.00  0.00    -0.479 OA
ATOM     15  H   LIG    1        7.500   5.920  -0.825  0.00  0.00    +0.295 HD
ENDBRANCH  12  14
ENDBRANCH   7  12
BRANCH   9  16
ATOM     16  C   LIG    1        1.863   3.328   0.002  0.00  0.00    +0.107 C 
BRANCH  16  17
ATOM     17  C   LIG    1        1.738   1.804  -0.005  0.00  0.00    +0.075 C 
BRANCH  17  18
ATOM     18  S   LIG    1       -0.016   1.341   0.009  0.00  0.00    -0.178 S 
ATOM     19  H   LIG    1       -0.305   0.279   0.006  0.00  0.00    +0.102 HD
ENDBRANCH  17  18
ENDBRANCH  16  17
ENDBRANCH   9  16
TORSDOF 5
