REMARK  Name = ZINC22939483
REMARK                            x       y       z     vdW  Elec       q    Type
REMARK                         _______ _______ _______ _____ _____    ______ ____
ROOT
ATOM      1  C   LIG    1       -1.629   3.493  -2.315  0.00  0.00    +0.117 C 
ENDROOT
BRANCH   1   2
ATOM      2  N   LIG    1       -1.043   3.003  -1.060  0.00  0.00    -0.290 NA
ATOM      3  C   LIG    1       -1.575   3.743   0.093  0.00  0.00    +0.067 C 
ATOM      4  C   LIG    1       -0.884   3.258   1.369  0.00  0.00    -0.063 C 
ATOM      5  N   LIG    1       -1.106   1.814   1.526  0.00  0.00    +0.384 N 
ATOM      6  H   LIG    1       -2.191   1.640   1.571  0.00  0.00    -0.081 HD
ATOM      7  C   LIG    1       -0.574   1.074   0.373  0.00  0.00    -0.057 C 
ATOM      8  C   LIG    1       -1.266   1.559  -0.904  0.00  0.00    +0.066 C 
BRANCH   5   9
ATOM      9  C   LIG    1       -0.520   1.323   2.781  0.00  0.00    -0.043 C 
BRANCH   9  10
ATOM     10  C   LIG    1       -0.893   2.254   3.906  0.00  0.00    -0.064 A 
ATOM     11  C   LIG    1       -0.076   3.324   4.218  0.00  0.00    +0.002 A 
ATOM     12  C   LIG    1       -0.420   4.180   5.248  0.00  0.00    +0.000 A 
ATOM     13  C   LIG    1       -1.578   3.960   5.971  0.00  0.00    +0.000 A 
ATOM     14  C   LIG    1       -2.392   2.887   5.663  0.00  0.00    +0.000 A 
ATOM     15  C   LIG    1       -2.050   2.034   4.630  0.00  0.00    +0.002 A 
ENDBRANCH   9  10
ENDBRANCH   5   9
BRANCH   8  16
ATOM     16  C   LIG    1       -0.685   0.819  -2.111  0.00  0.00    +0.172 C 
BRANCH  16  17
ATOM     17  O   LIG    1        0.730   1.015  -2.154  0.00  0.00    -0.394 OA
ATOM     18  H   LIG    1        1.324   0.556  -2.958  0.00  0.00    +0.209 HD
ENDBRANCH  16  17
ENDBRANCH   8  16
ENDBRANCH   1   2
BRANCH   1  22
ATOM     19  C   LIG    1       -2.121   7.730  -2.098  0.00  0.00    -0.042 A 
ATOM     20  C   LIG    1       -3.174   6.932  -2.506  0.00  0.00    +0.004 A 
ATOM     21  C   LIG    1       -3.014   5.561  -2.576  0.00  0.00    +0.006 A 
ATOM     22  C   LIG    1       -1.802   4.988  -2.239  0.00  0.00    -0.026 A 
ATOM     23  C   LIG    1       -0.752   5.785  -1.826  0.00  0.00    +0.006 A 
ATOM     24  C   LIG    1       -0.910   7.157  -1.759  0.00  0.00    +0.004 A 
BRANCH  19  26
ATOM     25  C   LIG    1       -3.416   9.559  -1.035  0.00  0.00    +0.015 C 
ATOM     26  C   LIG    1       -2.295   9.225  -2.022  0.00  0.00    -0.013 C 
ATOM     27  C   LIG    1       -2.655   9.768  -3.406  0.00  0.00    +0.015 C 
ATOM     28  C   LIG    1       -0.990   9.867  -1.546  0.00  0.00    +0.015 C 
ENDBRANCH  19  26
ENDBRANCH   1  22
BRANCH   1  29
ATOM     29  C   LIG    1       -0.714   3.152  -3.463  0.00  0.00    -0.022 A 
ATOM     30  C   LIG    1        0.648   3.368  -3.349  0.00  0.00    +0.006 A 
ATOM     31  C   LIG    1        1.490   3.050  -4.398  0.00  0.00    +0.004 A 
ATOM     32  C   LIG    1        0.973   2.527  -5.567  0.00  0.00    +0.045 A 
ATOM     33  C   LIG    1       -0.393   2.315  -5.686  0.00  0.00    +0.117 A 
ATOM     34  C   LIG    1       -1.236   2.629  -4.630  0.00  0.00    +0.051 A 
BRANCH  33  35
ATOM     35  O   LIG    1       -0.904   1.800  -6.836  0.00  0.00    -0.507 OA
ATOM     36  H   LIG    1       -1.987   1.632  -6.929  0.00  0.00    +0.292 HD
ENDBRANCH  33  35
ENDBRANCH   1  29
TORSDOF 9
