REMARK  Name = ZINC28373521
REMARK                            x       y       z     vdW  Elec       q    Type
REMARK                         _______ _______ _______ _____ _____    ______ ____
ROOT
ATOM      1  C   LIG    1       -0.019   1.540   0.011  0.00  0.00    +0.047 C 
ATOM      2  C   LIG    1        1.489   1.910  -0.002  0.00  0.00    +0.051 C 
ATOM      3  C   LIG    1        2.067   0.792  -0.900  0.00  0.00    +0.168 C 
ATOM      4  C   LIG    1        3.522   0.492  -0.485  0.00  0.00    +0.059 C 
ATOM      5  C   LIG    1        3.593  -1.045  -0.634  0.00  0.00    +0.127 C 
ATOM      6  C   LIG    1        2.151  -1.504  -0.694  0.00  0.00    +0.238 C 
ATOM      7  N   LIG    1        1.757  -2.718  -0.906  0.00  0.00    -0.292 N 
ATOM      8  H   LIG    1        0.809  -2.923  -0.927  0.00  0.00    +0.301 HD
ATOM      9  H   LIG    1        2.409  -3.422  -1.043  0.00  0.00    +0.301 HD
ATOM     10  N   LIG    1        1.319  -0.423  -0.497  0.00  0.00    -0.225 N 
ATOM     11  C   LIG    1        0.002  -0.004   0.002  0.00  0.00    +0.226 C 
ENDROOT
TORSDOF 0
