REMARK  Name = ZINC29395601
REMARK                            x       y       z     vdW  Elec       q    Type
REMARK                         _______ _______ _______ _____ _____    ______ ____
ROOT
ATOM      1  C   LIG    1        0.535   7.564   0.038  0.00  0.00    +0.009 A 
ATOM      2  C   LIG    1       -0.152   6.369   0.038  0.00  0.00    +0.047 A 
ATOM      3  C   LIG    1        0.549   5.169   0.025  0.00  0.00    +0.136 A 
ATOM      4  C   LIG    1        1.956   5.196   0.011  0.00  0.00    +0.021 A 
ATOM      5  C   LIG    1        2.380   3.797  -0.000  0.00  0.00    +0.065 A 
ATOM      6  C   LIG    1        1.239   3.058   0.007  0.00  0.00    +0.212 A 
ATOM      7  C   LIG    1        2.633   6.418   0.011  0.00  0.00    +0.017 A 
ATOM      8  O   LIG    1        0.166   3.877   0.015  0.00  0.00    -0.448 OA
ATOM      9  C   LIG    1        1.923   7.586   0.024  0.00  0.00    -0.027 A 
ENDROOT
BRANCH   6  10
ATOM     10  C   LIG    1        1.182   1.591  -0.001  0.00  0.00    +0.373 C 
ATOM     11  O   LIG    1        2.211   0.943  -0.014  0.00  0.00    -0.242 OA
BRANCH  10  12
ATOM     12  O   LIG    1       -0.011   0.963   0.007  0.00  0.00    -0.475 OA
ATOM     13  H   LIG    1       -0.804   1.462   0.018  0.00  0.00    +0.296 HD
ENDBRANCH  10  12
ENDBRANCH   6  10
BRANCH   9  14
ATOM     14  C   LIG    1        2.651   8.905   0.024  0.00  0.00    +0.157 C 
BRANCH  14  15
ATOM     15  N   LIG    1        2.901   9.325   1.405  0.00  0.00    -0.332 N 
ATOM     16  C   LIG    1        2.077  10.095   2.182  0.00  0.00    +0.107 A 
ATOM     17  C   LIG    1        2.686  10.235   3.375  0.00  0.00    +0.130 A 
ATOM     18  N   LIG    1        3.854   9.577   3.325  0.00  0.00    -0.244 NA
ATOM     19  C   LIG    1        3.989   9.029   2.148  0.00  0.00    +0.199 A 
ENDBRANCH  14  15
ENDBRANCH   9  14
TORSDOF 4
