REMARK  Name = ZINC14949271
REMARK                            x       y       z     vdW  Elec       q    Type
REMARK                         _______ _______ _______ _____ _____    ______ ____
ROOT
ATOM      1  C   LIG    1       -0.017   1.390   0.010  0.00  0.00    +0.004 A 
ATOM      2  C   LIG    1        1.129   2.122   0.003  0.00  0.00    +0.026 A 
ATOM      3  C   LIG    1        2.374   1.467  -0.013  0.00  0.00    +0.047 A 
ATOM      4  N   LIG    1        3.638   1.876  -0.023  0.00  0.00    -0.353 N 
ATOM      5  H   LIG    1        3.919   2.804  -0.021  0.00  0.00    +0.166 HD
ATOM      6  C   LIG    1        4.471   0.825  -0.037  0.00  0.00    +0.066 A 
ATOM      7  C   LIG    1        3.739  -0.365  -0.036  0.00  0.00    +0.037 A 
ATOM      8  C   LIG    1        5.931   0.912  -0.050  0.00  0.00    +0.087 A 
ATOM      9  C   LIG    1        6.727   2.137  -0.045  0.00  0.00    +0.026 A 
ATOM     10  C   LIG    1        6.396   3.498  -0.029  0.00  0.00    +0.013 A 
ATOM     11  C   LIG    1        7.383   4.439  -0.029  0.00  0.00    +0.011 A 
ATOM     12  C   LIG    1        8.728   4.054  -0.045  0.00  0.00    +0.006 A 
ATOM     13  C   LIG    1        9.075   2.705  -0.062  0.00  0.00    +0.037 A 
ATOM     14  C   LIG    1        8.082   1.740  -0.061  0.00  0.00    +0.065 A 
ATOM     15  N   LIG    1        8.111   0.357  -0.075  0.00  0.00    -0.299 N 
ATOM     16  H   LIG    1        8.915  -0.187  -0.089  0.00  0.00    +0.187 HD
ATOM     17  N   LIG    1        6.802  -0.135  -0.063  0.00  0.00    -0.297 N 
ATOM     18  H   LIG    1        6.554  -1.072  -0.066  0.00  0.00    +0.187 HD
ATOM     19  C   LIG    1        2.391  -0.002  -0.021  0.00  0.00    +0.000 A 
ATOM     20  C   LIG    1        1.171  -0.700  -0.013  0.00  0.00    +0.011 A 
ATOM     21  C   LIG    1        0.002  -0.004   0.002  0.00  0.00    -0.063 A 
ENDROOT
BRANCH  12  22
ATOM     22  C   LIG    1        9.790   5.087  -0.046  0.00  0.00    +0.118 A 
ATOM     23  N   LIG    1       10.988   5.017   0.564  0.00  0.00    -0.129 NA
ATOM     24  N   LIG    1       11.634   6.104   0.332  0.00  0.00    -0.068 NA
ATOM     25  N   LIG    1       10.930   6.902  -0.391  0.00  0.00    -0.259 N 
ATOM     26  H   LIG    1       11.203   7.783  -0.692  0.00  0.00    +0.190 HD
ATOM     27  C   LIG    1        9.748   6.308  -0.661  0.00  0.00    +0.089 A 
BRANCH  27  28
ATOM     28  C   LIG    1        8.614   6.873  -1.476  0.00  0.00    +0.212 C 
BRANCH  28  29
ATOM     29  O   LIG    1        8.968   8.177  -1.944  0.00  0.00    -0.389 OA
ATOM     30  H   LIG    1        8.282   8.602  -2.478  0.00  0.00    +0.210 HD
ENDBRANCH  28  29
ENDBRANCH  27  28
ENDBRANCH  12  22
BRANCH  21  31
ATOM     31  C   LIG    1       -1.303  -0.758   0.010  0.00  0.00    -0.043 C 
BRANCH  31  32
ATOM     32  N   LIG    1       -1.740  -0.995  -1.372  0.00  0.00    +0.382 N 
ATOM     33  H   LIG    1       -1.007  -1.468  -1.879  0.00  0.00    -0.081 HD
ATOM     34  C   LIG    1       -2.028   0.290  -2.020  0.00  0.00    -0.078 C 
ATOM     35  C   LIG    1       -2.406   0.054  -3.484  0.00  0.00    -0.019 C 
ATOM     36  C   LIG    1       -3.647  -0.842  -3.547  0.00  0.00    -0.004 C 
ATOM     37  C   LIG    1       -3.359  -2.149  -2.804  0.00  0.00    -0.019 C 
ATOM     38  C   LIG    1       -2.946  -1.831  -1.365  0.00  0.00    -0.078 C 
ENDBRANCH  31  32
ENDBRANCH  21  31
TORSDOF 5
