REMARK  Name = ZINC26578175
REMARK                            x       y       z     vdW  Elec       q    Type
REMARK                         _______ _______ _______ _____ _____    ______ ____
ROOT
ATOM      1  C   LIG    1       -1.495  -1.911   0.413  0.00  0.00    +0.285 C 
ATOM      2  C   LIG    1       -2.760  -2.418   0.226  0.00  0.00    +0.072 C 
ATOM      3  C   LIG    1       -2.977  -3.852  -0.224  0.00  0.00    +0.142 C 
ATOM      4  C   LIG    1       -4.423  -4.284  -0.391  0.00  0.00    +0.082 C 
ATOM      5  C   LIG    1       -5.406  -3.341  -0.122  0.00  0.00    +0.083 C 
ATOM      6  N   LIG    1       -5.108  -2.102   0.270  0.00  0.00    -0.251 NA
ATOM      7  C   LIG    1       -3.896  -1.636   0.449  0.00  0.00    +0.050 C 
ATOM      8  C   LIG    1       -3.722  -0.209   0.903  0.00  0.00    +0.066 C 
ENDROOT
BRANCH   5   9
ATOM      9  C   LIG    1       -6.828  -3.723  -0.274  0.00  0.00    +0.001 A 
ATOM     10  C   LIG    1       -7.359  -4.765   0.488  0.00  0.00    +0.010 A 
ATOM     11  C   LIG    1       -8.685  -5.116   0.341  0.00  0.00    +0.001 A 
ATOM     12  C   LIG    1       -9.488  -4.439  -0.559  0.00  0.00    +0.000 A 
ATOM     13  C   LIG    1       -8.967  -3.405  -1.317  0.00  0.00    +0.001 A 
ATOM     14  C   LIG    1       -7.644  -3.040  -1.176  0.00  0.00    +0.010 A 
ENDBRANCH   5   9
BRANCH   1  15
ATOM     15  O   LIG    1       -0.422  -2.719   0.303  0.00  0.00    -0.480 OA
ATOM     16  H   LIG    1        0.440  -2.374   0.430  0.00  0.00    +0.295 HD
ENDBRANCH   1  15
BRANCH   3  17
ATOM     17  C   LIG    1       -2.347  -4.743   0.763  0.00  0.00    -0.084 C 
ATOM     18  C   LIG    1       -1.844  -5.455   1.551  0.00  0.00    -0.065 C 
BRANCH  18  19
ATOM     19  C   LIG    1       -1.231  -6.322   2.511  0.00  0.00    +0.025 A 
ATOM     20  C   LIG    1       -0.585  -5.787   3.626  0.00  0.00    +0.017 A 
ATOM     21  C   LIG    1        0.004  -6.628   4.548  0.00  0.00    +0.001 A 
ATOM     22  C   LIG    1       -0.045  -7.999   4.369  0.00  0.00    +0.000 A 
ATOM     23  C   LIG    1       -0.684  -8.536   3.265  0.00  0.00    +0.001 A 
ATOM     24  C   LIG    1       -1.282  -7.706   2.339  0.00  0.00    +0.017 A 
ENDBRANCH  18  19
ENDBRANCH   3  17
BRANCH   4  25
ATOM     25  C   LIG    1       -4.752  -5.582  -0.802  0.00  0.00    +0.339 C 
ATOM     26  O   LIG    1       -5.914  -5.876  -1.020  0.00  0.00    -0.245 OA
BRANCH  25  27
ATOM     27  O   LIG    1       -3.780  -6.508  -0.957  0.00  0.00    -0.457 OA
BRANCH  27  28
ATOM     28  C   LIG    1       -4.188  -7.812  -1.379  0.00  0.00    +0.268 C 
BRANCH  28  29
ATOM     29  C   LIG    1       -2.978  -8.703  -1.496  0.00  0.00    -0.010 A 
ATOM     30  C   LIG    1       -2.289  -8.778  -2.692  0.00  0.00    +0.009 A 
ATOM     31  C   LIG    1       -1.179  -9.595  -2.800  0.00  0.00    +0.033 A 
ATOM     32  C   LIG    1       -0.758 -10.337  -1.712  0.00  0.00    +0.122 A 
ATOM     33  C   LIG    1       -1.447 -10.261  -0.516  0.00  0.00    +0.033 A 
ATOM     34  C   LIG    1       -2.554  -9.440  -0.407  0.00  0.00    +0.009 A 
BRANCH  32  35
ATOM     35  N   LIG    1        0.429 -11.213  -1.828  0.00  0.00    +0.006 N 
ATOM     36  O   LIG    1        1.031 -11.279  -2.874  0.00  0.00    -0.130 OA
BRANCH  35  37
ATOM     37  O   LIG    1        0.797 -11.861  -0.876  0.00  0.00    -0.396 OA
ATOM     38  H   LIG    1        0.331 -11.809  -0.065  0.00  0.00    +0.329 HD
ENDBRANCH  35  37
ENDBRANCH  32  35
ENDBRANCH  28  29
ENDBRANCH  27  28
ENDBRANCH  25  27
ENDBRANCH   4  25
BRANCH   1  39
ATOM     39  O   LIG    1       -1.328  -0.606   0.706  0.00  0.00    -0.464 OA
BRANCH  39  41
ATOM     40  C   LIG    1        0.002   1.348   1.210  0.00  0.00    +0.048 C 
ATOM     41  C   LIG    1        0.013  -0.148   0.887  0.00  0.00    +0.229 C 
ENDBRANCH  39  41
ENDBRANCH   1  39
TORSDOF 12
