REMARK  Name = ZINC14828480
REMARK                            x       y       z     vdW  Elec       q    Type
REMARK                         _______ _______ _______ _____ _____    ______ ____
ROOT
ATOM      1  C   LIG    1       -5.438  -2.861  -1.381  0.00  0.00    +0.145 C 
ATOM      2  N   LIG    1       -4.751  -2.384  -2.367  0.00  0.00    -0.087 NA
ENDROOT
BRANCH   1   3
ATOM      3  C   LIG    1       -6.660  -3.646  -1.645  0.00  0.00    +0.262 C 
ATOM      4  N   LIG    1       -7.060  -3.865  -2.913  0.00  0.00    -0.310 N 
ATOM      5  H   LIG    1       -6.545  -3.507  -3.653  0.00  0.00    +0.149 HD
ATOM      6  O   LIG    1       -7.306  -4.094  -0.718  0.00  0.00    -0.269 OA
BRANCH   4   7
ATOM      7  C   LIG    1       -8.273  -4.643  -3.174  0.00  0.00    +0.111 C 
BRANCH   7   8
ATOM      8  C   LIG    1       -8.500  -4.743  -4.684  0.00  0.00    +0.075 C 
BRANCH   8   9
ATOM      9  C   LIG    1       -9.748  -5.544  -4.952  0.00  0.00    +0.060 A 
ATOM     10  C   LIG    1      -10.802  -5.144  -5.689  0.00  0.00    +0.107 A 
ATOM     11  N   LIG    1      -11.708  -6.170  -5.675  0.00  0.00    -0.351 N 
ATOM     12  C   LIG    1      -11.175  -7.162  -4.929  0.00  0.00    +0.196 A 
ATOM     13  H   LIG    1      -12.571  -6.182  -6.117  0.00  0.00    +0.166 HD
ATOM     14  N   LIG    1      -10.001  -6.782  -4.505  0.00  0.00    -0.241 NA
ENDBRANCH   8   9
ENDBRANCH   7   8
ENDBRANCH   4   7
ENDBRANCH   1   3
BRANCH   2  15
ATOM     15  O   LIG    1       -3.516  -1.736  -2.122  0.00  0.00    -0.409 OA
ATOM     16  H   LIG    1       -3.076  -1.413  -2.920  0.00  0.00    +0.328 HD
ENDBRANCH   2  15
BRANCH   1  17
ATOM     17  C   LIG    1       -4.990  -2.616   0.037  0.00  0.00    +0.099 C 
BRANCH  17  21
ATOM     18  C   LIG    1       -6.519   1.141   1.384  0.00  0.00    +0.134 A 
ATOM     19  C   LIG    1       -7.259  -0.018   1.571  0.00  0.00    +0.047 A 
ATOM     20  C   LIG    1       -6.762  -1.231   1.134  0.00  0.00    +0.007 A 
ATOM     21  C   LIG    1       -5.529  -1.291   0.511  0.00  0.00    -0.040 A 
ATOM     22  C   LIG    1       -4.790  -0.138   0.324  0.00  0.00    +0.023 A 
ATOM     23  C   LIG    1       -5.284   1.079   0.754  0.00  0.00    +0.060 A 
ATOM     24 BR   LIG    1       -4.276   2.657   0.489  0.00  0.00    -0.047 Br
BRANCH  18  26
ATOM     25  C   LIG    1       -8.283   2.324   2.454  0.00  0.00    +0.277 C 
ATOM     26  O   LIG    1       -7.005   2.336   1.813  0.00  0.00    -0.494 OA
ENDBRANCH  18  26
ENDBRANCH  17  21
ENDBRANCH   1  17
TORSDOF 8
