REMARK  Name = ZINC00057435
REMARK                            x       y       z     vdW  Elec       q    Type
REMARK                         _______ _______ _______ _____ _____    ______ ____
ROOT
ATOM      1  C   LIG    1       -0.018   1.503   0.010  0.00  0.00    +0.044 C 
ATOM      2  C   LIG    1        0.002  -0.004   0.002  0.00  0.00    -0.046 A 
ATOM      3  C   LIG    1        0.006  -0.688  -1.200  0.00  0.00    +0.011 A 
ATOM      4  C   LIG    1        0.024  -2.069  -1.210  0.00  0.00    -0.000 A 
ATOM      5  C   LIG    1        0.039  -2.770  -0.013  0.00  0.00    +0.124 A 
ATOM      6  C   LIG    1        0.036  -2.082   1.191  0.00  0.00    -0.005 A 
ATOM      7  C   LIG    1        0.052  -2.841   2.493  0.00  0.00    +0.048 C 
ATOM      8  C   LIG    1        0.023  -0.701   1.196  0.00  0.00    -0.027 A 
ENDROOT
BRANCH   4   9
ATOM      9  C   LIG    1        0.027  -2.813  -2.521  0.00  0.00    -0.009 C 
ATOM     10  C   LIG    1       -1.211  -3.709  -2.601  0.00  0.00    +0.015 C 
ATOM     11  C   LIG    1        1.287  -3.676  -2.614  0.00  0.00    +0.015 C 
ATOM     12  C   LIG    1        0.007  -1.811  -3.677  0.00  0.00    +0.015 C 
ENDBRANCH   4   9
BRANCH   5  13
ATOM     13  O   LIG    1        0.057  -4.129  -0.021  0.00  0.00    -0.506 OA
ATOM     14  H   LIG    1        0.945  -4.511  -0.027  0.00  0.00    +0.292 HD
ENDBRANCH   5  13
BRANCH   8  15
ATOM     15  C   LIG    1        0.025   0.048   2.504  0.00  0.00    +0.159 C 
BRANCH  15  16
ATOM     16  C   LIG    1       -1.395   0.278   2.954  0.00  0.00    +0.243 C 
ATOM     17  N   LIG    1       -2.079   1.344   2.609  0.00  0.00    -0.275 N 
ATOM     18  H   LIG    1       -1.750   2.066   2.051  0.00  0.00    +0.304 HD
ATOM     19  C   LIG    1       -3.423   1.272   3.204  0.00  0.00    +0.276 C 
ATOM     20  C   LIG    1       -3.395  -0.064   3.977  0.00  0.00    +0.268 C 
ATOM     21  N   LIG    1       -2.040  -0.576   3.713  0.00  0.00    -0.237 N 
ATOM     22  H   LIG    1       -1.681  -1.411   4.050  0.00  0.00    +0.291 HD
ENDBRANCH  15  16
ENDBRANCH   8  15
TORSDOF 4
