REMARK  Name = ZINC35120168
REMARK                            x       y       z     vdW  Elec       q    Type
REMARK                         _______ _______ _______ _____ _____    ______ ____
ROOT
ATOM      1  C   LIG    1        0.845  -0.437  -1.483  0.00  0.00    +0.088 A 
ATOM      2  C   LIG    1        0.133  -0.612  -2.655  0.00  0.00    +0.029 A 
ATOM      3  C   LIG    1        0.791  -0.952  -3.821  0.00  0.00    +0.028 A 
ATOM      4  C   LIG    1        2.170  -1.117  -3.815  0.00  0.00    +0.046 A 
ATOM      5  C   LIG    1        2.882  -0.940  -2.637  0.00  0.00    +0.028 A 
ATOM      6  C   LIG    1        2.219  -0.596  -1.475  0.00  0.00    +0.029 A 
ENDROOT
BRANCH   4   7
ATOM      7  N   LIG    1        2.841  -1.462  -4.997  0.00  0.00    -0.323 N 
ATOM      8  C   LIG    1        2.257  -1.658  -6.216  0.00  0.00    +0.091 A 
ATOM      9  C   LIG    1        3.225  -1.975  -7.100  0.00  0.00    +0.019 A 
ATOM     10  C   LIG    1        4.450  -1.975  -6.404  0.00  0.00    +0.019 A 
ATOM     11  C   LIG    1        4.187  -1.653  -5.121  0.00  0.00    +0.091 A 
ENDBRANCH   4   7
BRANCH   1  13
ATOM     12  C   LIG    1       -0.022   1.810   0.012  0.00  0.00    +0.200 C 
ATOM     13  S   LIG    1        0.002  -0.004   0.002  0.00  0.00    -0.006 S 
ATOM     14  O   LIG    1       -1.315  -0.510  -0.168  0.00  0.00    -0.170 OA
ATOM     15  O   LIG    1        0.835  -0.488   1.046  0.00  0.00    -0.170 OA
ENDBRANCH   1  13
TORSDOF 2
