REMARK  Name = ZINC34802946
REMARK                            x       y       z     vdW  Elec       q    Type
REMARK                         _______ _______ _______ _____ _____    ______ ____
ROOT
ATOM      1  C   LIG    1       -0.048   1.502   0.010  0.00  0.00    +0.044 C 
ATOM      2  C   LIG    1       -0.019  -0.004   0.002  0.00  0.00    -0.043 A 
ATOM      3  C   LIG    1       -0.018  -0.687  -1.200  0.00  0.00    +0.005 A 
ATOM      4  C   LIG    1        0.009  -2.067  -1.216  0.00  0.00    +0.013 A 
ATOM      5  C   LIG    1        0.033  -2.781  -0.016  0.00  0.00    +0.038 A 
ATOM      6  C   LIG    1        0.031  -2.097   1.198  0.00  0.00    +0.021 A 
ATOM      7  C   LIG    1        0.011  -0.706   1.206  0.00  0.00    -0.014 A 
ENDROOT
BRANCH   7   8
ATOM      8  C   LIG    1        0.016   0.030   2.495  0.00  0.00    -0.017 A 
ATOM      9  C   LIG    1        0.929   1.077   2.695  0.00  0.00    +0.010 A 
ATOM     10  C   LIG    1        0.955   1.768   3.865  0.00  0.00    +0.029 A 
ATOM     11  C   LIG    1        0.059   1.437   4.894  0.00  0.00    +0.076 A 
ATOM     12  C   LIG    1       -0.869   0.380   4.701  0.00  0.00    +0.019 A 
ATOM     13  C   LIG    1       -1.756   0.069   5.749  0.00  0.00    +0.124 A 
ATOM     14  N   LIG    1       -1.687   0.772   6.860  0.00  0.00    -0.222 NA
ATOM     15  C   LIG    1       -0.803   1.757   7.007  0.00  0.00    +0.216 A 
ATOM     16  N   LIG    1        0.052   2.093   6.061  0.00  0.00    -0.215 NA
ATOM     17  C   LIG    1       -0.884  -0.317   3.486  0.00  0.00    +0.020 A 
BRANCH  15  18
ATOM     18  N   LIG    1       -0.782   2.457   8.200  0.00  0.00    -0.312 N 
ATOM     19  H   LIG    1       -0.147   3.179   8.327  0.00  0.00    +0.149 HD
BRANCH  18  20
ATOM     20  C   LIG    1       -1.720   2.109   9.270  0.00  0.00    +0.119 C 
BRANCH  20  21
ATOM     21  C   LIG    1       -1.487   3.029  10.471  0.00  0.00    +0.103 C 
BRANCH  21  22
ATOM     22  N   LIG    1       -2.427   2.679  11.544  0.00  0.00    -0.297 NA
ATOM     23  C   LIG    1       -3.812   2.974  11.149  0.00  0.00    +0.112 C 
ATOM     24  C   LIG    1       -4.760   2.541  12.270  0.00  0.00    +0.175 C 
ATOM     25  O   LIG    1       -4.391   3.203  13.482  0.00  0.00    -0.377 OA
ATOM     26  C   LIG    1       -3.048   2.937  13.897  0.00  0.00    +0.175 C 
ATOM     27  C   LIG    1       -2.083   3.374  12.793  0.00  0.00    +0.112 C 
ENDBRANCH  21  22
ENDBRANCH  20  21
ENDBRANCH  18  20
ENDBRANCH  15  18
ENDBRANCH   7   8
BRANCH   5  28
ATOM     28  C   LIG    1        0.060  -4.259  -0.034  0.00  0.00    +0.248 C 
ATOM     29  N   LIG    1        0.061  -4.919  -1.209  0.00  0.00    -0.281 N 
ATOM     30  H   LIG    1       -0.024  -4.428  -2.041  0.00  0.00    +0.155 HD
ATOM     31  O   LIG    1        0.082  -4.879   1.012  0.00  0.00    -0.270 OA
BRANCH  29  32
ATOM     32  C   LIG    1        0.185  -6.312  -1.228  0.00  0.00    +0.034 A 
ATOM     33  C   LIG    1        0.889  -6.934  -2.251  0.00  0.00    +0.023 A 
ATOM     34  C   LIG    1        1.010  -8.309  -2.268  0.00  0.00    +0.002 A 
ATOM     35  C   LIG    1        0.430  -9.068  -1.267  0.00  0.00    +0.012 A 
ATOM     36  C   LIG    1       -0.272  -8.452  -0.247  0.00  0.00    +0.057 A 
ATOM     37  C   LIG    1       -0.392  -7.076  -0.223  0.00  0.00    +0.035 A 
BRANCH  36  38
ATOM     38  C   LIG    1       -0.902  -9.282   0.841  0.00  0.00    +0.417 C 
ATOM     39  F   LIG    1       -2.285  -9.067   0.850  0.00  0.00    -0.166 F 
ATOM     40  F   LIG    1       -0.365  -8.914   2.079  0.00  0.00    -0.166 F 
ATOM     41  F   LIG    1       -0.643 -10.636   0.604  0.00  0.00    -0.166 F 
ENDBRANCH  36  38
ENDBRANCH  29  32
ENDBRANCH   5  28
TORSDOF 8
