REMARK  Name = ZINC36310776
REMARK                            x       y       z     vdW  Elec       q    Type
REMARK                         _______ _______ _______ _____ _____    ______ ____
ROOT
ATOM      1  C   LIG    1       -5.495   1.043   1.101  0.00  0.00    +0.115 C 
ATOM      2  C   LIG    1       -6.129  -0.314   1.413  0.00  0.00    +0.042 C 
ENDROOT
BRANCH   1   4
ATOM      3  C   LIG    1       -3.385   0.278   2.049  0.00  0.00    +0.401 C 
ATOM      4  N   LIG    1       -4.038   0.902   1.048  0.00  0.00    -0.267 N 
ATOM      5  H   LIG    1       -3.543   1.257   0.293  0.00  0.00    +0.153 HD
ATOM      6  O   LIG    1       -3.998  -0.117   3.021  0.00  0.00    -0.226 OA
BRANCH   3   7
ATOM      7  O   LIG    1       -2.054   0.093   1.972  0.00  0.00    -0.447 OA
BRANCH   7  14
ATOM      8  C   LIG    1       -0.331  -2.044   1.072  0.00  0.00    +0.015 C 
ATOM      9  C   LIG    1       -0.190  -1.426   2.464  0.00  0.00    +0.010 C 
ATOM     10  C   LIG    1        0.232  -2.403   3.604  0.00  0.00    +0.011 C 
ATOM     11  C   LIG    1        0.789  -1.487   4.718  0.00  0.00    +0.005 C 
ATOM     12  C   LIG    1        0.651  -0.043   4.146  0.00  0.00    -0.001 C 
ATOM     13  C   LIG    1       -0.883   0.239   4.161  0.00  0.00    +0.049 C 
ATOM     14  C   LIG    1       -1.445  -0.679   3.009  0.00  0.00    +0.185 C 
ATOM     15  C   LIG    1        0.903  -0.310   2.620  0.00  0.00    -0.023 C 
ATOM     16  C   LIG    1        2.312  -0.845   2.356  0.00  0.00    +0.012 C 
ATOM     17  C   LIG    1        0.593   0.920   1.764  0.00  0.00    +0.012 C 
ENDBRANCH   7  14
ENDBRANCH   3   7
ENDBRANCH   1   4
BRANCH   1  18
ATOM     18  C   LIG    1       -5.866   2.031   2.177  0.00  0.00    +0.237 C 
ATOM     19  N   LIG    1       -5.103   2.140   3.283  0.00  0.00    -0.311 N 
ATOM     20  H   LIG    1       -4.277   1.638   3.353  0.00  0.00    +0.149 HD
ATOM     21  O   LIG    1       -6.851   2.727   2.048  0.00  0.00    -0.273 OA
BRANCH  19  22
ATOM     22  C   LIG    1       -5.523   3.018   4.378  0.00  0.00    +0.131 C 
BRANCH  22  23
ATOM     23  C   LIG    1       -4.487   2.960   5.503  0.00  0.00    +0.120 C 
BRANCH  23  24
ATOM     24  C   LIG    1       -4.978   3.765   6.679  0.00  0.00    -0.026 A 
ATOM     25  C   LIG    1       -5.900   3.221   7.553  0.00  0.00    +0.005 A 
ATOM     26  C   LIG    1       -6.349   3.959   8.632  0.00  0.00    +0.000 A 
ATOM     27  C   LIG    1       -5.876   5.242   8.836  0.00  0.00    +0.000 A 
ATOM     28  C   LIG    1       -4.954   5.786   7.962  0.00  0.00    +0.000 A 
ATOM     29  C   LIG    1       -4.501   5.046   6.886  0.00  0.00    +0.005 A 
ENDBRANCH  23  24
BRANCH  23  30
ATOM     30  N   LIG    1       -4.290   1.567   5.913  0.00  0.00    -0.307 N 
ATOM     31  H   LIG    1       -4.994   0.915   5.771  0.00  0.00    +0.149 HD
ATOM     32  C   LIG    1       -3.130   1.192   6.489  0.00  0.00    +0.214 C 
ATOM     33  O   LIG    1       -2.250   2.007   6.667  0.00  0.00    -0.276 OA
BRANCH  32  34
ATOM     34  C   LIG    1       -2.927  -0.240   6.911  0.00  0.00    +0.107 C 
BRANCH  34  35
ATOM     35  C   LIG    1       -1.537  -0.397   7.531  0.00  0.00    +0.129 C 
BRANCH  35  36
ATOM     36  C   LIG    1       -1.334  -1.829   7.953  0.00  0.00    +0.305 C 
ATOM     37  O   LIG    1       -2.219  -2.649   7.774  0.00  0.00    -0.251 OA
BRANCH  36  38
ATOM     38  O   LIG    1       -0.285  -2.168   8.474  0.00  0.00    -0.481 OA
ATOM     39  H   LIG    1        0.395  -1.538   8.611  0.00  0.00    +0.295 HD
ENDBRANCH  36  38
ENDBRANCH  35  36
ENDBRANCH  34  35
ENDBRANCH  32  34
ENDBRANCH  23  30
ENDBRANCH  22  23
ENDBRANCH  19  22
ENDBRANCH   1  18
BRANCH   1  40
ATOM     40  C   LIG    1       -6.008   1.546  -0.251  0.00  0.00    +0.072 C 
BRANCH  40  41
ATOM     41  C   LIG    1       -5.288   2.818  -0.620  0.00  0.00    -0.020 A 
ATOM     42  C   LIG    1       -5.700   4.070  -0.366  0.00  0.00    +0.087 A 
ATOM     43  N   LIG    1       -4.787   4.968  -0.849  0.00  0.00    -0.360 N 
ATOM     44  C   LIG    1       -3.739   4.298  -1.440  0.00  0.00    +0.047 A 
ATOM     45  C   LIG    1       -2.573   4.713  -2.074  0.00  0.00    +0.026 A 
ATOM     46  C   LIG    1       -1.688   3.776  -2.562  0.00  0.00    +0.002 A 
ATOM     47  C   LIG    1       -1.956   2.419  -2.441  0.00  0.00    +0.001 A 
ATOM     48  C   LIG    1       -3.099   1.989  -1.826  0.00  0.00    +0.010 A 
ATOM     49  H   LIG    1       -4.867   5.932  -0.785  0.00  0.00    +0.165 HD
ATOM     50  C   LIG    1       -4.004   2.921  -1.316  0.00  0.00    +0.003 A 
ENDBRANCH  40  41
ENDBRANCH   1  40
TORSDOF 14
