REMARK  Name = ZINC28826085
REMARK                            x       y       z     vdW  Elec       q    Type
REMARK                         _______ _______ _______ _____ _____    ______ ____
ROOT
ATOM      1  C   LIG    1        3.944   5.396   1.030  0.00  0.00    +0.024 A 
ATOM      2  C   LIG    1        2.755   4.725   1.064  0.00  0.00    -0.015 A 
ATOM      3  C   LIG    1        2.398   3.945  -0.028  0.00  0.00    -0.005 A 
ATOM      4  C   LIG    1        3.246   3.889  -1.100  0.00  0.00    +0.054 A 
ATOM      5  S   LIG    1        4.585   4.945  -0.573  0.00  0.00    -0.096 S 
ENDROOT
BRANCH   3   6
ATOM      6  C   LIG    1        1.119   3.193  -0.035  0.00  0.00    +0.001 A 
ATOM      7  C   LIG    1        1.127   1.800  -0.058  0.00  0.00    +0.010 A 
ATOM      8  C   LIG    1       -0.065   1.105  -0.064  0.00  0.00    +0.001 A 
ATOM      9  C   LIG    1       -1.268   1.788  -0.052  0.00  0.00    +0.001 A 
ATOM     10  C   LIG    1       -1.283   3.171  -0.022  0.00  0.00    +0.020 A 
ATOM     11  C   LIG    1       -0.096   3.877  -0.017  0.00  0.00    +0.049 A 
ATOM     12 CL   LIG    1       -0.117   5.613   0.013  0.00  0.00    -0.083 Cl
ENDBRANCH   3   6
BRANCH   1  16
ATOM     13  C   LIG    1        5.665   7.925   3.979  0.00  0.00    +0.121 A 
ATOM     14  C   LIG    1        6.419   6.904   3.417  0.00  0.00    +0.046 A 
ATOM     15  C   LIG    1        5.864   6.081   2.460  0.00  0.00    +0.012 A 
ATOM     16  C   LIG    1        4.543   6.276   2.056  0.00  0.00    -0.011 A 
ATOM     17  C   LIG    1        3.790   7.308   2.619  0.00  0.00    +0.012 A 
ATOM     18  C   LIG    1        4.350   8.123   3.580  0.00  0.00    +0.046 A 
BRANCH  13  19
ATOM     19  O   LIG    1        6.216   8.734   4.922  0.00  0.00    -0.492 OA
BRANCH  19  20
ATOM     20  C   LIG    1        5.384   9.765   5.459  0.00  0.00    +0.229 C 
BRANCH  20  22
ATOM     21  C   LIG    1        5.280  11.670   7.072  0.00  0.00    +0.007 C 
ATOM     22  C   LIG    1        6.171  10.566   6.498  0.00  0.00    +0.038 C 
ENDBRANCH  20  22
ENDBRANCH  19  20
ENDBRANCH  13  19
ENDBRANCH   1  16
BRANCH   2  23
ATOM     23  C   LIG    1        1.851   4.824   2.265  0.00  0.00    +0.151 C 
BRANCH  23  24
ATOM     24  C   LIG    1        2.283   3.821   3.303  0.00  0.00    +0.280 C 
ATOM     25  N   LIG    1        1.624   3.729   4.456  0.00  0.00    -0.177 N 
ATOM     26  H   LIG    1        0.708   4.317   4.614  0.00  0.00    +0.254 HD
ATOM     27  O   LIG    1        3.235   3.095   3.088  0.00  0.00    -0.257 OA
BRANCH  25  28
ATOM     28  C   LIG    1        2.072   2.929   5.415  0.00  0.00    +0.342 C 
ATOM     29  N   LIG    1        1.461   2.917   6.633  0.00  0.00    -0.293 N 
ATOM     30  H   LIG    1        0.596   3.571   6.821  0.00  0.00    +0.254 HD
ATOM     31  H   LIG    1        1.832   2.253   7.428  0.00  0.00    +0.254 HD
BRANCH  28  32
ATOM     32  N   LIG    1        3.142   2.120   5.182  0.00  0.00    -0.280 N 
ATOM     33  H   LIG    1        3.692   2.195   4.233  0.00  0.00    +0.258 HD
BRANCH  32  34
ATOM     34  C   LIG    1        3.561   1.149   6.197  0.00  0.00    +0.198 C 
BRANCH  34  35
ATOM     35  C   LIG    1        4.778   0.373   5.688  0.00  0.00    +0.065 C 
BRANCH  35  36
ATOM     36  C   LIG    1        5.216  -0.640   6.747  0.00  0.00    +0.159 C 
BRANCH  36  37
ATOM     37  O   LIG    1        6.352  -1.365   6.272  0.00  0.00    -0.395 OA
ATOM     38  H   LIG    1        6.811  -2.142   6.901  0.00  0.00    +0.209 HD
ENDBRANCH  36  37
ENDBRANCH  35  36
ENDBRANCH  34  35
ENDBRANCH  32  34
ENDBRANCH  28  32
ENDBRANCH  25  28
ENDBRANCH  23  24
ENDBRANCH   2  23
TORSDOF 13
