REMARK  Name = ZINC35857039
REMARK                            x       y       z     vdW  Elec       q    Type
REMARK                         _______ _______ _______ _____ _____    ______ ____
ROOT
ATOM      1  C   LIG    1        0.859  -0.512   0.990  0.00  0.00    -0.021 A 
ATOM      2  C   LIG    1        2.256  -0.103   0.996  0.00  0.00    -0.007 A 
ATOM      3  C   LIG    1        2.931   0.760   0.101  0.00  0.00    +0.009 A 
ATOM      4  C   LIG    1        4.253   1.031   0.260  0.00  0.00    +0.001 A 
ATOM      5  C   LIG    1        4.988   0.477   1.300  0.00  0.00    +0.001 A 
ATOM      6  C   LIG    1        4.366  -0.370   2.196  0.00  0.00    +0.015 A 
ATOM      7  C   LIG    1        3.026  -0.653   2.044  0.00  0.00    +0.020 A 
ATOM      8  S   LIG    1        1.863  -1.656   2.933  0.00  0.00    -0.093 S 
ATOM      9  C   LIG    1        0.414  -1.343   1.943  0.00  0.00    -0.007 A 
ENDROOT
BRANCH   1  11
ATOM     10  C   LIG    1       -1.187   0.828   0.581  0.00  0.00    +0.019 C 
ATOM     11  C   LIG    1       -0.079   0.000  -0.073  0.00  0.00    +0.066 C 
BRANCH  11  12
ATOM     12  C   LIG    1        0.686   0.862  -1.045  0.00  0.00    +0.048 A 
ATOM     13  C   LIG    1        0.830   2.213  -0.792  0.00  0.00    +0.024 A 
ATOM     14  C   LIG    1        1.535   2.997  -1.693  0.00  0.00    +0.003 A 
ATOM     15  C   LIG    1        2.071   2.389  -2.819  0.00  0.00    +0.020 A 
ATOM     16  C   LIG    1        1.885   1.032  -3.004  0.00  0.00    +0.111 A 
ATOM     17  N   LIG    1        1.213   0.317  -2.123  0.00  0.00    -0.259 NA
ENDBRANCH  11  12
ENDBRANCH   1  11
BRANCH   9  18
ATOM     18  C   LIG    1       -0.979  -1.886   2.131  0.00  0.00    +0.024 C 
BRANCH  18  19
ATOM     19  C   LIG    1       -1.165  -3.128   1.257  0.00  0.00    -0.074 C 
BRANCH  19  20
ATOM     20  N   LIG    1       -2.523  -3.657   1.440  0.00  0.00    +0.376 N 
ATOM     21  H   LIG    1       -3.196  -2.929   1.252  0.00  0.00    -0.083 HD
ATOM     22  C   LIG    1       -2.684  -4.127   2.823  0.00  0.00    -0.097 C 
ATOM     23  C   LIG    1       -2.742  -4.776   0.515  0.00  0.00    -0.097 C 
ENDBRANCH  19  20
ENDBRANCH  18  19
ENDBRANCH   9  18
TORSDOF 5
