REMARK  Name = ZINC20102293
REMARK                            x       y       z     vdW  Elec       q    Type
REMARK                         _______ _______ _______ _____ _____    ______ ____
ROOT
ATOM      1  N   LIG    1       -0.698  -4.721  -1.454  0.00  0.00    -0.278 N 
ATOM      2  H   LIG    1       -0.935  -5.148  -0.615  0.00  0.00    +0.258 HD
ENDROOT
BRANCH   1   3
ATOM      3  C   LIG    1       -1.213  -5.197  -2.636  0.00  0.00    +0.350 C 
ATOM      4  N   LIG    1       -0.985  -4.559  -3.749  0.00  0.00    -0.291 N 
ATOM      5  H   LIG    1       -0.392  -3.791  -3.756  0.00  0.00    +0.255 HD
ATOM      6  H   LIG    1       -1.407  -4.852  -4.572  0.00  0.00    +0.255 HD
BRANCH   3   7
ATOM      7  N   LIG    1       -1.971  -6.348  -2.645  0.00  0.00    -0.214 N 
ATOM      8  H   LIG    1       -2.268  -6.727  -3.487  0.00  0.00    +0.268 HD
BRANCH   7   9
ATOM      9  C   LIG    1       -2.310  -6.964  -1.448  0.00  0.00    +0.292 A 
ATOM     10  N   LIG    1       -1.805  -6.498  -0.316  0.00  0.00    -0.207 NA
ATOM     11  C   LIG    1       -2.108  -7.062   0.842  0.00  0.00    +0.117 A 
ATOM     12  C   LIG    1       -2.964  -8.152   0.860  0.00  0.00    +0.040 A 
ATOM     13  C   LIG    1       -3.475  -8.613  -0.344  0.00  0.00    +0.117 A 
ATOM     14  N   LIG    1       -3.135  -8.000  -1.466  0.00  0.00    -0.207 NA
ENDBRANCH   7   9
ENDBRANCH   3   7
ENDBRANCH   1   3
BRANCH   1  15
ATOM     15  C   LIG    1        0.209  -3.571  -1.460  0.00  0.00    +0.200 C 
BRANCH  15  16
ATOM     16  C   LIG    1        0.633  -3.248  -0.025  0.00  0.00    +0.074 C 
BRANCH  16  22
ATOM     17  C   LIG    1       -0.068   1.387  -0.020  0.00  0.00    +0.001 A 
ATOM     18  C   LIG    1        1.116   2.113  -0.027  0.00  0.00    +0.002 A 
ATOM     19  C   LIG    1        2.334   1.470  -0.035  0.00  0.00    +0.026 A 
ATOM     20  C   LIG    1        2.382   0.080  -0.036  0.00  0.00    +0.047 A 
ATOM     21  C   LIG    1        1.180  -0.651  -0.029  0.00  0.00    +0.003 A 
ATOM     22  C   LIG    1        1.566  -2.064  -0.032  0.00  0.00    -0.019 A 
ATOM     23  C   LIG    1        2.907  -2.105  -0.040  0.00  0.00    +0.087 A 
ATOM     24  N   LIG    1        3.413  -0.834  -0.043  0.00  0.00    -0.360 N 
ATOM     25  H   LIG    1        4.356  -0.609  -0.049  0.00  0.00    +0.165 HD
ATOM     26  C   LIG    1       -0.044   0.021  -0.021  0.00  0.00    +0.010 A 
ENDBRANCH  16  22
ENDBRANCH  15  16
ENDBRANCH   1  15
TORSDOF 6
