REMARK  Name = ZINC18230030
REMARK                            x       y       z     vdW  Elec       q    Type
REMARK                         _______ _______ _______ _____ _____    ______ ____
ROOT
ATOM      1  C   LIG    1       -0.017   1.376   0.010  0.00  0.00    +0.001 A 
ATOM      2  C   LIG    1        1.172   2.087   0.002  0.00  0.00    +0.002 A 
ATOM      3  C   LIG    1        2.385   1.429  -0.013  0.00  0.00    +0.024 A 
ATOM      4  C   LIG    1        2.425   0.039  -0.021  0.00  0.00    +0.042 A 
ATOM      5  C   LIG    1        1.220  -0.677  -0.013  0.00  0.00    +0.010 A 
ATOM      6  C   LIG    1        1.587  -2.110  -0.024  0.00  0.00    +0.069 C 
ATOM      7  C   LIG    1        3.054  -2.129  -0.038  0.00  0.00    +0.251 C 
ATOM      8  O   LIG    1        3.757  -3.124  -0.051  0.00  0.00    -0.270 OA
ATOM      9  C   LIG    1        0.728  -3.201  -0.021  0.00  0.00    +0.074 C 
ATOM     10  C   LIG    1        1.125  -4.626  -0.026  0.00  0.00    +0.133 C 
ATOM     11  C   LIG    1       -0.151  -5.380  -0.020  0.00  0.00    +0.026 A 
ATOM     12  C   LIG    1       -0.446  -6.740  -0.021  0.00  0.00    +0.012 A 
ATOM     13  C   LIG    1       -1.762  -7.156  -0.014  0.00  0.00    +0.001 A 
ATOM     14  C   LIG    1       -2.785  -6.223  -0.007  0.00  0.00    +0.002 A 
ATOM     15  C   LIG    1       -2.503  -4.872  -0.006  0.00  0.00    +0.024 A 
ATOM     16  C   LIG    1       -1.182  -4.434  -0.012  0.00  0.00    +0.041 A 
ATOM     17  N   LIG    1        2.336  -5.113  -0.034  0.00  0.00    -0.085 NA
ATOM     18  N   LIG    1       -0.640  -3.155  -0.008  0.00  0.00    -0.312 N 
ATOM     19  H   LIG    1       -1.162  -2.337   0.001  0.00  0.00    +0.152 HD
ATOM     20  N   LIG    1        3.487  -0.857  -0.036  0.00  0.00    -0.281 N 
ATOM     21  H   LIG    1        4.422  -0.597  -0.044  0.00  0.00    +0.155 HD
ATOM     22  C   LIG    1        0.002  -0.004   0.002  0.00  0.00    +0.010 A 
ENDROOT
BRANCH  17  23
ATOM     23  O   LIG    1        2.535  -6.515  -0.037  0.00  0.00    -0.409 OA
ATOM     24  H   LIG    1        3.465  -6.781  -0.043  0.00  0.00    +0.328 HD
ENDBRANCH  17  23
TORSDOF 1
