REMARK  Name = ZINC18274812
REMARK                            x       y       z     vdW  Elec       q    Type
REMARK                         _______ _______ _______ _____ _____    ______ ____
ROOT
ATOM      1  C   LIG    1        2.905  -1.276  -5.112  0.00  0.00    +0.139 A 
ATOM      2  N   LIG    1        4.252  -1.471  -5.235  0.00  0.00    -0.337 N 
ATOM      3  C   LIG    1        4.482  -1.931  -6.509  0.00  0.00    +0.074 A 
ATOM      4  C   LIG    1        3.245  -2.002  -7.129  0.00  0.00    +0.097 A 
ATOM      5  H   LIG    1        4.920  -1.314  -4.550  0.00  0.00    +0.167 HD
ATOM      6  N   LIG    1        2.319  -1.601  -6.242  0.00  0.00    -0.227 NA
ENDROOT
BRANCH   3   7
ATOM      7  C   LIG    1        5.788  -2.281  -7.100  0.00  0.00    +0.001 A 
ATOM      8  C   LIG    1        6.135  -1.804  -8.367  0.00  0.00    +0.013 A 
ATOM      9  C   LIG    1        7.357  -2.134  -8.914  0.00  0.00    +0.039 A 
ATOM     10  C   LIG    1        8.240  -2.938  -8.210  0.00  0.00    +0.123 A 
ATOM     11  F   LIG    1        9.435  -3.259  -8.752  0.00  0.00    -0.205 F 
ATOM     12  C   LIG    1        7.901  -3.415  -6.953  0.00  0.00    +0.039 A 
ATOM     13  C   LIG    1        6.685  -3.086  -6.393  0.00  0.00    +0.013 A 
ENDBRANCH   3   7
BRANCH   1  17
ATOM     14  C   LIG    1        0.927   0.134  -1.628  0.00  0.00    +0.039 A 
ATOM     15  C   LIG    1        0.193  -0.173  -2.760  0.00  0.00    +0.018 A 
ATOM     16  C   LIG    1        0.830  -0.632  -3.895  0.00  0.00    +0.012 A 
ATOM     17  C   LIG    1        2.217  -0.785  -3.900  0.00  0.00    +0.017 A 
ATOM     18  C   LIG    1        2.951  -0.472  -2.755  0.00  0.00    +0.012 A 
ATOM     19  C   LIG    1        2.303  -0.010  -1.628  0.00  0.00    +0.018 A 
BRANCH  14  21
ATOM     20  C   LIG    1        0.076   2.521  -0.395  0.00  0.00    +0.127 C 
ATOM     21  S   LIG    1        0.107   0.719  -0.183  0.00  0.00    +0.051 S 
ATOM     22  O   LIG    1        0.993   0.382   0.876  0.00  0.00    -0.252 OA
ENDBRANCH  14  21
ENDBRANCH   1  17
BRANCH   4  23
ATOM     23  C   LIG    1        2.988  -2.446  -8.518  0.00  0.00    +0.005 A 
ATOM     24  C   LIG    1        3.648  -3.559  -9.050  0.00  0.00    +0.030 A 
ATOM     25  C   LIG    1        3.379  -3.939 -10.348  0.00  0.00    +0.111 A 
ATOM     26  N   LIG    1        2.513  -3.268 -11.085  0.00  0.00    -0.263 NA
ATOM     27  C   LIG    1        1.869  -2.213 -10.621  0.00  0.00    +0.111 A 
ATOM     28  C   LIG    1        2.074  -1.768  -9.332  0.00  0.00    +0.030 A 
ENDBRANCH   4  23
TORSDOF 4
