REMARK  Name = ZINC28764117
REMARK                            x       y       z     vdW  Elec       q    Type
REMARK                         _______ _______ _______ _____ _____    ______ ____
ROOT
ATOM      1  C   LIG    1       -0.977   3.531   1.162  0.00  0.00    +0.152 C 
ENDROOT
BRANCH   1   2
ATOM      2  S   LIG    1        0.614   4.386   0.993  0.00  0.00    -0.164 S 
ATOM      3  H   LIG    1        0.643   5.481   0.898  0.00  0.00    +0.102 HD
ENDBRANCH   1   2
BRANCH   1   4
ATOM      4  C   LIG    1       -1.682   4.023   2.400  0.00  0.00    +0.318 C 
ATOM      5  O   LIG    1       -1.434   3.527   3.474  0.00  0.00    -0.250 OA
BRANCH   4   6
ATOM      6  O   LIG    1       -2.586   5.011   2.310  0.00  0.00    -0.480 OA
ATOM      7  H   LIG    1       -2.779   5.395   1.477  0.00  0.00    +0.295 HD
ENDBRANCH   4   6
ENDBRANCH   1   4
BRANCH   1   8
ATOM      8  C   LIG    1       -0.738   2.025   1.276  0.00  0.00    +0.028 C 
BRANCH   8  10
ATOM      9  C   LIG    1       -1.183   1.646  -1.154  0.00  0.00    +0.007 C 
ATOM     10  C   LIG    1       -0.148   1.502  -0.036  0.00  0.00    -0.016 C 
ATOM     11  C   LIG    1        0.226   0.027   0.126  0.00  0.00    +0.007 C 
ENDBRANCH   8  10
ENDBRANCH   1   8
TORSDOF 5
