REMARK  Name = ZINC66352146
REMARK                            x       y       z     vdW  Elec       q    Type
REMARK                         _______ _______ _______ _____ _____    ______ ____
ROOT
ATOM      1  C   LIG    1        0.184   1.501  -0.132  0.00  0.00    +0.043 C 
ATOM      2  C   LIG    1        0.000  -0.013  -0.000  0.00  0.00    +0.149 C 
ENDROOT
BRANCH   2   3
ATOM      3  C   LIG    1       -1.467  -0.331   0.130  0.00  0.00    +0.020 A 
ATOM      4  C   LIG    1       -2.127  -0.079   1.321  0.00  0.00    +0.048 A 
ATOM      5 CL   LIG    1       -1.263   0.603   2.663  0.00  0.00    -0.083 Cl
ATOM      6  C   LIG    1       -3.473  -0.371   1.441  0.00  0.00    +0.023 A 
ATOM      7  C   LIG    1       -4.162  -0.913   0.373  0.00  0.00    +0.041 A 
ATOM      8  C   LIG    1       -3.504  -1.165  -0.819  0.00  0.00    +0.142 A 
ATOM      9  F   LIG    1       -4.177  -1.696  -1.863  0.00  0.00    -0.204 F 
ATOM     10  C   LIG    1       -2.156  -0.869  -0.941  0.00  0.00    +0.083 A 
ATOM     11 CL   LIG    1       -1.331  -1.178  -2.437  0.00  0.00    -0.080 Cl
ENDBRANCH   2   3
BRANCH   2  12
ATOM     12  O   LIG    1        0.693  -0.477   1.160  0.00  0.00    -0.366 OA
BRANCH  12  13
ATOM     13  C   LIG    1        2.015  -0.764   1.016  0.00  0.00    +0.150 C 
ATOM     14  C   LIG    1        2.666  -0.500  -0.180  0.00  0.00    +0.036 C 
ATOM     15  C   LIG    1        4.016  -0.809  -0.281  0.00  0.00    +0.018 C 
ATOM     16  C   LIG    1        4.666  -1.365   0.802  0.00  0.00    +0.082 C 
ATOM     17  N   LIG    1        4.022  -1.607   1.929  0.00  0.00    -0.299 NA
ATOM     18  H   LIG    1        4.504  -1.999   2.674  0.00  0.00    +0.123 HD
ATOM     19  C   LIG    1        2.737  -1.323   2.071  0.00  0.00    +0.148 C 
BRANCH  19  20
ATOM     20  N   LIG    1        2.100  -1.590   3.280  0.00  0.00    -0.313 NA
ATOM     21  H   LIG    1        2.598  -1.978   4.015  0.00  0.00    +0.120 HD
ATOM     22  H   LIG    1        1.157  -1.387   3.386  0.00  0.00    +0.120 HD
ENDBRANCH  19  20
ENDBRANCH  12  13
ENDBRANCH   2  12
TORSDOF 4
