REMARK  Name = ZINC20104435
REMARK                            x       y       z     vdW  Elec       q    Type
REMARK                         _______ _______ _______ _____ _____    ______ ____
ROOT
ATOM      1  C   LIG    1       -0.017   1.374   0.010  0.00  0.00    +0.000 A 
ATOM      2  C   LIG    1        1.172   2.089   0.002  0.00  0.00    +0.002 A 
ATOM      3  C   LIG    1        2.383   1.433  -0.013  0.00  0.00    +0.023 A 
ATOM      4  C   LIG    1        2.424   0.042  -0.021  0.00  0.00    +0.031 A 
ATOM      5  C   LIG    1        1.220  -0.681  -0.013  0.00  0.00    -0.022 A 
ATOM      6  C   LIG    1        1.592  -2.104  -0.025  0.00  0.00    +0.044 C 
ATOM      7  C   LIG    1        0.881  -3.300  -0.024  0.00  0.00    +0.040 C 
ATOM      8  CA  LIG    1        1.591  -4.499  -0.037  0.00  0.00    +0.164 C 
ATOM      9  N   LIG    1        2.923  -4.502  -0.050  0.00  0.00    -0.302 NA
ATOM     10  C   LIG    1        3.628  -3.396  -0.051  0.00  0.00    +0.104 C 
ATOM     11  H   LIG    1        3.388  -5.353  -0.059  0.00  0.00    +0.123 HD
ATOM     12  C   LIG    1        2.999  -2.150  -0.039  0.00  0.00    +0.092 C 
ATOM     13  N   LIG    1        3.473  -0.858  -0.036  0.00  0.00    -0.339 N 
ATOM     14  H   LIG    1        4.412  -0.614  -0.045  0.00  0.00    +0.146 HD
ATOM     15  C   LIG    1        0.002  -0.004   0.002  0.00  0.00    +0.006 A 
ENDROOT
BRANCH   8  16
ATOM     16  C   LIG    1        0.858  -5.780  -0.037  0.00  0.00    +0.322 C 
ATOM     17  O   LIG    1        1.474  -6.837  -0.049  0.00  0.00    -0.249 OA
BRANCH  16  18
ATOM     18  OXT LIG    1       -0.365  -5.785  -0.025  0.00  0.00    -0.480 OA
ATOM     19  HXT LIG    1       -0.837  -4.976  -0.016  0.00  0.00    +0.295 HD
ENDBRANCH  16  18
ENDBRANCH   8  16
TORSDOF 2
