REMARK  Name = ZINC18007687
REMARK                            x       y       z     vdW  Elec       q    Type
REMARK                         _______ _______ _______ _____ _____    ______ ____
ROOT
ATOM      1  C   LIG    1        4.710   0.585  -0.038  0.00  0.00    +0.092 A 
ATOM      2  C   LIG    1        6.180   0.723   0.008  0.00  0.00    +0.016 A 
ATOM      3  C   LIG    1        7.041   1.815   0.071  0.00  0.00    +0.030 A 
ATOM      4  C   LIG    1        8.405   1.609   0.101  0.00  0.00    +0.042 A 
ATOM      5 CL   LIG    1        9.483   2.967   0.179  0.00  0.00    -0.084 Cl
ATOM      6  C   LIG    1        8.917   0.321   0.068  0.00  0.00    +0.022 A 
ATOM      7  C   LIG    1        8.073  -0.769   0.005  0.00  0.00    +0.028 A 
ATOM      8  C   LIG    1        6.697  -0.580  -0.026  0.00  0.00    +0.062 A 
ATOM      9  N   LIG    1        5.625  -1.461  -0.087  0.00  0.00    -0.234 N 
ATOM     10  C   LIG    1        5.733  -2.804  -0.133  0.00  0.00    +0.319 C 
ATOM     11  N   LIG    1        5.819  -3.433  -1.323  0.00  0.00    -0.311 N 
ATOM     12  H   LIG    1        5.897  -4.399  -1.356  0.00  0.00    +0.147 HD
ATOM     13  H   LIG    1        5.803  -2.919  -2.145  0.00  0.00    +0.147 HD
ATOM     14  O   LIG    1        5.753  -3.448   0.897  0.00  0.00    -0.249 OA
ATOM     15  C   LIG    1        4.446  -0.772  -0.088  0.00  0.00    +0.213 A 
ENDROOT
BRANCH   1  16
ATOM     16  C   LIG    1        3.727   1.670  -0.025  0.00  0.00    +0.205 C 
ATOM     17  O   LIG    1        3.354   2.143   1.035  0.00  0.00    -0.286 OA
BRANCH  16  20
ATOM     18  C   LIG    1        1.903   3.415  -2.807  0.00  0.00    +0.008 A 
ATOM     19  C   LIG    1        2.192   3.128  -1.494  0.00  0.00    +0.019 A 
ATOM     20  C   LIG    1        3.190   2.188  -1.289  0.00  0.00    +0.060 A 
ATOM     21  S   LIG    1        3.652   1.774  -2.960  0.00  0.00    -0.093 S 
ATOM     22  C   LIG    1        2.591   2.780  -3.787  0.00  0.00    +0.046 A 
ENDBRANCH  16  20
ENDBRANCH   1  16
BRANCH  15  23
ATOM     23  O   LIG    1        3.216  -1.328  -0.135  0.00  0.00    -0.493 OA
ATOM     24  H   LIG    1        2.454  -0.782  -0.132  0.00  0.00    +0.294 HD
ENDBRANCH  15  23
TORSDOF 3
