REMARK  Name = ZINC20114362
REMARK                            x       y       z     vdW  Elec       q    Type
REMARK                         _______ _______ _______ _____ _____    ______ ____
ROOT
ATOM      1  C   LIG    1        2.496  -0.313  -0.570  0.00  0.00    +0.044 C 
ATOM      2  C   LIG    1        2.421   1.177  -0.358  0.00  0.00    -0.038 A 
ATOM      3  C   LIG    1        3.551   1.939  -0.349  0.00  0.00    +0.047 A 
ATOM      4  C   LIG    1        3.457   3.324  -0.151  0.00  0.00    +0.122 A 
ATOM      5  N   LIG    1        2.295   3.917   0.030  0.00  0.00    -0.232 NA
ATOM      6  C   LIG    1        1.152   3.221   0.030  0.00  0.00    +0.073 A 
ATOM      7  C   LIG    1       -0.083   3.865   0.223  0.00  0.00    +0.030 A 
ATOM      8  C   LIG    1       -1.234   3.141   0.220  0.00  0.00    +0.025 A 
ATOM      9  C   LIG    1       -1.213   1.756   0.023  0.00  0.00    +0.034 A 
ATOM     10  C   LIG    1       -0.020   1.093  -0.164  0.00  0.00    +0.033 A 
ATOM     11  C   LIG    1        1.181   1.819  -0.165  0.00  0.00    +0.005 A 
ENDROOT
BRANCH   4  12
ATOM     12  N   LIG    1        4.616   4.087  -0.144  0.00  0.00    -0.319 N 
ATOM     13  C   LIG    1        5.566   3.593   0.863  0.00  0.00    +0.088 C 
ATOM     14  C   LIG    1        6.859   4.409   0.784  0.00  0.00    -0.060 C 
ATOM     15  N   LIG    1        6.553   5.829   1.006  0.00  0.00    +0.380 N 
ATOM     16  H   LIG    1        6.080   5.925   1.994  0.00  0.00    -0.082 HD
ATOM     17  C   LIG    1        7.779   6.637   1.013  0.00  0.00    -0.096 C 
ATOM     18  C   LIG    1        5.603   6.323  -0.001  0.00  0.00    -0.060 C 
ATOM     19  C   LIG    1        4.310   5.507   0.077  0.00  0.00    +0.088 C 
ENDBRANCH   4  12
BRANCH   9  20
ATOM     20  N   LIG    1       -2.414   1.037   0.019  0.00  0.00    -0.283 N 
ATOM     21  H   LIG    1       -2.442   0.010   0.413  0.00  0.00    +0.155 HD
ATOM     22  C   LIG    1       -3.537   1.603  -0.465  0.00  0.00    +0.255 C 
ATOM     23  O   LIG    1       -3.489   2.697  -0.986  0.00  0.00    -0.272 OA
BRANCH  22  24
ATOM     24  C   LIG    1       -4.853   0.876  -0.361  0.00  0.00    +0.325 C 
BRANCH  24  25
ATOM     25  O   LIG    1       -5.886   1.675  -0.941  0.00  0.00    -0.481 OA
BRANCH  25  26
ATOM     26  C   LIG    1       -7.145   1.161  -0.929  0.00  0.00    +0.140 A 
ATOM     27  C   LIG    1       -7.380  -0.086  -0.369  0.00  0.00    +0.048 A 
ATOM     28  C   LIG    1       -8.659  -0.607  -0.357  0.00  0.00    +0.023 A 
ATOM     29  C   LIG    1       -9.707   0.115  -0.903  0.00  0.00    +0.043 A 
ATOM     30 CL   LIG    1      -11.313  -0.542  -0.887  0.00  0.00    -0.083 Cl
ATOM     31  C   LIG    1       -9.475   1.359  -1.462  0.00  0.00    +0.043 A 
ATOM     32  C   LIG    1       -8.197   1.886  -1.471  0.00  0.00    +0.084 A 
ATOM     33 CL   LIG    1       -7.907   3.451  -2.165  0.00  0.00    -0.080 Cl
ENDBRANCH  25  26
ENDBRANCH  24  25
ENDBRANCH  22  24
ENDBRANCH   9  20
TORSDOF 5
