REMARK  Name = ZINC39378570
REMARK                            x       y       z     vdW  Elec       q    Type
REMARK                         _______ _______ _______ _____ _____    ______ ____
ROOT
ATOM      1  C   LIG    1       -0.357   1.462   0.046  0.00  0.00    +0.044 C 
ATOM      2  C   LIG    1       -0.157  -0.032   0.023  0.00  0.00    -0.046 A 
ATOM      3  C   LIG    1       -0.255  -0.724  -1.169  0.00  0.00    +0.004 A 
ATOM      4  C   LIG    1       -0.072  -2.094  -1.190  0.00  0.00    +0.000 A 
ATOM      5  C   LIG    1        0.211  -2.771  -0.018  0.00  0.00    +0.000 A 
ATOM      6  C   LIG    1        0.309  -2.079   1.174  0.00  0.00    +0.005 A 
ATOM      7  C   LIG    1        0.130  -0.708   1.194  0.00  0.00    -0.025 A 
ENDROOT
BRANCH   7   8
ATOM      8  C   LIG    1        0.243   0.048   2.493  0.00  0.00    +0.158 C 
BRANCH   8   9
ATOM      9  N   LIG    1        1.589   0.615   2.612  0.00  0.00    -0.334 N 
ATOM     10  C   LIG    1        2.702  -0.027   3.083  0.00  0.00    +0.105 A 
ATOM     11  C   LIG    1        3.717   0.856   3.020  0.00  0.00    +0.101 A 
ATOM     12  N   LIG    1        3.236   2.006   2.524  0.00  0.00    -0.352 N 
ATOM     13  H   LIG    1        3.754   2.812   2.372  0.00  0.00    +0.166 HD
ATOM     14  C   LIG    1        1.963   1.867   2.272  0.00  0.00    +0.174 A 
ENDBRANCH   8   9
ENDBRANCH   7   8
TORSDOF 2
