REMARK  Name = ZINC00009851
REMARK                            x       y       z     vdW  Elec       q    Type
REMARK                         _______ _______ _______ _____ _____    ______ ____
ROOT
ATOM      1  C   LIG    1        3.515   3.362   0.006  0.00  0.00    +0.162 A 
ATOM      2  C   LIG    1        3.538   1.996  -0.003  0.00  0.00    +0.062 A 
ATOM      3  C   LIG    1        2.344   1.283  -0.165  0.00  0.00    +0.044 A 
ATOM      4  C   LIG    1        1.121   1.981  -0.320  0.00  0.00    +0.080 A 
ATOM      5  N   LIG    1       -0.010   1.273  -0.473  0.00  0.00    -0.235 NA
ATOM      6  C   LIG    1        0.022  -0.038  -0.480  0.00  0.00    +0.223 A 
ATOM      7  N   LIG    1        1.140  -0.732  -0.339  0.00  0.00    -0.220 NA
ATOM      8  C   LIG    1        1.120   3.381  -0.308  0.00  0.00    +0.078 A 
ATOM      9  C   LIG    1        2.313  -0.132  -0.181  0.00  0.00    +0.134 A 
ATOM     10  C   LIG    1        2.309   4.059  -0.147  0.00  0.00    +0.164 A 
ENDROOT
BRANCH   1  12
ATOM     11  C   LIG    1        5.872   3.286   0.314  0.00  0.00    +0.277 C 
ATOM     12  O   LIG    1        4.676   4.053   0.164  0.00  0.00    -0.491 OA
ENDBRANCH   1  12
BRANCH   9  13
ATOM     13  N   LIG    1        3.472  -0.868  -0.036  0.00  0.00    -0.299 N 
ATOM     14  H   LIG    1        4.331  -0.418  -0.002  0.00  0.00    +0.154 HD
BRANCH  13  15
ATOM     15  C   LIG    1        3.407  -2.263   0.062  0.00  0.00    +0.033 A 
ATOM     16  C   LIG    1        2.320  -2.866   0.680  0.00  0.00    +0.027 A 
ATOM     17  C   LIG    1        2.254  -4.242   0.772  0.00  0.00    +0.047 A 
ATOM     18  C   LIG    1        3.279  -5.022   0.257  0.00  0.00    +0.117 A 
ATOM     19  C   LIG    1        4.369  -4.420  -0.356  0.00  0.00    +0.047 A 
ATOM     20  C   LIG    1        4.433  -3.044  -0.454  0.00  0.00    +0.027 A 
BRANCH  18  21
ATOM     21  O   LIG    1        3.217  -6.377   0.352  0.00  0.00    -0.507 OA
ATOM     22  H   LIG    1        3.616  -6.733   1.158  0.00  0.00    +0.292 HD
ENDBRANCH  18  21
ENDBRANCH  13  15
ENDBRANCH   9  13
BRANCH  10  23
ATOM     23  O   LIG    1        2.311   5.417  -0.135  0.00  0.00    -0.491 OA
ATOM     24  C   LIG    1        1.050   6.069  -0.295  0.00  0.00    +0.277 C 
ENDBRANCH  10  23
TORSDOF 5
