REMARK  Name = ZINC21982951
REMARK                            x       y       z     vdW  Elec       q    Type
REMARK                         _______ _______ _______ _____ _____    ______ ____
ROOT
ATOM      1  N   LIG    1        0.456   2.670   7.756  0.00  0.00    -0.279 N 
ATOM      2  H   LIG    1        0.432   1.933   7.126  0.00  0.00    +0.155 HD
ENDROOT
BRANCH   1   3
ATOM      3  C   LIG    1        0.249   2.434   9.109  0.00  0.00    +0.130 A 
ATOM      4  N   LIG    1        0.390   3.418   9.996  0.00  0.00    -0.217 NA
ATOM      5  C   LIG    1        0.190   3.205  11.280  0.00  0.00    +0.130 A 
ATOM      6  C   LIG    1        0.355   4.350  12.246  0.00  0.00    +0.088 C 
ATOM      7  N   LIG    1       -0.145   2.019  11.745  0.00  0.00    -0.218 NA
ATOM      8  C   LIG    1       -0.300   0.982  10.924  0.00  0.00    +0.127 A 
ATOM      9  C   LIG    1       -0.104   1.166   9.559  0.00  0.00    +0.087 A 
BRANCH   8  10
ATOM     10  N   LIG    1       -0.653  -0.263  11.422  0.00  0.00    -0.313 N 
ATOM     11  C   LIG    1       -1.069  -0.425  12.824  0.00  0.00    +0.122 C 
ATOM     12  C   LIG    1       -2.399  -1.186  12.852  0.00  0.00    +0.103 C 
ATOM     13  N   LIG    1       -2.260  -2.438  12.097  0.00  0.00    -0.297 NA
ATOM     14  C   LIG    1       -1.969  -2.176  10.680  0.00  0.00    +0.103 C 
ATOM     15  C   LIG    1       -0.627  -1.455  10.562  0.00  0.00    +0.122 C 
BRANCH  13  16
ATOM     16  C   LIG    1       -3.457  -3.277  12.242  0.00  0.00    +0.112 C 
BRANCH  16  17
ATOM     17  C   LIG    1       -3.181  -4.664  11.657  0.00  0.00    +0.171 C 
BRANCH  17  18
ATOM     18  O   LIG    1       -2.168  -5.313  12.428  0.00  0.00    -0.394 OA
ATOM     19  H   LIG    1       -1.943  -6.199  12.113  0.00  0.00    +0.209 HD
ENDBRANCH  17  18
ENDBRANCH  16  17
ENDBRANCH  13  16
ENDBRANCH   8  10
ENDBRANCH   1   3
BRANCH   1  23
ATOM     20  C   LIG    1        1.138   6.218   6.069  0.00  0.00    +0.095 A 
ATOM     21  C   LIG    1        1.081   6.211   7.456  0.00  0.00    +0.133 A 
ATOM     22  N   LIG    1        0.857   5.053   8.023  0.00  0.00    -0.232 NA
ATOM     23  C   LIG    1        0.697   3.954   7.308  0.00  0.00    +0.164 A 
ATOM     24  S   LIG    1        0.847   4.491   5.720  0.00  0.00    -0.047 S 
BRANCH  20  27
ATOM     25  N   LIG    1        1.378   7.114   3.819  0.00  0.00    -0.280 N 
ATOM     26  H   LIG    1        1.155   6.238   3.468  0.00  0.00    +0.155 HD
ATOM     27  C   LIG    1        1.368   7.331   5.149  0.00  0.00    +0.256 C 
ATOM     28  O   LIG    1        1.549   8.453   5.585  0.00  0.00    -0.269 OA
BRANCH  25  36
ATOM     29  C   LIG    1        3.411   6.642   1.885  0.00  0.00    +0.046 C 
ATOM     30  C   LIG    1        2.698   7.966   1.984  0.00  0.00    -0.028 A 
ATOM     31  C   LIG    1        3.020   8.992   1.118  0.00  0.00    +0.005 A 
ATOM     32  C   LIG    1        2.367  10.207   1.208  0.00  0.00    +0.002 A 
ATOM     33  C   LIG    1        1.389  10.400   2.166  0.00  0.00    +0.022 A 
ATOM     34  C   LIG    1        1.061   9.379   3.037  0.00  0.00    +0.062 A 
ATOM     35 CL   LIG    1       -0.167   9.621   4.239  0.00  0.00    -0.082 Cl
ATOM     36  C   LIG    1        1.712   8.154   2.944  0.00  0.00    +0.055 A 
ENDBRANCH  25  36
ENDBRANCH  20  27
ENDBRANCH   1  23
TORSDOF 8
