REMARK  Name = ZINC16952677
REMARK                            x       y       z     vdW  Elec       q    Type
REMARK                         _______ _______ _______ _____ _____    ______ ____
ROOT
ATOM      1  C   LIG    1        2.092   1.158   1.263  0.00  0.00    +0.011 C 
ATOM      2  C   LIG    1        2.845   2.443   1.686  0.00  0.00    -0.076 C 
ATOM      3  N   LIG    1        2.519   3.407   0.617  0.00  0.00    +0.387 N 
ATOM      4  H   LIG    1        3.191   3.290  -0.151  0.00  0.00    -0.081 HD
ATOM      5  C   LIG    1        1.187   3.090   0.154  0.00  0.00    -0.008 C 
ATOM      6  C   LIG    1        0.996   3.819  -1.171  0.00  0.00    +0.134 C 
ATOM      7  C   LIG    1        1.042   5.327  -0.882  0.00  0.00    +0.168 C 
ATOM      8  C   LIG    1        2.349   5.701  -0.184  0.00  0.00    +0.129 C 
ATOM      9  C   LIG    1        2.559   4.840   1.071  0.00  0.00    -0.044 C 
ATOM     10  C   LIG    1        1.286   1.562  -0.002  0.00  0.00    +0.102 C 
ENDROOT
BRANCH   6  11
ATOM     11  O   LIG    1       -0.269   3.472  -1.738  0.00  0.00    -0.391 OA
ATOM     12  H   LIG    1       -0.465   3.925  -2.570  0.00  0.00    +0.210 HD
ENDBRANCH   6  11
BRANCH   7  13
ATOM     13  O   LIG    1        0.943   6.045  -2.113  0.00  0.00    -0.387 OA
ATOM     14  H   LIG    1        0.948   7.007  -2.009  0.00  0.00    +0.210 HD
ENDBRANCH   7  13
BRANCH   8  15
ATOM     15  O   LIG    1        2.304   7.079   0.192  0.00  0.00    -0.391 OA
ATOM     16  H   LIG    1        3.108   7.395   0.626  0.00  0.00    +0.210 HD
ENDBRANCH   8  15
BRANCH  10  17
ATOM     17  O   LIG    1       -0.011   0.963   0.007  0.00  0.00    -0.393 OA
ATOM     18  H   LIG    1        0.002  -0.004   0.002  0.00  0.00    +0.210 HD
ENDBRANCH  10  17
TORSDOF 4
