REMARK  Name = ZINC16052821
REMARK                            x       y       z     vdW  Elec       q    Type
REMARK                         _______ _______ _______ _____ _____    ______ ____
ROOT
ATOM      1  C   LIG    1        1.022   1.433   1.324  0.00  0.00    +0.002 A 
ATOM      2  C   LIG    1        2.358   1.757   1.160  0.00  0.00    +0.002 A 
ATOM      3  C   LIG    1        3.249   0.816   0.685  0.00  0.00    +0.028 A 
ATOM      4  C   LIG    1        2.805  -0.460   0.371  0.00  0.00    +0.068 A 
ATOM      5  C   LIG    1        1.458  -0.787   0.537  0.00  0.00    +0.066 A 
ATOM      6  N   LIG    1        1.306  -2.115   0.149  0.00  0.00    -0.326 N 
ATOM      7  C   LIG    1        2.521  -2.585  -0.242  0.00  0.00    +0.201 A 
ATOM      8  N   LIG    1        2.766  -3.816  -0.678  0.00  0.00    -0.142 NA
ATOM      9  H   LIG    1        0.477  -2.618   0.156  0.00  0.00    +0.169 HD
ATOM     10  N   LIG    1        3.446  -1.596  -0.115  0.00  0.00    -0.314 N 
ATOM     11  C   LIG    1        0.570   0.166   1.015  0.00  0.00    +0.028 A 
ENDROOT
BRANCH   8  12
ATOM     12  C   LIG    1        4.024  -4.205  -0.909  0.00  0.00    +0.270 C 
ATOM     13  O   LIG    1        4.508  -4.076  -2.020  0.00  0.00    -0.268 OA
BRANCH  12  14
ATOM     14  C   LIG    1        4.829  -4.795   0.185  0.00  0.00    +0.041 A 
ATOM     15  C   LIG    1        4.276  -4.950   1.456  0.00  0.00    +0.013 A 
ATOM     16  C   LIG    1        5.031  -5.500   2.472  0.00  0.00    +0.003 A 
ATOM     17  C   LIG    1        6.335  -5.897   2.231  0.00  0.00    +0.032 A 
ATOM     18  C   LIG    1        6.889  -5.746   0.973  0.00  0.00    +0.122 A 
ATOM     19  C   LIG    1        6.142  -5.202  -0.052  0.00  0.00    +0.045 A 
BRANCH  18  20
ATOM     20  N   LIG    1        8.284  -6.173   0.724  0.00  0.00    +0.006 N 
ATOM     21  O   LIG    1        8.938  -6.654   1.620  0.00  0.00    -0.130 OA
BRANCH  20  22
ATOM     22  O   LIG    1        8.770  -6.041  -0.376  0.00  0.00    -0.396 OA
ATOM     23  H   LIG    1        8.263  -5.668  -1.070  0.00  0.00    +0.329 HD
ENDBRANCH  20  22
ENDBRANCH  18  20
ENDBRANCH  12  14
ENDBRANCH   8  12
BRANCH  10  24
ATOM     24  C   LIG    1        4.871  -1.706  -0.435  0.00  0.00    +0.106 C 
BRANCH  24  25
ATOM     25  C   LIG    1        5.093  -1.352  -1.907  0.00  0.00    -0.057 C 
BRANCH  25  26
ATOM     26  N   LIG    1        6.524  -1.446  -2.223  0.00  0.00    +0.384 N 
ATOM     27  H   LIG    1        6.870  -2.354  -1.949  0.00  0.00    -0.082 HD
ATOM     28  C   LIG    1        7.257  -0.402  -1.494  0.00  0.00    -0.050 C 
ATOM     29  C   LIG    1        8.748  -0.502  -1.825  0.00  0.00    +0.141 C 
ATOM     30  O   LIG    1        8.926  -0.380  -3.238  0.00  0.00    -0.383 OA
ATOM     31  C   LIG    1        8.212  -1.361  -3.994  0.00  0.00    +0.141 C 
ATOM     32  C   LIG    1        6.720  -1.263  -3.667  0.00  0.00    -0.050 C 
ENDBRANCH  25  26
ENDBRANCH  24  25
ENDBRANCH  10  24
TORSDOF 7
