REMARK  Name = ZINC30691754
REMARK                            x       y       z     vdW  Elec       q    Type
REMARK                         _______ _______ _______ _____ _____    ______ ____
ROOT
ATOM      1  C   LIG    1        4.542   5.058   3.291  0.00  0.00    +0.046 A 
ATOM      2  C   LIG    1        5.740   5.236   2.612  0.00  0.00    +0.027 A 
ATOM      3  C   LIG    1        6.857   4.515   2.979  0.00  0.00    +0.047 A 
ATOM      4  C   LIG    1        6.795   3.610   4.032  0.00  0.00    +0.121 A 
ATOM      5  C   LIG    1        5.612   3.424   4.721  0.00  0.00    +0.060 A 
ATOM      6  C   LIG    1        4.474   4.150   4.358  0.00  0.00    +0.062 A 
ENDROOT
BRANCH   1   8
ATOM      7  C   LIG    1        3.536   7.056   2.497  0.00  0.00    +0.248 C 
ATOM      8  N   LIG    1        3.411   5.782   2.917  0.00  0.00    -0.281 N 
ATOM      9  H   LIG    1        2.417   5.313   2.964  0.00  0.00    +0.155 HD
ATOM     10  O   LIG    1        4.640   7.543   2.351  0.00  0.00    -0.270 OA
BRANCH   7  14
ATOM     11  C   LIG    1        0.067   9.375   1.679  0.00  0.00    +0.061 A 
ATOM     12  C   LIG    1        1.334   9.934   1.512  0.00  0.00    +0.016 A 
ATOM     13  C   LIG    1        2.458   9.183   1.777  0.00  0.00    +0.014 A 
ATOM     14  C   LIG    1        2.330   7.862   2.212  0.00  0.00    +0.037 A 
ATOM     15  C   LIG    1        1.061   7.302   2.374  0.00  0.00    +0.014 A 
ATOM     16  C   LIG    1       -0.063   8.056   2.115  0.00  0.00    +0.016 A 
BRANCH  11  17
ATOM     17  C   LIG    1       -1.142  10.183   1.395  0.00  0.00    +0.270 C 
ATOM     18  N   LIG    1       -1.102  11.478   1.513  0.00  0.00    -0.288 N 
ATOM     19  H   LIG    1       -1.999  12.078   1.302  0.00  0.00    +0.301 HD
ATOM     20  H   LIG    1       -0.170  11.973   1.825  0.00  0.00    +0.301 HD
BRANCH  17  22
ATOM     21  C   LIG    1       -3.586  10.274   1.106  0.00  0.00    +0.276 C 
ATOM     22  N   LIG    1       -2.309   9.562   1.004  0.00  0.00    -0.229 N 
ATOM     23  C   LIG    1       -2.273   8.192   0.488  0.00  0.00    +0.276 C 
ENDBRANCH  17  22
ENDBRANCH  11  17
ENDBRANCH   7  14
ENDBRANCH   1   8
BRANCH   6  24
ATOM     24  C   LIG    1        3.208   3.957   5.089  0.00  0.00    +0.251 C 
ATOM     25  N   LIG    1        3.169   3.155   6.171  0.00  0.00    -0.266 N 
ATOM     26  H   LIG    1        4.097   2.707   6.557  0.00  0.00    +0.157 HD
ATOM     27  O   LIG    1        2.198   4.522   4.715  0.00  0.00    -0.270 OA
BRANCH  25  28
ATOM     28  C   LIG    1        1.954   2.894   6.803  0.00  0.00    +0.125 A 
ATOM     29  C   LIG    1        1.905   1.981   7.850  0.00  0.00    +0.045 A 
ATOM     30  C   LIG    1        0.693   1.731   8.469  0.00  0.00    +0.025 A 
ATOM     31  C   LIG    1       -0.434   2.407   8.016  0.00  0.00    +0.059 A 
ATOM     32 CL   LIG    1       -1.979   2.130   8.756  0.00  0.00    -0.082 Cl
ATOM     33  C   LIG    1       -0.311   3.301   6.969  0.00  0.00    +0.132 A 
ATOM     34  N   LIG    1        0.859   3.518   6.399  0.00  0.00    -0.239 NA
ENDBRANCH  25  28
ENDBRANCH   6  24
BRANCH   4  35
ATOM     35  O   LIG    1        7.903   2.904   4.385  0.00  0.00    -0.495 OA
ATOM     36  C   LIG    1        9.093   3.144   3.631  0.00  0.00    +0.277 C 
ENDBRANCH   4  35
TORSDOF 7
