REMARK  Name = ZINC40428795
REMARK                            x       y       z     vdW  Elec       q    Type
REMARK                         _______ _______ _______ _____ _____    ______ ____
ROOT
ATOM      1  N   LIG    1        0.598  -0.459   0.795  0.00  0.00    -0.334 N 
ATOM      2  C   LIG    1        0.117  -1.105   1.912  0.00  0.00    +0.050 A 
ATOM      3  C   LIG    1       -1.061  -1.798   2.175  0.00  0.00    +0.030 A 
ATOM      4  C   LIG    1       -1.272  -2.352   3.416  0.00  0.00    +0.048 A 
ATOM      5  C   LIG    1       -0.313  -2.228   4.421  0.00  0.00    +0.122 A 
ATOM      6  C   LIG    1        0.861  -1.546   4.182  0.00  0.00    +0.055 A 
ATOM      7  C   LIG    1        1.089  -0.977   2.922  0.00  0.00    +0.004 A 
ATOM      8  C   LIG    1        2.162  -0.234   2.373  0.00  0.00    +0.041 A 
ATOM      9  C   LIG    1        1.844   0.062   1.085  0.00  0.00    +0.106 A 
ENDROOT
BRANCH   9  10
ATOM     10  C   LIG    1        2.690   0.819   0.150  0.00  0.00    +0.263 C 
ATOM     11  N   LIG    1        4.015   0.926   0.376  0.00  0.00    -0.296 N 
ATOM     12  C   LIG    1        4.650   0.182   1.472  0.00  0.00    +0.114 C 
ATOM     13  C   LIG    1        5.821  -0.626   0.905  0.00  0.00    +0.094 C 
ATOM     14  C   LIG    1        6.766   0.312   0.152  0.00  0.00    +0.252 C 
ATOM     15  F   LIG    1        7.228   1.306   1.022  0.00  0.00    -0.206 F 
ATOM     16  F   LIG    1        7.854  -0.418  -0.340  0.00  0.00    -0.206 F 
ATOM     17  C   LIG    1        6.019   0.963  -1.015  0.00  0.00    +0.094 C 
ATOM     18  C   LIG    1        4.851   1.785  -0.473  0.00  0.00    +0.114 C 
ATOM     19  O   LIG    1        2.195   1.348  -0.826  0.00  0.00    -0.268 OA
ENDBRANCH   9  10
BRANCH   1  21
ATOM     20  C   LIG    1       -0.450   1.118  -0.753  0.00  0.00    +0.030 C 
ATOM     21  C   LIG    1       -0.095  -0.347  -0.490  0.00  0.00    +0.082 C 
ATOM     22  C   LIG    1        0.816  -0.859  -1.608  0.00  0.00    +0.030 C 
ENDBRANCH   1  21
BRANCH   5  23
ATOM     23  O   LIG    1       -0.538  -2.781   5.643  0.00  0.00    -0.489 OA
BRANCH  23  24
ATOM     24  C   LIG    1       -1.800  -3.420   5.843  0.00  0.00    +0.170 C 
ATOM     25  C   LIG    1       -2.853  -2.371   6.211  0.00  0.00    +0.026 C 
ATOM     26  C   LIG    1       -4.183  -3.071   6.502  0.00  0.00    -0.075 C 
ATOM     27  N   LIG    1       -4.013  -4.009   7.618  0.00  0.00    +0.381 N 
ATOM     28  H   LIG    1       -3.666  -3.511   8.424  0.00  0.00    -0.081 HD
ATOM     29  C   LIG    1       -3.057  -5.059   7.245  0.00  0.00    -0.075 C 
ATOM     30  C   LIG    1       -1.685  -4.436   6.983  0.00  0.00    +0.026 C 
BRANCH  27  31
ATOM     31  C   LIG    1       -5.308  -4.621   7.943  0.00  0.00    -0.075 C 
ATOM     32  C   LIG    1       -6.302  -3.528   8.341  0.00  0.00    -0.014 C 
ATOM     33  C   LIG    1       -5.132  -5.599   9.107  0.00  0.00    -0.014 C 
ENDBRANCH  27  31
ENDBRANCH  23  24
ENDBRANCH   5  23
TORSDOF 5
