REMARK  Name = ZINC17782150
REMARK                            x       y       z     vdW  Elec       q    Type
REMARK                         _______ _______ _______ _____ _____    ______ ____
ROOT
ATOM      1  C   LIG    1       -2.326  -2.679  -0.193  0.00  0.00    +0.128 A 
ATOM      2  C   LIG    1       -2.491  -4.039  -0.014  0.00  0.00    +0.136 A 
ATOM      3  N   LIG    1       -3.809  -4.312  -0.198  0.00  0.00    -0.261 N 
ATOM      4  N   LIG    1       -4.468  -3.113  -0.492  0.00  0.00    -0.156 NA
ATOM      5  H   LIG    1       -4.223  -5.188  -0.135  0.00  0.00    +0.190 HD
ATOM      6  C   LIG    1       -3.595  -2.136  -0.485  0.00  0.00    +0.163 A 
ENDROOT
BRANCH   2   7
ATOM      7  N   LIG    1       -1.496  -4.957   0.294  0.00  0.00    -0.342 N 
ATOM      8  H   LIG    1       -1.716  -5.896   0.399  0.00  0.00    +0.144 HD
ATOM      9  H   LIG    1       -0.579  -4.659   0.405  0.00  0.00    +0.144 HD
ENDBRANCH   2   7
BRANCH   6  10
ATOM     10  N   LIG    1       -3.872  -0.787  -0.729  0.00  0.00    -0.340 N 
ATOM     11  H   LIG    1       -4.780  -0.506  -0.923  0.00  0.00    +0.144 HD
ATOM     12  H   LIG    1       -3.156  -0.133  -0.704  0.00  0.00    +0.144 HD
ENDBRANCH   6  10
BRANCH   1  13
ATOM     13  N   LIG    1       -1.128  -1.974  -0.095  0.00  0.00    -0.231 N 
ATOM     14  H   LIG    1       -0.283  -2.449  -0.106  0.00  0.00    +0.175 HD
BRANCH  13  22
ATOM     15  C   LIG    1       -0.017   1.408  -0.004  0.00  0.00    +0.033 C 
ATOM     16  C   LIG    1        1.149   2.102  -0.013  0.00  0.00    +0.053 C 
ATOM     17  C   LIG    1        2.378   1.415  -0.019  0.00  0.00    +0.179 C 
ATOM     18  C   LIG    1        2.400   0.007  -0.015  0.00  0.00    +0.053 C 
ATOM     19  C   LIG    1        1.236  -0.691  -0.005  0.00  0.00    +0.033 C 
ATOM     20  O   LIG    1        3.429   2.042  -0.028  0.00  0.00    -0.288 OA
ATOM     21  C   LIG    1        0.002  -0.004   0.000  0.00  0.00    +0.082 C 
ATOM     22  N   LIG    1       -1.144  -0.688   0.009  0.00  0.00    -0.182 NA
ENDBRANCH  13  22
ENDBRANCH   1  13
TORSDOF 4
