REMARK  Name = ZINC22795012
REMARK                            x       y       z     vdW  Elec       q    Type
REMARK                         _______ _______ _______ _____ _____    ______ ____
ROOT
ATOM      1  N   LIG    1        2.756  -0.627   0.739  0.00  0.00    -0.328 N 
ATOM      2  C   LIG    1        1.772  -1.546   0.495  0.00  0.00    +0.097 A 
ATOM      3  C   LIG    1        0.557  -0.967   0.662  0.00  0.00    +0.012 A 
ATOM      4  C   LIG    1        0.809   0.429   1.042  0.00  0.00    +0.066 A 
ATOM      5  C   LIG    1        0.004   1.533   1.354  0.00  0.00    +0.129 A 
ATOM      6  N   LIG    1        0.600   2.682   1.660  0.00  0.00    -0.220 NA
ATOM      7  C   LIG    1        1.916   2.783   1.678  0.00  0.00    +0.225 A 
ATOM      8  N   LIG    1        2.710   1.772   1.395  0.00  0.00    -0.218 NA
ATOM      9  C   LIG    1        2.206   0.581   1.073  0.00  0.00    +0.147 A 
ENDROOT
BRANCH   1  13
ATOM     10  C   LIG    1        6.416  -2.734   0.135  0.00  0.00    -0.068 C 
ATOM     11  C   LIG    1        6.065  -2.287   1.555  0.00  0.00    -0.013 C 
ATOM     12  C   LIG    1        4.564  -2.004   1.643  0.00  0.00    +0.023 C 
ATOM     13  C   LIG    1        4.194  -0.897   0.654  0.00  0.00    +0.089 C 
ATOM     14  C   LIG    1        4.545  -1.345  -0.766  0.00  0.00    +0.023 C 
ATOM     15  C   LIG    1        6.046  -1.628  -0.855  0.00  0.00    -0.013 C 
BRANCH  10  20
ATOM     16  C   LIG    1       11.928  -2.957  -1.079  0.00  0.00    +0.104 C 
ATOM     17  N   LIG    1       10.487  -2.685  -0.994  0.00  0.00    -0.309 NA
ATOM     18  C   LIG    1        9.705  -3.894  -1.289  0.00  0.00    +0.065 C 
ATOM     19  C   LIG    1        8.214  -3.552  -1.268  0.00  0.00    -0.063 C 
ATOM     20  N   LIG    1        7.857  -3.006   0.049  0.00  0.00    +0.383 N 
ATOM     21  H   LIG    1        8.103  -3.763   0.808  0.00  0.00    -0.081 HD
ATOM     22  C   LIG    1        8.639  -1.797   0.344  0.00  0.00    -0.063 C 
ATOM     23  C   LIG    1       10.131  -2.139   0.323  0.00  0.00    +0.065 C 
ENDBRANCH  10  20
ENDBRANCH   1  13
BRANCH   3  24
ATOM     24  C   LIG    1       -0.765  -1.615   0.494  0.00  0.00    -0.015 A 
ATOM     25  C   LIG    1       -1.731  -1.503   1.494  0.00  0.00    +0.012 A 
ATOM     26  C   LIG    1       -2.962  -2.103   1.332  0.00  0.00    +0.047 A 
ATOM     27  C   LIG    1       -3.237  -2.828   0.180  0.00  0.00    +0.128 A 
ATOM     28  C   LIG    1       -2.276  -2.946  -0.815  0.00  0.00    +0.047 A 
ATOM     29  C   LIG    1       -1.044  -2.344  -0.662  0.00  0.00    +0.012 A 
BRANCH  27  30
ATOM     30  O   LIG    1       -4.449  -3.422   0.026  0.00  0.00    -0.456 OA
BRANCH  30  31
ATOM     31  C   LIG    1       -5.365  -3.270   1.018  0.00  0.00    +0.128 A 
ATOM     32  C   LIG    1       -5.420  -4.186   2.060  0.00  0.00    +0.046 A 
ATOM     33  C   LIG    1       -6.348  -4.026   3.070  0.00  0.00    +0.004 A 
ATOM     34  C   LIG    1       -7.230  -2.961   3.038  0.00  0.00    +0.000 A 
ATOM     35  C   LIG    1       -7.181  -2.050   1.999  0.00  0.00    +0.004 A 
ATOM     36  C   LIG    1       -6.250  -2.202   0.989  0.00  0.00    +0.046 A 
ENDBRANCH  30  31
ENDBRANCH  27  30
ENDBRANCH   3  24
BRANCH   5  37
ATOM     37  N   LIG    1       -1.375   1.430   1.343  0.00  0.00    -0.343 N 
ATOM     38  H   LIG    1       -1.853   0.473   1.086  0.00  0.00    +0.144 HD
ATOM     39  H   LIG    1       -1.994   2.305   1.590  0.00  0.00    +0.144 HD
ENDBRANCH   5  37
TORSDOF 6
