REMARK  Name = ZINC27631794
REMARK                            x       y       z     vdW  Elec       q    Type
REMARK                         _______ _______ _______ _____ _____    ______ ____
ROOT
ATOM      1  C   LIG    1        0.067  -5.295  -0.673  0.00  0.00    +0.084 A 
ATOM      2  C   LIG    1        0.083  -6.580  -0.207  0.00  0.00    +0.078 A 
ATOM      3  S   LIG    1        0.091  -7.493  -1.744  0.00  0.00    -0.038 S 
ATOM      4  C   LIG    1        0.073  -6.083  -2.842  0.00  0.00    +0.272 A 
ATOM      5  N   LIG    1        0.057  -5.076  -1.978  0.00  0.00    -0.206 NA
ENDROOT
BRANCH   1  15
ATOM      6  C   LIG    1       -0.030   1.545  -0.058  0.00  0.00    +0.044 C 
ATOM      7  C   LIG    1       -0.008   0.038  -0.053  0.00  0.00    -0.048 A 
ATOM      8  C   LIG    1       -0.003  -0.653  -1.256  0.00  0.00    +0.004 A 
ATOM      9  C   LIG    1        0.017  -2.020  -1.271  0.00  0.00    +0.011 A 
ATOM     10  C   LIG    1        0.032  -2.725  -0.068  0.00  0.00    +0.009 A 
ATOM     11  C   LIG    1        0.027  -2.031   1.154  0.00  0.00    +0.047 A 
ATOM     12  N   LIG    1        0.046  -2.970   2.162  0.00  0.00    -0.360 N 
ATOM     13  C   LIG    1        0.062  -4.231   1.629  0.00  0.00    +0.093 A 
ATOM     14  H   LIG    1        0.046  -2.768   3.110  0.00  0.00    +0.165 HD
ATOM     15  C   LIG    1        0.055  -4.156   0.277  0.00  0.00    +0.026 A 
ATOM     16  C   LIG    1        0.012  -0.639   1.147  0.00  0.00    +0.029 A 
ENDBRANCH   1  15
BRANCH   4  17
ATOM     17  N   LIG    1        0.071  -6.051  -4.201  0.00  0.00    -0.045 NA
ATOM     18  C   LIG    1        1.204  -5.917  -4.858  0.00  0.00    +0.384 C 
BRANCH  18  19
ATOM     19  N   LIG    1        1.193  -5.774  -6.221  0.00  0.00    -0.289 N 
ATOM     20  H   LIG    1        2.028  -5.675  -6.705  0.00  0.00    +0.255 HD
ATOM     21  H   LIG    1        0.350  -5.771  -6.702  0.00  0.00    +0.255 HD
ENDBRANCH  18  19
BRANCH  18  22
ATOM     22  N   LIG    1        2.394  -5.920  -4.179  0.00  0.00    -0.289 N 
ATOM     23  H   LIG    1        3.223  -5.746  -4.652  0.00  0.00    +0.255 HD
ATOM     24  H   LIG    1        2.408  -6.097  -3.225  0.00  0.00    +0.255 HD
ENDBRANCH  18  22
ENDBRANCH   4  17
TORSDOF 4
