REMARK  Name = ZINC36237978
REMARK                            x       y       z     vdW  Elec       q    Type
REMARK                         _______ _______ _______ _____ _____    ______ ____
ROOT
ATOM      1  C   LIG    1        4.171  -0.963   1.399  0.00  0.00    -0.010 C 
ATOM      2  C   LIG    1        3.192  -1.919   2.088  0.00  0.00    -0.015 C 
ATOM      3  C   LIG    1        3.701  -2.233   3.496  0.00  0.00    -0.079 C 
ATOM      4  N   LIG    1        5.024  -2.862   3.413  0.00  0.00    +0.380 N 
ATOM      5  H   LIG    1        4.967  -3.691   2.841  0.00  0.00    -0.082 HD
ATOM      6  C   LIG    1        5.985  -1.925   2.819  0.00  0.00    -0.079 C 
ATOM      7  C   LIG    1        5.565  -1.599   1.385  0.00  0.00    -0.015 C 
ENDROOT
BRANCH   1   8
ATOM      8  C   LIG    1        3.711  -0.707  -0.038  0.00  0.00    +0.038 C 
BRANCH   8  12
ATOM      9  C   LIG    1       -0.017   1.378   0.010  0.00  0.00    +0.000 A 
ATOM     10  C   LIG    1        1.171   2.086   0.002  0.00  0.00    +0.000 A 
ATOM     11  C   LIG    1        2.377   1.411  -0.013  0.00  0.00    +0.003 A 
ATOM     12  C   LIG    1        2.396   0.029  -0.020  0.00  0.00    -0.047 A 
ATOM     13  C   LIG    1        1.208  -0.679  -0.012  0.00  0.00    +0.003 A 
ATOM     14  C   LIG    1        0.002  -0.004   0.002  0.00  0.00    +0.000 A 
ENDBRANCH   8  12
ENDBRANCH   1   8
BRANCH   4  15
ATOM     15  C   LIG    1        5.474  -3.233   4.762  0.00  0.00    -0.081 C 
BRANCH  15  16
ATOM     16  C   LIG    1        6.795  -3.999   4.667  0.00  0.00    -0.037 C 
BRANCH  16  17
ATOM     17  C   LIG    1        7.263  -4.385   6.071  0.00  0.00    -0.081 C 
BRANCH  17  18
ATOM     18  N   LIG    1        8.531  -5.121   5.980  0.00  0.00    +0.380 N 
ATOM     19  H   LIG    1        9.204  -4.568   5.471  0.00  0.00    -0.082 HD
ATOM     20  C   LIG    1        8.310  -6.388   5.273  0.00  0.00    -0.079 C 
ATOM     21  C   LIG    1        9.642  -7.122   5.104  0.00  0.00    -0.019 C 
ATOM     22  C   LIG    1       10.243  -7.403   6.484  0.00  0.00    -0.004 C 
ATOM     23  C   LIG    1       10.400  -6.081   7.240  0.00  0.00    -0.019 C 
ATOM     24  C   LIG    1        9.040  -5.386   7.331  0.00  0.00    -0.079 C 
ENDBRANCH  17  18
ENDBRANCH  16  17
ENDBRANCH  15  16
ENDBRANCH   4  15
TORSDOF 6
