REMARK  Name = ZINC13896758
REMARK                            x       y       z     vdW  Elec       q    Type
REMARK                         _______ _______ _______ _____ _____    ______ ____
ROOT
ATOM      1  C   LIG    1        0.108  -8.676  -1.965  0.00  0.00    +0.059 A 
ATOM      2  C   LIG    1        0.116  -9.219  -0.677  0.00  0.00    +0.017 A 
ATOM      3  C   LIG    1        0.135 -10.586  -0.508  0.00  0.00    +0.025 A 
ATOM      4  C   LIG    1        0.146 -11.425  -1.617  0.00  0.00    +0.044 A 
ATOM      5  C   LIG    1        0.139 -10.888  -2.900  0.00  0.00    +0.025 A 
ATOM      6  C   LIG    1        0.114  -9.523  -3.077  0.00  0.00    +0.017 A 
ENDROOT
BRANCH   4   7
ATOM      7  N   LIG    1        0.166 -12.812  -1.442  0.00  0.00    -0.210 N 
ATOM      8  C   LIG    1        0.169 -13.408  -0.221  0.00  0.00    +0.230 C 
ATOM      9  C   LIG    1       -0.119 -14.859  -0.463  0.00  0.00    +0.092 C 
ATOM     10  C   LIG    1        0.548 -15.881   0.433  0.00  0.00    +0.040 C 
ATOM     11  C   LIG    1        0.375 -17.230  -0.234  0.00  0.00    -0.030 C 
ATOM     12  C   LIG    1        0.077 -17.395  -1.487  0.00  0.00    -0.030 C 
ATOM     13  C   LIG    1       -0.117 -16.264  -2.476  0.00  0.00    +0.040 C 
ATOM     14  C   LIG    1        0.509 -15.030  -1.881  0.00  0.00    +0.092 C 
ATOM     15  O   LIG    1        0.365 -12.874   0.849  0.00  0.00    -0.274 OA
ATOM     16  C   LIG    1        0.178 -13.693  -2.475  0.00  0.00    +0.230 C 
ATOM     17  O   LIG    1       -0.033 -13.448  -3.643  0.00  0.00    -0.274 OA
ENDBRANCH   4   7
BRANCH   1  18
ATOM     18  C   LIG    1        0.088  -7.213  -2.150  0.00  0.00    +0.340 C 
ATOM     19  O   LIG    1        0.076  -6.742  -3.270  0.00  0.00    -0.245 OA
BRANCH  18  20
ATOM     20  O   LIG    1        0.083  -6.398  -1.077  0.00  0.00    -0.453 OA
BRANCH  20  21
ATOM     21  C   LIG    1        0.063  -4.992  -1.331  0.00  0.00    +0.311 C 
BRANCH  21  22
ATOM     22  C   LIG    1        0.059  -4.245  -0.021  0.00  0.00    +0.200 C 
ATOM     23  O   LIG    1        0.072  -4.857   1.025  0.00  0.00    -0.288 OA
BRANCH  22  28
ATOM     24  C   LIG    1       -0.018   1.503   0.010  0.00  0.00    +0.044 C 
ATOM     25  C   LIG    1        0.002  -0.004   0.002  0.00  0.00    -0.047 A 
ATOM     26  C   LIG    1        0.006  -0.686  -1.203  0.00  0.00    +0.004 A 
ATOM     27  C   LIG    1        0.024  -2.064  -1.219  0.00  0.00    +0.012 A 
ATOM     28  C   LIG    1        0.040  -2.774  -0.013  0.00  0.00    +0.021 A 
ATOM     29  C   LIG    1        0.036  -2.078   1.200  0.00  0.00    +0.015 A 
ATOM     30  C   LIG    1        0.023  -0.699   1.199  0.00  0.00    -0.047 A 
ATOM     31  C   LIG    1        0.025   0.054   2.504  0.00  0.00    +0.044 C 
ENDBRANCH  22  28
ENDBRANCH  21  22
ENDBRANCH  20  21
ENDBRANCH  18  20
ENDBRANCH   1  18
TORSDOF 6
