REMARK  Name = ZINC43196550
REMARK                            x       y       z     vdW  Elec       q    Type
REMARK                         _______ _______ _______ _____ _____    ______ ____
ROOT
ATOM      1  C   LIG    1       -0.090   1.458   0.063  0.00  0.00    +0.154 C 
ATOM      2  N   LIG    1       -0.050  -0.007   0.048  0.00  0.00    -0.293 N 
ATOM      3  C   LIG    1       -1.175  -0.709   0.381  0.00  0.00    +0.152 A 
ATOM      4  C   LIG    1       -1.147  -2.110   0.370  0.00  0.00    +0.106 A 
ATOM      5  C   LIG    1       -2.323  -2.821   0.718  0.00  0.00    +0.265 A 
ATOM      6  N   LIG    1       -3.422  -2.105   1.046  0.00  0.00    -0.296 N 
ATOM      7  C   LIG    1       -3.384  -0.752   1.037  0.00  0.00    +0.204 A 
ATOM      8  O   LIG    1       -2.342  -4.040   0.721  0.00  0.00    -0.267 OA
ATOM      9  C   LIG    1        0.088  -2.799   0.000  0.00  0.00    +0.089 A 
ATOM     10  C   LIG    1        1.190  -2.024  -0.326  0.00  0.00    +0.209 A 
ATOM     11  F   LIG    1        2.355  -2.614  -0.674  0.00  0.00    -0.198 F 
ATOM     12  N   LIG    1       -2.310  -0.082   0.720  0.00  0.00    -0.219 NA
ATOM     13  C   LIG    1        1.089  -0.629  -0.298  0.00  0.00    +0.290 A 
ATOM     14  O   LIG    1        2.065   0.042  -0.592  0.00  0.00    -0.264 OA
ENDROOT
BRANCH   9  15
ATOM     15  N   LIG    1        0.155  -4.179  -0.022  0.00  0.00    -0.309 N 
ATOM     16  H   LIG    1        0.727  -4.647   0.606  0.00  0.00    +0.152 HD
BRANCH  15  17
ATOM     17  C   LIG    1       -0.603  -4.901  -0.951  0.00  0.00    +0.067 A 
ATOM     18  C   LIG    1       -1.319  -4.233  -1.935  0.00  0.00    +0.027 A 
ATOM     19  C   LIG    1       -2.066  -4.948  -2.850  0.00  0.00    +0.016 A 
ATOM     20  C   LIG    1       -2.102  -6.330  -2.788  0.00  0.00    +0.016 A 
ATOM     21  I   LIG    1       -3.239  -7.409  -4.178  0.00  0.00    -0.044 I 
ATOM     22  C   LIG    1       -1.391  -7.000  -1.810  0.00  0.00    +0.054 A 
ATOM     23  C   LIG    1       -0.635  -6.291  -0.894  0.00  0.00    +0.145 A 
ATOM     24  F   LIG    1        0.065  -6.946   0.058  0.00  0.00    -0.204 F 
ENDBRANCH  15  17
ENDBRANCH   9  15
BRANCH   6  25
ATOM     25  C   LIG    1       -4.661  -2.797   1.413  0.00  0.00    +0.160 C 
BRANCH  25  26
ATOM     26  C   LIG    1       -4.681  -3.042   2.923  0.00  0.00    +0.160 C 
BRANCH  26  27
ATOM     27  O   LIG    1       -4.731  -1.788   3.607  0.00  0.00    -0.388 OA
ATOM     28  H   LIG    1       -5.509  -1.255   3.394  0.00  0.00    +0.210 HD
ENDBRANCH  26  27
BRANCH  26  29
ATOM     29  C   LIG    1       -5.912  -3.873   3.289  0.00  0.00    +0.188 C 
BRANCH  29  30
ATOM     30  O   LIG    1       -5.870  -4.199   4.679  0.00  0.00    -0.392 OA
ATOM     31  H   LIG    1       -6.621  -4.727   4.982  0.00  0.00    +0.210 HD
ENDBRANCH  29  30
ENDBRANCH  26  29
ENDBRANCH  25  26
ENDBRANCH   6  25
TORSDOF 7
