REMARK  Name = ZINC13800440
REMARK                            x       y       z     vdW  Elec       q    Type
REMARK                         _______ _______ _______ _____ _____    ______ ____
ROOT
ATOM      1  C   LIG    1       -0.019   1.391  -0.017  0.00  0.00    +0.030 A 
ATOM      2  C   LIG    1        1.169   2.095  -0.015  0.00  0.00    +0.026 A 
ATOM      3  C   LIG    1        2.378   1.414  -0.023  0.00  0.00    +0.048 A 
ATOM      4  C   LIG    1        2.390   0.024  -0.034  0.00  0.00    +0.041 A 
ATOM      5 BR   LIG    1        4.034  -0.909  -0.045  0.00  0.00    -0.048 Br
ATOM      6  C   LIG    1        1.198  -0.674  -0.036  0.00  0.00    +0.045 A 
ATOM      7  C   LIG    1       -0.005   0.008  -0.028  0.00  0.00    +0.106 A 
ENDROOT
BRANCH   3   8
ATOM      8  N   LIG    1        3.584   2.125  -0.021  0.00  0.00    -0.286 N 
ATOM      9  H   LIG    1        4.388   1.718  -0.379  0.00  0.00    +0.155 HD
ATOM     10  C   LIG    1        3.627   3.376   0.478  0.00  0.00    +0.200 C 
ATOM     11  O   LIG    1        2.648   3.849   1.016  0.00  0.00    -0.278 OA
BRANCH  10  12
ATOM     12  C   LIG    1        4.892   4.188   0.368  0.00  0.00    +0.011 C 
BRANCH  12  13
ATOM     13  N   LIG    1        4.684   5.506   0.983  0.00  0.00    +0.384 N 
ATOM     14  H   LIG    1        4.443   5.389   1.956  0.00  0.00    -0.089 HD
ATOM     15  H   LIG    1        3.934   5.984   0.506  0.00  0.00    -0.089 HD
ATOM     16  H   LIG    1        5.531   6.049   0.909  0.00  0.00    -0.089 HD
ENDBRANCH  12  13
ENDBRANCH  10  12
ENDBRANCH   3   8
BRANCH   7  17
ATOM     17  S   LIG    1       -1.523  -0.886  -0.031  0.00  0.00    +0.056 S 
ATOM     18  O   LIG    1       -2.504  -0.024   0.529  0.00  0.00    -0.153 OA
ATOM     19  O   LIG    1       -1.239  -2.170   0.510  0.00  0.00    -0.153 OA
BRANCH  17  20
ATOM     20  N   LIG    1       -1.949  -1.123  -1.613  0.00  0.00    -0.204 NA
ATOM     21  H   LIG    1       -2.764  -1.602  -1.830  0.00  0.00    +0.144 HD
ATOM     22  H   LIG    1       -1.383  -0.783  -2.324  0.00  0.00    +0.144 HD
ENDBRANCH  17  20
ENDBRANCH   7  17
TORSDOF 5
