REMARK  Name = ZINC28236642
REMARK                            x       y       z     vdW  Elec       q    Type
REMARK                         _______ _______ _______ _____ _____    ______ ____
ROOT
ATOM      1  C   LIG    1       -0.729   1.579   1.267  0.00  0.00    -0.010 C 
ATOM      2  C   LIG    1       -0.639   3.106   1.341  0.00  0.00    -0.015 C 
ATOM      3  C   LIG    1       -1.302   3.588   2.634  0.00  0.00    -0.078 C 
ATOM      4  N   LIG    1       -0.628   2.982   3.789  0.00  0.00    +0.383 N 
ATOM      5  H   LIG    1        0.440   3.236   3.724  0.00  0.00    -0.081 HD
ATOM      6  C   LIG    1       -0.744   1.518   3.763  0.00  0.00    -0.078 C 
ATOM      7  C   LIG    1       -0.062   0.974   2.505  0.00  0.00    -0.015 C 
ENDROOT
BRANCH   4   8
ATOM      8  C   LIG    1       -1.149   3.529   5.049  0.00  0.00    -0.040 C 
ATOM      9  C   LIG    1       -2.624   3.150   5.198  0.00  0.00    -0.013 C 
ATOM     10  C   LIG    1       -3.166   3.720   6.511  0.00  0.00    -0.001 C 
ATOM     11  C   LIG    1       -3.029   5.244   6.500  0.00  0.00    +0.002 C 
ATOM     12  C   LIG    1       -1.554   5.622   6.351  0.00  0.00    +0.030 C 
ATOM     13  C   LIG    1       -1.012   5.053   5.039  0.00  0.00    +0.101 C 
BRANCH  13  14
ATOM     14  O   LIG    1        0.365   5.407   4.899  0.00  0.00    -0.393 OA
ATOM     15  H   LIG    1        0.661   6.466   4.872  0.00  0.00    +0.210 HD
ENDBRANCH  13  14
ENDBRANCH   4   8
BRANCH   1  16
ATOM     16  C   LIG    1       -0.013   1.086   0.008  0.00  0.00    +0.038 C 
BRANCH  16  20
ATOM     17  C   LIG    1       -2.078   2.501  -3.453  0.00  0.00    +0.000 A 
ATOM     18  C   LIG    1       -1.066   3.259  -2.894  0.00  0.00    +0.000 A 
ATOM     19  C   LIG    1       -0.398   2.801  -1.774  0.00  0.00    +0.003 A 
ATOM     20  C   LIG    1       -0.742   1.585  -1.213  0.00  0.00    -0.047 A 
ATOM     21  C   LIG    1       -1.750   0.825  -1.775  0.00  0.00    +0.003 A 
ATOM     22  C   LIG    1       -2.422   1.285  -2.892  0.00  0.00    +0.000 A 
ENDBRANCH  16  20
ENDBRANCH   1  16
TORSDOF 4
