REMARK  Name = ZINC43129461
REMARK                            x       y       z     vdW  Elec       q    Type
REMARK                         _______ _______ _______ _____ _____    ______ ____
ROOT
ATOM      1  C   LIG    1       -0.459  -5.297   4.411  0.00  0.00    +0.123 A 
ATOM      2  C   LIG    1       -0.992  -6.343   3.653  0.00  0.00    +0.046 A 
ATOM      3  C   LIG    1       -1.019  -7.615   4.139  0.00  0.00    +0.017 A 
ATOM      4  C   LIG    1       -0.507  -7.881   5.415  0.00  0.00    +0.041 A 
ATOM      5  C   LIG    1        0.036  -6.827   6.191  0.00  0.00    +0.079 A 
ATOM      6  N   LIG    1        0.521  -7.109   7.411  0.00  0.00    -0.235 NA
ATOM      7  C   LIG    1        0.492  -8.337   7.871  0.00  0.00    +0.223 A 
ATOM      8  N   LIG    1       -0.005  -9.352   7.183  0.00  0.00    -0.220 NA
ATOM      9  C   LIG    1       -0.510  -9.184   5.967  0.00  0.00    +0.135 A 
ATOM     10  C   LIG    1        0.058  -5.529   5.668  0.00  0.00    +0.074 A 
ENDROOT
BRANCH   9  11
ATOM     11  N   LIG    1       -1.025 -10.251   5.261  0.00  0.00    -0.282 N 
ATOM     12  H   LIG    1       -1.391 -10.114   4.373  0.00  0.00    +0.155 HD
BRANCH  11  13
ATOM     13  C   LIG    1       -1.018 -11.533   5.825  0.00  0.00    +0.146 A 
ATOM     14  C   LIG    1       -0.527 -11.872   7.096  0.00  0.00    +0.068 A 
ATOM     15  C   LIG    1       -0.702 -13.202   7.267  0.00  0.00    +0.047 A 
ATOM     16  N   LIG    1       -1.281 -13.691   6.150  0.00  0.00    -0.279 N 
ATOM     17  H   LIG    1       -1.524 -14.617   5.992  0.00  0.00    +0.189 HD
ATOM     18  N   LIG    1       -1.476 -12.626   5.261  0.00  0.00    -0.158 NA
BRANCH  15  19
ATOM     19  C   LIG    1       -0.318 -13.998   8.488  0.00  0.00    +0.151 C 
BRANCH  19  20
ATOM     20  C   LIG    1       -1.425 -13.920   9.507  0.00  0.00    +0.223 C 
ATOM     21  N   LIG    1       -1.302 -14.560  10.686  0.00  0.00    -0.285 N 
ATOM     22  H   LIG    1       -0.533 -15.129  10.851  0.00  0.00    +0.155 HD
ATOM     23  O   LIG    1       -2.428 -13.282   9.266  0.00  0.00    -0.275 OA
BRANCH  21  24
ATOM     24  C   LIG    1       -2.281 -14.405  11.673  0.00  0.00    +0.036 A 
ATOM     25  C   LIG    1       -1.921 -14.380  13.014  0.00  0.00    +0.023 A 
ATOM     26  C   LIG    1       -2.889 -14.225  13.987  0.00  0.00    +0.005 A 
ATOM     27  C   LIG    1       -4.218 -14.096  13.628  0.00  0.00    +0.038 A 
ATOM     28  C   LIG    1       -4.582 -14.120  12.292  0.00  0.00    +0.125 A 
ATOM     29  F   LIG    1       -5.881 -13.993  11.944  0.00  0.00    -0.205 F 
ATOM     30  C   LIG    1       -3.615 -14.269  11.313  0.00  0.00    +0.061 A 
ENDBRANCH  21  24
ENDBRANCH  19  20
ENDBRANCH  15  19
ENDBRANCH  11  13
ENDBRANCH   9  11
BRANCH   1  31
ATOM     31  O   LIG    1       -0.445  -4.038   3.902  0.00  0.00    -0.492 OA
BRANCH  31  32
ATOM     32  C   LIG    1       -0.995  -3.861   2.595  0.00  0.00    +0.227 C 
BRANCH  32  33
ATOM     33  C   LIG    1       -0.891  -2.388   2.194  0.00  0.00    +0.022 C 
BRANCH  33  34
ATOM     34  C   LIG    1       -1.480  -2.198   0.794  0.00  0.00    -0.075 C 
BRANCH  34  35
ATOM     35  N   LIG    1       -1.381  -0.784   0.409  0.00  0.00    +0.381 N 
ATOM     36  H   LIG    1       -1.823  -0.212   1.113  0.00  0.00    -0.082 HD
BRANCH  35  38
ATOM     37  C   LIG    1        0.141   1.096   0.025  0.00  0.00    -0.017 C 
ATOM     38  C   LIG    1        0.034  -0.407   0.290  0.00  0.00    -0.082 C 
ENDBRANCH  35  38
BRANCH  35  39
ATOM     39  C   LIG    1       -2.052  -0.580  -0.881  0.00  0.00    -0.050 C 
BRANCH  39  40
ATOM     40  C   LIG    1       -3.554  -0.825  -0.719  0.00  0.00    +0.154 C 
BRANCH  40  41
ATOM     41  O   LIG    1       -4.105   0.161   0.156  0.00  0.00    -0.289 OA
BRANCH  41  42
ATOM     42  P   LIG    1       -5.639   0.140   0.645  0.00  0.00    +0.472 P 
ATOM     43  O   LIG    1       -6.585   0.102  -0.604  0.00  0.00    -0.228 OA
BRANCH  42  44
ATOM     44  O   LIG    1       -5.888  -1.130   1.528  0.00  0.00    -0.303 OA
ATOM     45  H   LIG    1       -5.704  -1.927   1.007  0.00  0.00    +0.222 HD
ENDBRANCH  42  44
BRANCH  42  46
ATOM     46  O   LIG    1       -5.937   1.428   1.486  0.00  0.00    -0.303 OA
ATOM     47  H   LIG    1       -5.783   2.214   0.939  0.00  0.00    +0.222 HD
ENDBRANCH  42  46
ENDBRANCH  41  42
ENDBRANCH  40  41
ENDBRANCH  39  40
ENDBRANCH  35  39
ENDBRANCH  34  35
ENDBRANCH  33  34
ENDBRANCH  32  33
ENDBRANCH  31  32
ENDBRANCH   1  31
TORSDOF 17
