REMARK  Name = ZINC14974428
REMARK                            x       y       z     vdW  Elec       q    Type
REMARK                         _______ _______ _______ _____ _____    ______ ____
ROOT
ATOM      1  C   LIG    1       -2.397  -2.651   0.285  0.00  0.00    +0.035 A 
ATOM      2  C   LIG    1       -3.616  -1.982   0.293  0.00  0.00    +0.024 A 
ATOM      3  C   LIG    1       -4.795  -2.695   0.285  0.00  0.00    +0.010 A 
ATOM      4  C   LIG    1       -4.766  -4.090   0.280  0.00  0.00    -0.018 A 
ATOM      5  C   LIG    1       -3.541  -4.759   0.277  0.00  0.00    +0.010 A 
ATOM      6  C   LIG    1       -2.365  -4.041   0.280  0.00  0.00    +0.024 A 
ENDROOT
BRANCH   1  10
ATOM      7  N   LIG    1        0.053  -0.102  -0.449  0.00  0.00    -0.269 N 
ATOM      8  H   LIG    1        0.854  -0.499  -0.072  0.00  0.00    +0.156 HD
ATOM      9  C   LIG    1       -1.122  -0.758  -0.380  0.00  0.00    +0.308 C 
ATOM     10  N   LIG    1       -1.203  -1.926   0.289  0.00  0.00    -0.269 N 
ATOM     11  H   LIG    1       -0.432  -2.263   0.772  0.00  0.00    +0.156 HD
ATOM     12  O   LIG    1       -2.109  -0.297  -0.920  0.00  0.00    -0.252 OA
BRANCH   7  16
ATOM     13  C   LIG    1        0.246   3.635  -2.281  0.00  0.00    +0.000 A 
ATOM     14  C   LIG    1        1.041   3.363  -1.183  0.00  0.00    +0.002 A 
ATOM     15  C   LIG    1        0.979   2.126  -0.573  0.00  0.00    +0.023 A 
ATOM     16  C   LIG    1        0.118   1.153  -1.064  0.00  0.00    +0.035 A 
ATOM     17  C   LIG    1       -0.675   1.427  -2.171  0.00  0.00    +0.023 A 
ATOM     18  C   LIG    1       -0.613   2.669  -2.773  0.00  0.00    +0.002 A 
ENDBRANCH   7  16
ENDBRANCH   1  10
BRANCH   4  19
ATOM     19  C   LIG    1       -6.032  -4.859   0.276  0.00  0.00    -0.018 A 
ATOM     20  C   LIG    1       -5.999  -6.254   0.264  0.00  0.00    +0.009 A 
ATOM     21  C   LIG    1       -7.165  -6.965   0.266  0.00  0.00    +0.012 A 
ATOM     22  C   LIG    1       -8.394  -6.293   0.268  0.00  0.00    +0.018 A 
ATOM     23  C   LIG    1       -8.424  -4.893   0.274  0.00  0.00    +0.012 A 
ATOM     24  C   LIG    1       -7.255  -4.186   0.278  0.00  0.00    +0.009 A 
BRANCH  22  25
ATOM     25  C   LIG    1       -9.650  -7.056   0.265  0.00  0.00    +0.167 C 
ATOM     26  O   LIG    1      -10.713  -6.473   0.267  0.00  0.00    -0.292 OA
BRANCH  25  27
ATOM     27  C   LIG    1       -9.616  -8.563   0.258  0.00  0.00    +0.074 C 
ATOM     28  C   LIG    1      -10.805  -9.114  -0.556  0.00  0.00    +0.012 C 
ATOM     29  C   LIG    1      -11.240 -10.383   0.219  0.00  0.00    +0.002 C 
ATOM     30  C   LIG    1      -11.059  -9.959   1.698  0.00  0.00    +0.015 C 
ATOM     31  C   LIG    1       -9.778  -9.100   1.691  0.00  0.00    +0.108 C 
BRANCH  31  32
ATOM     32  C   LIG    1       -9.920  -7.954   2.659  0.00  0.00    +0.309 C 
ATOM     33  O   LIG    1      -11.018  -7.573   2.987  0.00  0.00    -0.251 OA
BRANCH  32  34
ATOM     34  O   LIG    1       -8.825  -7.356   3.157  0.00  0.00    -0.480 OA
ATOM     35  H   LIG    1       -7.974  -7.651   2.902  0.00  0.00    +0.295 HD
ENDBRANCH  32  34
ENDBRANCH  31  32
ENDBRANCH  25  27
ENDBRANCH  22  25
ENDBRANCH   4  19
TORSDOF 7
