REMARK  Name = ZINC35324132
REMARK                            x       y       z     vdW  Elec       q    Type
REMARK                         _______ _______ _______ _____ _____    ______ ____
ROOT
ATOM      1  C   LIG    1        4.907  -2.756  -0.152  0.00  0.00    +0.034 A 
ATOM      2  C   LIG    1        6.127  -2.090  -0.149  0.00  0.00    +0.024 A 
ATOM      3  C   LIG    1        7.303  -2.802  -0.253  0.00  0.00    +0.010 A 
ATOM      4  C   LIG    1        7.267  -4.193  -0.362  0.00  0.00    -0.017 A 
ATOM      5  C   LIG    1        6.041  -4.859  -0.364  0.00  0.00    +0.010 A 
ATOM      6  C   LIG    1        4.869  -4.142  -0.255  0.00  0.00    +0.024 A 
ENDROOT
BRANCH   4   7
ATOM      7  C   LIG    1        8.528  -4.960  -0.474  0.00  0.00    -0.005 A 
ATOM      8  C   LIG    1        9.493  -4.600  -1.396  0.00  0.00    +0.009 A 
ATOM      9  C   LIG    1       10.683  -5.313  -1.513  0.00  0.00    +0.003 A 
ATOM     10  C   LIG    1       10.968  -6.391  -0.741  0.00  0.00    +0.028 A 
ATOM     11  C   LIG    1       10.048  -6.840   0.231  0.00  0.00    +0.066 A 
ATOM     12  N   LIG    1       10.033  -7.825   1.110  0.00  0.00    -0.298 N 
ATOM     13  H   LIG    1       10.742  -8.475   1.239  0.00  0.00    +0.187 HD
ATOM     14  N   LIG    1        8.838  -7.775   1.837  0.00  0.00    -0.286 N 
ATOM     15  H   LIG    1        8.589  -8.391   2.543  0.00  0.00    +0.188 HD
ATOM     16  C   LIG    1        8.082  -6.751   1.403  0.00  0.00    +0.118 A 
ATOM     17  C   LIG    1        8.781  -6.110   0.390  0.00  0.00    +0.046 A 
BRANCH  16  18
ATOM     18  N   LIG    1        6.829  -6.399   1.882  0.00  0.00    -0.343 N 
ATOM     19  H   LIG    1        6.421  -6.913   2.597  0.00  0.00    +0.144 HD
ATOM     20  H   LIG    1        6.360  -5.640   1.502  0.00  0.00    +0.144 HD
ENDBRANCH  16  18
ENDBRANCH   4   7
BRANCH   1  22
ATOM     21  C   LIG    1        3.612  -0.819  -0.624  0.00  0.00    +0.248 C 
ATOM     22  N   LIG    1        3.717  -2.032  -0.046  0.00  0.00    -0.282 N 
ATOM     23  H   LIG    1        2.966  -2.402   0.444  0.00  0.00    +0.155 HD
ATOM     24  O   LIG    1        4.579  -0.318  -1.165  0.00  0.00    -0.270 OA
BRANCH  21  28
ATOM     25  C   LIG    1       -0.094   1.254  -0.554  0.00  0.00    +0.000 A 
ATOM     26  C   LIG    1        1.004   1.827  -1.171  0.00  0.00    +0.001 A 
ATOM     27  C   LIG    1        2.211   1.159  -1.197  0.00  0.00    +0.013 A 
ATOM     28  C   LIG    1        2.323  -0.097  -0.599  0.00  0.00    +0.037 A 
ATOM     29  C   LIG    1        1.211  -0.669   0.021  0.00  0.00    +0.013 A 
ATOM     30  C   LIG    1        0.010   0.009   0.040  0.00  0.00    +0.001 A 
ENDBRANCH  21  28
ENDBRANCH   1  22
TORSDOF 4
