REMARK  Name = ZINC00056465
REMARK                            x       y       z     vdW  Elec       q    Type
REMARK                         _______ _______ _______ _____ _____    ______ ____
ROOT
ATOM      1  N   LIG    1       -1.198  -0.721   0.010  0.00  0.00    -0.329 N 
ATOM      2  H   LIG    1       -1.218  -1.629   0.351  0.00  0.00    +0.148 HD
ENDROOT
BRANCH   1   3
ATOM      3  C   LIG    1       -2.356  -0.140  -0.483  0.00  0.00    +0.142 C 
ATOM      4  C   LIG    1       -3.580  -0.805  -0.385  0.00  0.00    +0.053 C 
ATOM      5  C   LIG    1       -4.708  -0.188  -0.890  0.00  0.00    +0.086 C 
ATOM      6  N   LIG    1       -4.597   1.009  -1.448  0.00  0.00    -0.289 NA
ATOM      7  H   LIG    1       -5.387   1.446  -1.803  0.00  0.00    +0.125 HD
ATOM      8  C   LIG    1       -3.423   1.617  -1.527  0.00  0.00    +0.193 C 
ATOM      9  N   LIG    1       -2.319   1.062  -1.050  0.00  0.00    -0.271 NA
ATOM     10  H   LIG    1       -1.665   0.996  -1.830  0.00  0.00    +0.126 HD
BRANCH   8  11
ATOM     11  N   LIG    1       -3.349   2.866  -2.118  0.00  0.00    -0.303 NA
ATOM     12  H   LIG    1       -2.495   3.322  -2.183  0.00  0.00    +0.121 HD
ATOM     13  H   LIG    1       -4.150   3.285  -2.468  0.00  0.00    +0.121 HD
ENDBRANCH   8  11
ENDBRANCH   1   3
BRANCH   1  19
ATOM     14  C   LIG    1       -0.020   1.378   0.203  0.00  0.00    +0.025 A 
ATOM     15  C   LIG    1        1.164   2.088   0.210  0.00  0.00    +0.030 A 
ATOM     16  C   LIG    1        2.368   1.431   0.030  0.00  0.00    +0.105 A 
ATOM     17  C   LIG    1        2.390   0.061  -0.157  0.00  0.00    +0.030 A 
ATOM     18  C   LIG    1        1.209  -0.655  -0.165  0.00  0.00    +0.025 A 
ATOM     19  C   LIG    1       -0.001   0.002   0.016  0.00  0.00    +0.028 A 
BRANCH  16  20
ATOM     20  S   LIG    1        3.876   2.342   0.038  0.00  0.00    +0.056 S 
ATOM     21  O   LIG    1        3.546   3.678  -0.314  0.00  0.00    -0.153 OA
ATOM     22  O   LIG    1        4.819   1.572  -0.695  0.00  0.00    -0.153 OA
BRANCH  20  23
ATOM     23  N   LIG    1        4.414   2.384   1.604  0.00  0.00    -0.204 NA
ATOM     24  H   LIG    1        5.240   2.844   1.821  0.00  0.00    +0.144 HD
ATOM     25  H   LIG    1        3.903   1.948   2.304  0.00  0.00    +0.144 HD
ENDBRANCH  20  23
ENDBRANCH  16  20
ENDBRANCH   1  19
TORSDOF 5
