REMARK  Name = ZINC18007371
REMARK                            x       y       z     vdW  Elec       q    Type
REMARK                         _______ _______ _______ _____ _____    ______ ____
ROOT
ATOM      1  C   LIG    1       -0.017   1.393   0.010  0.00  0.00    +0.012 A 
ATOM      2  C   LIG    1        1.170   2.095   0.002  0.00  0.00    +0.033 A 
ATOM      3  C   LIG    1        2.378   1.420  -0.013  0.00  0.00    +0.122 A 
ATOM      4  C   LIG    1        2.404   0.036  -0.021  0.00  0.00    +0.033 A 
ATOM      5  C   LIG    1        1.225  -0.679  -0.013  0.00  0.00    +0.012 A 
ATOM      6  C   LIG    1        0.002  -0.004   0.002  0.00  0.00    -0.005 A 
ENDROOT
BRANCH   3   7
ATOM      7  N   LIG    1        3.647   2.181  -0.022  0.00  0.00    +0.006 N 
ATOM      8  O   LIG    1        3.628   3.389  -0.016  0.00  0.00    -0.130 OA
BRANCH   7   9
ATOM      9  O   LIG    1        4.704   1.593  -0.036  0.00  0.00    -0.396 OA
ATOM     10  H   LIG    1        4.719   0.657  -0.041  0.00  0.00    +0.329 HD
ENDBRANCH   7   9
ENDBRANCH   3   7
BRANCH   6  11
ATOM     11  C   LIG    1       -1.263  -0.762   0.010  0.00  0.00    +0.138 C 
ATOM     12  N   LIG    1       -1.242  -2.060   0.003  0.00  0.00    -0.188 NA
BRANCH  12  13
ATOM     13  N   LIG    1       -2.443  -2.780   0.011  0.00  0.00    -0.217 N 
ATOM     14  H   LIG    1       -3.291  -2.309   0.021  0.00  0.00    +0.176 HD
BRANCH  13  15
ATOM     15  C   LIG    1       -2.421  -4.145   0.003  0.00  0.00    +0.166 C 
ATOM     16  N   LIG    1       -1.365  -4.948  -0.006  0.00  0.00    -0.157 NA
ATOM     17  C   LIG    1       -1.427  -6.251  -0.013  0.00  0.00    +0.248 C 
ATOM     18  C   LIG    1       -2.834  -6.836  -0.010  0.00  0.00    +0.174 C 
ATOM     19  O   LIG    1       -0.433  -6.950  -0.020  0.00  0.00    -0.273 OA
ATOM     20  S   LIG    1       -3.809  -5.272   0.010  0.00  0.00    -0.082 S 
ENDBRANCH  13  15
ENDBRANCH  12  13
ENDBRANCH   6  11
TORSDOF 5
