REMARK  Name = ZINC18098320
REMARK                            x       y       z     vdW  Elec       q    Type
REMARK                         _______ _______ _______ _____ _____    ______ ____
ROOT
ATOM      1  C   LIG    1       -3.335  -1.965  -8.181  0.00  0.00    +0.003 C 
ENDROOT
BRANCH   1   2
ATOM      2  C   LIG    1       -2.491  -2.729  -9.203  0.00  0.00    +0.003 C 
BRANCH   2   3
ATOM      3  C   LIG    1       -3.012  -4.163  -9.325  0.00  0.00    +0.037 C 
BRANCH   3   4
ATOM      4  C   LIG    1       -2.168  -4.927 -10.347  0.00  0.00    +0.196 C 
BRANCH   4   5
ATOM      5  N   LIG    1       -2.667  -6.300 -10.463  0.00  0.00    -0.276 N 
ATOM      6  H   LIG    1       -3.425  -6.587  -9.931  0.00  0.00    +0.258 HD
BRANCH   5   7
ATOM      7  C   LIG    1       -2.061  -7.180 -11.328  0.00  0.00    +0.388 C 
ATOM      8  N   LIG    1       -1.105  -6.770 -12.111  0.00  0.00    -0.129 NA
ATOM      9  H   LIG    1       -0.727  -7.371 -12.772  0.00  0.00    +0.306 HD
BRANCH   7  10
ATOM     10  N   LIG    1       -2.467  -8.498 -11.367  0.00  0.00    -0.186 N 
ATOM     11  H   LIG    1       -1.970  -9.143 -11.894  0.00  0.00    +0.271 HD
BRANCH  10  12
ATOM     12  C   LIG    1       -3.576  -8.898 -10.656  0.00  0.00    +0.394 C 
ATOM     13  N   LIG    1       -4.176  -8.057  -9.847  0.00  0.00    -0.073 NA
BRANCH  13  14
ATOM     14  C   LIG    1       -5.354  -8.409  -9.242  0.00  0.00    +0.142 A 
ATOM     15  C   LIG    1       -6.491  -8.657 -10.013  0.00  0.00    +0.047 A 
ATOM     16  C   LIG    1       -7.674  -9.011  -9.399  0.00  0.00    +0.023 A 
ATOM     17  C   LIG    1       -7.735  -9.122  -8.020  0.00  0.00    +0.041 A 
ATOM     18 CL   LIG    1       -9.227  -9.568  -7.253  0.00  0.00    -0.084 Cl
ATOM     19  C   LIG    1       -6.611  -8.877  -7.250  0.00  0.00    +0.023 A 
ATOM     20  C   LIG    1       -5.420  -8.528  -7.853  0.00  0.00    +0.047 A 
ENDBRANCH  13  14
BRANCH  12  21
ATOM     21  N   LIG    1       -4.055 -10.177 -10.794  0.00  0.00    -0.288 N 
ATOM     22  H   LIG    1       -3.861 -10.683 -11.598  0.00  0.00    +0.255 HD
ATOM     23  H   LIG    1       -4.588 -10.574 -10.087  0.00  0.00    +0.255 HD
ENDBRANCH  12  21
ENDBRANCH  10  12
ENDBRANCH   7  10
ENDBRANCH   5   7
ENDBRANCH   4   5
ENDBRANCH   3   4
ENDBRANCH   2   3
ENDBRANCH   1   2
BRANCH   1  24
ATOM     24  C   LIG    1       -2.814  -0.531  -8.060  0.00  0.00    +0.037 C 
BRANCH  24  25
ATOM     25  C   LIG    1       -3.658   0.233  -7.038  0.00  0.00    +0.196 C 
BRANCH  25  26
ATOM     26  N   LIG    1       -3.159   1.605  -6.921  0.00  0.00    -0.276 N 
ATOM     27  H   LIG    1       -2.401   1.893  -7.454  0.00  0.00    +0.258 HD
BRANCH  26  28
ATOM     28  C   LIG    1       -3.765   2.486  -6.057  0.00  0.00    +0.388 C 
ATOM     29  N   LIG    1       -4.783   2.100  -5.341  0.00  0.00    -0.129 NA
ATOM     30  H   LIG    1       -5.207   2.719  -4.727  0.00  0.00    +0.306 HD
BRANCH  28  31
ATOM     31  N   LIG    1       -3.295   3.778  -5.947  0.00  0.00    -0.186 N 
ATOM     32  H   LIG    1       -2.611   4.099  -6.556  0.00  0.00    +0.271 HD
BRANCH  31  34
ATOM     33  N   LIG    1       -3.815   5.910  -5.167  0.00  0.00    -0.073 NA
ATOM     34  C   LIG    1       -3.797   4.613  -4.973  0.00  0.00    +0.394 C 
BRANCH  33  41
ATOM     35  C   LIG    1       -3.904   6.985  -7.308  0.00  0.00    +0.047 A 
ATOM     36  C   LIG    1       -3.248   7.528  -8.394  0.00  0.00    +0.023 A 
ATOM     37  C   LIG    1       -1.864   7.543  -8.434  0.00  0.00    +0.041 A 
ATOM     38 CL   LIG    1       -1.046   8.227  -9.804  0.00  0.00    -0.084 Cl
ATOM     39  C   LIG    1       -1.130   7.014  -7.386  0.00  0.00    +0.023 A 
ATOM     40  C   LIG    1       -1.774   6.469  -6.294  0.00  0.00    +0.047 A 
ATOM     41  C   LIG    1       -3.169   6.450  -6.248  0.00  0.00    +0.142 A 
ENDBRANCH  33  41
BRANCH  34  42
ATOM     42  N   LIG    1       -4.279   4.087  -3.801  0.00  0.00    -0.288 N 
ATOM     43  H   LIG    1       -4.090   3.165  -3.569  0.00  0.00    +0.255 HD
ATOM     44  H   LIG    1       -4.808   4.639  -3.204  0.00  0.00    +0.255 HD
ENDBRANCH  34  42
ENDBRANCH  31  34
ENDBRANCH  28  31
ENDBRANCH  26  28
ENDBRANCH  25  26
ENDBRANCH  24  25
ENDBRANCH   1  24
TORSDOF 17
