REMARK  Name = ZINC13986815
REMARK                            x       y       z     vdW  Elec       q    Type
REMARK                         _______ _______ _______ _____ _____    ______ ____
ROOT
ATOM      1  N   LIG    1        1.863   7.243  -0.254  0.00  0.00    -0.281 N 
ATOM      2  H   LIG    1        1.185   7.779  -0.693  0.00  0.00    +0.155 HD
ENDROOT
BRANCH   1  10
ATOM      3  C   LIG    1       -1.267   2.350   0.119  0.00  0.00    +0.161 C 
ATOM      4  C   LIG    1       -0.123   1.383   0.283  0.00  0.00    +0.240 C 
ATOM      5  N   LIG    1        1.145   1.855   0.316  0.00  0.00    -0.269 N 
ATOM      6  C   LIG    1        2.280   0.947   0.496  0.00  0.00    +0.138 C 
ATOM      7  C   LIG    1        1.343   3.236   0.173  0.00  0.00    +0.095 A 
ATOM      8  C   LIG    1        2.533   3.834   0.545  0.00  0.00    +0.141 A 
ATOM      9  N   LIG    1        2.666   5.146   0.390  0.00  0.00    -0.221 NA
ATOM     10  C   LIG    1        1.681   5.875  -0.111  0.00  0.00    +0.221 A 
ATOM     11  N   LIG    1        0.526   5.339  -0.480  0.00  0.00    -0.197 NA
ATOM     12  C   LIG    1        0.321   4.033  -0.357  0.00  0.00    +0.149 A 
ATOM     13  O   LIG    1       -0.336   0.193   0.379  0.00  0.00    -0.273 OA
ATOM     14  N   LIG    1       -0.876   3.462  -0.747  0.00  0.00    -0.299 N 
BRANCH  14  15
ATOM     15  C   LIG    1       -1.941   4.472  -0.822  0.00  0.00    +0.076 C 
ATOM     16  C   LIG    1       -3.304   3.787  -1.047  0.00  0.00    +0.022 C 
ATOM     17  C   LIG    1       -4.058   4.747  -2.002  0.00  0.00    +0.002 C 
ATOM     18  C   LIG    1       -2.936   5.239  -2.949  0.00  0.00    +0.002 C 
ATOM     19  C   LIG    1       -1.707   5.395  -2.030  0.00  0.00    +0.022 C 
ENDBRANCH  14  15
BRANCH   3  21
ATOM     20  C   LIG    1       -2.212   1.761   2.356  0.00  0.00    +0.006 C 
ATOM     21  C   LIG    1       -1.667   2.899   1.490  0.00  0.00    +0.028 C 
ENDBRANCH   3  21
ENDBRANCH   1  10
BRANCH   1  22
ATOM     22  C   LIG    1        3.021   7.846   0.235  0.00  0.00    +0.076 A 
ATOM     23  C   LIG    1        3.725   7.255   1.277  0.00  0.00    +0.028 A 
ATOM     24  C   LIG    1        4.870   7.848   1.762  0.00  0.00    +0.015 A 
ATOM     25  C   LIG    1        5.326   9.046   1.207  0.00  0.00    +0.040 A 
ATOM     26  C   LIG    1        4.619   9.642   0.158  0.00  0.00    +0.060 A 
ATOM     27  C   LIG    1        3.475   9.041  -0.328  0.00  0.00    +0.142 A 
BRANCH  25  28
ATOM     28  C   LIG    1        6.552   9.682   1.725  0.00  0.00    +0.244 C 
ATOM     29  N   LIG    1        7.234   9.107   2.736  0.00  0.00    -0.309 N 
ATOM     30  H   LIG    1        6.918   8.275   3.122  0.00  0.00    +0.149 HD
ATOM     31  O   LIG    1        6.948  10.724   1.241  0.00  0.00    -0.270 OA
BRANCH  29  32
ATOM     32  C   LIG    1        8.451   9.738   3.251  0.00  0.00    +0.070 C 
ATOM     33  C   LIG    1        9.650   9.305   2.402  0.00  0.00    +0.003 C 
ATOM     34  C   LIG    1       10.927   9.919   2.981  0.00  0.00    -0.077 C 
ATOM     35  N   LIG    1       11.101   9.441   4.369  0.00  0.00    +0.378 N 
ATOM     36  H   LIG    1       11.107   8.415   4.370  0.00  0.00    -0.082 HD
ATOM     37  C   LIG    1       12.386   9.928   4.912  0.00  0.00    -0.096 C 
ATOM     38  C   LIG    1        9.984   9.915   5.214  0.00  0.00    -0.077 C 
ATOM     39  C   LIG    1        8.679   9.302   4.701  0.00  0.00    +0.003 C 
ENDBRANCH  29  32
ENDBRANCH  25  28
BRANCH  27  40
ATOM     40  O   LIG    1        2.787   9.614  -1.352  0.00  0.00    -0.493 OA
ATOM     41  C   LIG    1        3.309  10.836  -1.879  0.00  0.00    +0.277 C 
ENDBRANCH  27  40
ENDBRANCH   1  22
TORSDOF 7
