REMARK  Name = ZINC19796087
REMARK                            x       y       z     vdW  Elec       q    Type
REMARK                         _______ _______ _______ _____ _____    ______ ____
ROOT
ATOM      1  C   LIG    1        1.925   2.240  -0.313  0.00  0.00    +0.066 C 
ATOM      2  C   LIG    1        1.596   0.770  -0.336  0.00  0.00    +0.049 C 
ATOM      3  C   LIG    1        0.287   0.391  -0.434  0.00  0.00    +0.069 C 
ATOM      4  C   LIG    1       -0.013  -1.097  -0.456  0.00  0.00    +0.096 C 
ATOM      5  C   LIG    1        1.192  -2.017  -0.365  0.00  0.00    +0.065 C 
ATOM      6  C   LIG    1        2.447  -1.413  -0.272  0.00  0.00    +0.049 C 
ATOM      7  C   LIG    1        3.675  -2.282  -0.180  0.00  0.00    +0.066 C 
ATOM      8  C   LIG    1        1.053  -3.387  -0.376  0.00  0.00    +0.285 C 
ATOM      9  N   LIG    1        2.586  -0.106  -0.267  0.00  0.00    -0.256 NA
ENDROOT
BRANCH   4  10
ATOM     10  C   LIG    1       -0.745  -1.411  -1.735  0.00  0.00    -0.033 A 
ATOM     11  C   LIG    1       -0.145  -1.159  -2.955  0.00  0.00    +0.005 A 
ATOM     12  C   LIG    1       -0.816  -1.447  -4.128  0.00  0.00    +0.003 A 
ATOM     13  C   LIG    1       -2.088  -1.987  -4.082  0.00  0.00    +0.032 A 
ATOM     14  C   LIG    1       -2.688  -2.239  -2.862  0.00  0.00    +0.122 A 
ATOM     15  C   LIG    1       -2.014  -1.956  -1.689  0.00  0.00    +0.037 A 
BRANCH  14  16
ATOM     16  N   LIG    1       -4.050  -2.817  -2.813  0.00  0.00    +0.006 N 
ATOM     17  O   LIG    1       -4.638  -3.068  -3.839  0.00  0.00    -0.130 OA
BRANCH  16  18
ATOM     18  O   LIG    1       -4.574  -3.038  -1.746  0.00  0.00    -0.396 OA
ATOM     19  H   LIG    1       -4.119  -2.844  -0.951  0.00  0.00    +0.329 HD
ENDBRANCH  16  18
ENDBRANCH  14  16
ENDBRANCH   4  10
BRANCH   3  20
ATOM     20  C   LIG    1       -0.744   1.343  -0.511  0.00  0.00    +0.338 C 
ATOM     21  O   LIG    1       -0.477   2.532  -0.491  0.00  0.00    -0.245 OA
BRANCH  20  22
ATOM     22  O   LIG    1       -2.029   0.941  -0.607  0.00  0.00    -0.465 OA
ATOM     23  C   LIG    1       -3.025   1.963  -0.681  0.00  0.00    +0.280 C 
ENDBRANCH  20  22
ENDBRANCH   3  20
BRANCH   8  24
ATOM     24  O   LIG    1       -0.176  -3.940  -0.355  0.00  0.00    -0.480 OA
ATOM     25  H   LIG    1       -0.936  -3.392  -0.335  0.00  0.00    +0.295 HD
ENDBRANCH   8  24
BRANCH   8  26
ATOM     26  O   LIG    1        2.145  -4.175  -0.406  0.00  0.00    -0.463 OA
BRANCH  26  27
ATOM     27  C   LIG    1        1.927  -5.582  -0.526  0.00  0.00    +0.247 C 
BRANCH  27  28
ATOM     28  C   LIG    1        3.266  -6.316  -0.430  0.00  0.00    +0.125 C 
BRANCH  28  29
ATOM     29  N   LIG    1        4.096  -5.974  -1.593  0.00  0.00    -0.298 NA
ATOM     30  C   LIG    1        3.608  -6.645  -2.805  0.00  0.00    +0.105 C 
BRANCH  29  31
ATOM     31  C   LIG    1        5.508  -6.296  -1.345  0.00  0.00    +0.119 C 
BRANCH  31  32
ATOM     32  C   LIG    1        6.357  -5.713  -2.445  0.00  0.00    -0.033 A 
ATOM     33  C   LIG    1        6.621  -6.454  -3.581  0.00  0.00    +0.005 A 
ATOM     34  C   LIG    1        7.400  -5.919  -4.590  0.00  0.00    +0.000 A 
ATOM     35  C   LIG    1        7.914  -4.642  -4.463  0.00  0.00    +0.000 A 
ATOM     36  C   LIG    1        7.649  -3.900  -3.328  0.00  0.00    +0.000 A 
ATOM     37  C   LIG    1        6.867  -4.434  -2.320  0.00  0.00    +0.005 A 
ENDBRANCH  31  32
ENDBRANCH  29  31
ENDBRANCH  28  29
ENDBRANCH  27  28
ENDBRANCH  26  27
ENDBRANCH   8  26
TORSDOF 12
