REMARK  Name = ZINC25540072
REMARK                            x       y       z     vdW  Elec       q    Type
REMARK                         _______ _______ _______ _____ _____    ______ ____
ROOT
ATOM      1  C   LIG    1        3.863   1.325   1.574  0.00  0.00    +0.224 A 
ATOM      2  N   LIG    1        2.580   0.979   1.654  0.00  0.00    -0.198 NA
ATOM      3  C   LIG    1        2.166  -0.160   1.125  0.00  0.00    +0.150 A 
ATOM      4  N   LIG    1        3.025  -0.961   0.519  0.00  0.00    -0.198 NA
ATOM      5  C   LIG    1        4.308  -0.620   0.430  0.00  0.00    +0.217 A 
ATOM      6  N   LIG    1        4.728   0.524   0.961  0.00  0.00    -0.181 NA
ENDROOT
BRANCH   5   7
ATOM      7  N   LIG    1        5.203  -1.455  -0.207  0.00  0.00    -0.327 N 
ATOM      8  H   LIG    1        4.855  -2.404  -0.642  0.00  0.00    +0.145 HD
ATOM      9  H   LIG    1        6.263  -1.172  -0.281  0.00  0.00    +0.145 HD
ENDBRANCH   5   7
BRANCH   1  10
ATOM     10  N   LIG    1        4.294   2.515   2.126  0.00  0.00    -0.283 N 
ATOM     11  H   LIG    1        3.564   3.222   2.547  0.00  0.00    +0.155 HD
BRANCH  10  18
ATOM     12  C   LIG    1        5.055   5.254   2.251  0.00  0.00    +0.045 C 
ATOM     13  C   LIG    1        6.074   4.144   2.211  0.00  0.00    -0.029 A 
ATOM     14  C   LIG    1        7.422   4.443   2.235  0.00  0.00    +0.005 A 
ATOM     15  C   LIG    1        8.358   3.426   2.198  0.00  0.00    +0.000 A 
ATOM     16  C   LIG    1        7.948   2.106   2.138  0.00  0.00    +0.002 A 
ATOM     17  C   LIG    1        6.601   1.801   2.120  0.00  0.00    +0.023 A 
ATOM     18  C   LIG    1        5.659   2.821   2.151  0.00  0.00    +0.036 A 
ENDBRANCH  10  18
ENDBRANCH   1  10
BRANCH   3  19
ATOM     19  C   LIG    1        0.713  -0.547   1.219  0.00  0.00    +0.160 C 
BRANCH  19  20
ATOM     20  N   LIG    1       -0.009  -0.026   0.051  0.00  0.00    -0.294 NA
ATOM     21  C   LIG    1       -0.038   1.443   0.062  0.00  0.00    +0.105 C 
BRANCH  20  22
ATOM     22  C   LIG    1       -1.368  -0.578  -0.018  0.00  0.00    +0.119 C 
BRANCH  22  23
ATOM     23  C   LIG    1       -1.989  -0.221  -1.344  0.00  0.00    -0.032 A 
ATOM     24  C   LIG    1       -2.713   0.949  -1.475  0.00  0.00    +0.005 A 
ATOM     25  C   LIG    1       -3.279   1.279  -2.692  0.00  0.00    +0.002 A 
ATOM     26  C   LIG    1       -3.130   0.434  -3.776  0.00  0.00    +0.020 A 
ATOM     27  C   LIG    1       -2.410  -0.739  -3.644  0.00  0.00    +0.041 A 
ATOM     28 CL   LIG    1       -2.224  -1.801  -5.004  0.00  0.00    -0.084 Cl
ATOM     29  C   LIG    1       -1.840  -1.067  -2.427  0.00  0.00    +0.025 A 
ENDBRANCH  22  23
ENDBRANCH  20  22
ENDBRANCH  19  20
ENDBRANCH   3  19
TORSDOF 7
