REMARK  Name = ZINC33701288
REMARK                            x       y       z     vdW  Elec       q    Type
REMARK                         _______ _______ _______ _____ _____    ______ ____
ROOT
ATOM      1  C   LIG    1       -8.802  -0.010   4.189  0.00  0.00    +0.066 C 
ATOM      2  C   LIG    1       -7.477   0.312   4.115  0.00  0.00    +0.084 A 
ATOM      3  C   LIG    1       -6.623   0.361   2.981  0.00  0.00    +0.272 A 
ATOM      4  N   LIG    1       -5.335   0.706   3.137  0.00  0.00    -0.248 N 
ATOM      5  C   LIG    1       -4.388   0.795   2.127  0.00  0.00    +0.103 A 
ATOM      6  C   LIG    1       -3.070   1.158   2.358  0.00  0.00    +0.076 A 
ATOM      7  C   LIG    1       -2.717   1.454   3.769  0.00  0.00    +0.282 A 
ATOM      8  N   LIG    1       -3.675   1.351   4.697  0.00  0.00    -0.184 NA
ATOM      9  O   LIG    1       -1.582   1.783   4.075  0.00  0.00    -0.265 OA
ATOM     10  C   LIG    1       -2.199   1.200   1.181  0.00  0.00    -0.023 A 
ATOM     11  C   LIG    1       -2.760   0.886  -0.005  0.00  0.00    -0.004 A 
ATOM     12  C   LIG    1       -2.093   0.855  -1.346  0.00  0.00    +0.043 C 
ATOM     13  C   LIG    1       -0.750   1.591  -1.235  0.00  0.00    +0.005 C 
ATOM     14  C   LIG    1       -0.013   1.086   0.008  0.00  0.00    +0.005 C 
ATOM     15  C   LIG    1       -0.725   1.577   1.269  0.00  0.00    +0.037 C 
ATOM     16  S   LIG    1       -4.453   0.521   0.376  0.00  0.00    -0.074 S 
ATOM     17  C   LIG    1       -4.900   1.002   4.408  0.00  0.00    +0.185 A 
ATOM     18  O   LIG    1       -7.056   0.091   1.875  0.00  0.00    -0.266 OA
ATOM     19  S   LIG    1       -6.351   0.785   5.418  0.00  0.00    -0.046 S 
ENDROOT
BRANCH   1  23
ATOM     20  C   LIG    1       -9.835   0.229   7.592  0.00  0.00    +0.136 A 
ATOM     21  C   LIG    1      -11.029  -0.155   7.019  0.00  0.00    +0.050 A 
ATOM     22  C   LIG    1      -10.799  -0.292   5.649  0.00  0.00    +0.050 A 
ATOM     23  C   LIG    1       -9.464   0.006   5.435  0.00  0.00    +0.130 A 
ATOM     24  O   LIG    1       -8.906   0.320   6.622  0.00  0.00    -0.455 OA
BRANCH  20  27
ATOM     25  C   LIG    1      -10.263   1.587  11.063  0.00  0.00    +0.021 A 
ATOM     26  C   LIG    1      -10.472   1.346   9.721  0.00  0.00    +0.014 A 
ATOM     27  C   LIG    1       -9.614   0.493   9.023  0.00  0.00    +0.031 A 
ATOM     28  C   LIG    1       -8.530  -0.108   9.698  0.00  0.00    +0.071 A 
ATOM     29  C   LIG    1       -8.334   0.153  11.053  0.00  0.00    +0.035 A 
ATOM     30  C   LIG    1       -9.198   0.996  11.726  0.00  0.00    +0.042 A 
ATOM     31 CL   LIG    1       -8.949   1.317  13.414  0.00  0.00    -0.084 Cl
BRANCH  28  32
ATOM     32  C   LIG    1       -7.612  -1.006   8.974  0.00  0.00    +0.338 C 
ATOM     33  O   LIG    1       -7.787  -1.230   7.793  0.00  0.00    -0.245 OA
BRANCH  32  34
ATOM     34  O   LIG    1       -6.579  -1.578   9.623  0.00  0.00    -0.477 OA
ATOM     35  H   LIG    1       -6.444  -1.405  10.534  0.00  0.00    +0.295 HD
ENDBRANCH  32  34
ENDBRANCH  28  32
ENDBRANCH  20  27
ENDBRANCH   1  23
TORSDOF 4
