REMARK  Name = ZINC14949370
REMARK                            x       y       z     vdW  Elec       q    Type
REMARK                         _______ _______ _______ _____ _____    ______ ____
ROOT
ATOM      1  C   LIG    1        0.426   2.181  -2.208  0.00  0.00    +0.215 C 
ATOM      2  N   LIG    1       -0.177   2.391  -3.395  0.00  0.00    -0.299 N 
ATOM      3  C   LIG    1       -1.397   3.208  -3.487  0.00  0.00    +0.123 C 
ATOM      4  C   LIG    1       -1.186   4.269  -4.578  0.00  0.00    +0.104 C 
ATOM      5  N   LIG    1       -0.786   3.607  -5.827  0.00  0.00    -0.289 NA
ATOM      6  C   LIG    1        0.502   2.918  -5.676  0.00  0.00    +0.104 C 
ATOM      7  C   LIG    1        0.363   1.806  -4.631  0.00  0.00    +0.123 C 
ATOM      8  O   LIG    1        1.429   1.501  -2.150  0.00  0.00    -0.276 OA
ENDROOT
BRANCH   1   9
ATOM      9  C   LIG    1       -0.145   2.791  -0.954  0.00  0.00    +0.089 C 
BRANCH   9  10
ATOM     10  C   LIG    1        0.723   2.400   0.244  0.00  0.00    +0.022 C 
BRANCH  10  18
ATOM     11  C   LIG    1        1.363   8.873   3.052  0.00  0.00    +0.000 A 
ATOM     12  C   LIG    1        2.089   8.886   1.876  0.00  0.00    +0.000 A 
ATOM     13  C   LIG    1        2.154   7.749   1.093  0.00  0.00    +0.005 A 
ATOM     14  C   LIG    1        1.493   6.597   1.485  0.00  0.00    -0.025 A 
ATOM     15  C   LIG    1        0.768   6.585   2.660  0.00  0.00    -0.025 A 
ATOM     16  C   LIG    1        0.158   5.218   2.842  0.00  0.00    +0.143 C 
ATOM     17  N   LIG    1        0.560   4.395   1.697  0.00  0.00    -0.294 N 
ATOM     18  C   LIG    1        0.225   3.108   1.477  0.00  0.00    +0.202 C 
ATOM     19  O   LIG    1       -0.477   2.519   2.272  0.00  0.00    -0.277 OA
ATOM     20  C   LIG    1        1.400   5.237   0.841  0.00  0.00    +0.143 C 
ATOM     21  C   LIG    1        0.703   7.724   3.444  0.00  0.00    +0.005 A 
ENDBRANCH  10  18
BRANCH  10  22
ATOM     22  N   LIG    1        0.649   0.947   0.449  0.00  0.00    +0.386 N 
ATOM     23  H   LIG    1        1.273   0.667   1.310  0.00  0.00    -0.089 HD
ATOM     24  H   LIG    1       -0.394   0.657   0.642  0.00  0.00    -0.089 HD
ATOM     25  H   LIG    1        1.013   0.431  -0.452  0.00  0.00    -0.089 HD
ENDBRANCH  10  22
ENDBRANCH   9  10
ENDBRANCH   1   9
BRANCH   5  26
ATOM     26  C   LIG    1       -0.743   4.565  -6.940  0.00  0.00    +0.117 C 
BRANCH  26  27
ATOM     27  C   LIG    1       -2.057   5.299  -7.022  0.00  0.00    -0.026 A 
ATOM     28  C   LIG    1       -3.246   4.600  -6.930  0.00  0.00    +0.008 A 
ATOM     29  C   LIG    1       -4.451   5.273  -7.000  0.00  0.00    +0.038 A 
ATOM     30  C   LIG    1       -4.468   6.646  -7.173  0.00  0.00    +0.123 A 
ATOM     31  F   LIG    1       -5.645   7.304  -7.246  0.00  0.00    -0.205 F 
ATOM     32  C   LIG    1       -3.276   7.345  -7.270  0.00  0.00    +0.038 A 
ATOM     33  C   LIG    1       -2.072   6.671  -7.195  0.00  0.00    +0.008 A 
ENDBRANCH  26  27
BRANCH  26  34
ATOM     34  C   LIG    1       -0.500   3.826  -8.230  0.00  0.00    -0.026 A 
ATOM     35  C   LIG    1       -1.181   2.651  -8.492  0.00  0.00    +0.008 A 
ATOM     36  C   LIG    1       -0.962   1.975  -9.677  0.00  0.00    +0.038 A 
ATOM     37  C   LIG    1       -0.053   2.468 -10.598  0.00  0.00    +0.123 A 
ATOM     38  F   LIG    1        0.165   1.805 -11.755  0.00  0.00    -0.205 F 
ATOM     39  C   LIG    1        0.632   3.641 -10.332  0.00  0.00    +0.038 A 
ATOM     40  C   LIG    1        0.408   4.319  -9.149  0.00  0.00    +0.008 A 
ENDBRANCH  26  34
ENDBRANCH   5  26
TORSDOF 7
