REMARK  Name = ZINC64485566
REMARK                            x       y       z     vdW  Elec       q    Type
REMARK                         _______ _______ _______ _____ _____    ______ ____
ROOT
ATOM      1  C   LIG    1        1.625  -2.574   2.237  0.00  0.00    -0.001 A 
ATOM      2  C   LIG    1        2.998  -2.721   2.212  0.00  0.00    +0.053 A 
ATOM      3  C   LIG    1        3.663  -3.214   3.325  0.00  0.00    +0.121 A 
ATOM      4  C   LIG    1        2.949  -3.561   4.462  0.00  0.00    +0.049 A 
ATOM      5  C   LIG    1        1.576  -3.415   4.487  0.00  0.00    +0.049 A 
ATOM      6  C   LIG    1        0.911  -2.916   3.376  0.00  0.00    +0.124 A 
ENDROOT
BRANCH   3   7
ATOM      7  O   LIG    1        5.015  -3.359   3.300  0.00  0.00    -0.495 OA
ATOM      8  C   LIG    1        5.634  -3.873   4.481  0.00  0.00    +0.277 C 
ENDBRANCH   3   7
BRANCH   6   9
ATOM      9  O   LIG    1       -0.440  -2.767   3.402  0.00  0.00    -0.495 OA
ATOM     10  C   LIG    1       -1.111  -3.138   4.608  0.00  0.00    +0.277 C 
ENDBRANCH   6   9
BRANCH   1  11
ATOM     11  C   LIG    1        0.902  -2.037   1.028  0.00  0.00    +0.052 C 
BRANCH  11  12
ATOM     12  C   LIG    1        0.706  -0.527   1.180  0.00  0.00    +0.070 C 
BRANCH  12  14
ATOM     13  C   LIG    1       -0.018   1.465   0.010  0.00  0.00    +0.084 C 
ATOM     14  N   LIG    1        0.002  -0.004   0.002  0.00  0.00    -0.358 NA
BRANCH  14  15
ATOM     15  N   LIG    1       -1.346  -0.543  -0.082  0.00  0.00    +0.389 N 
ATOM     16  H   LIG    1       -1.863  -0.285   0.745  0.00  0.00    -0.065 HD
ATOM     17  H   LIG    1       -1.302  -1.549  -0.151  0.00  0.00    -0.065 HD
ATOM     18  H   LIG    1       -1.807  -0.169  -0.897  0.00  0.00    -0.065 HD
ENDBRANCH  14  15
ENDBRANCH  12  14
ENDBRANCH  11  12
ENDBRANCH   1  11
TORSDOF 6
