REMARK  Name = ZINC40393729
REMARK                            x       y       z     vdW  Elec       q    Type
REMARK                         _______ _______ _______ _____ _____    ______ ____
ROOT
ATOM      1  C   LIG    1        4.676  -4.601   5.161  0.00  0.00    +0.192 A 
ATOM      2  N   LIG    1        5.955  -4.370   5.419  0.00  0.00    -0.207 NA
ATOM      3  C   LIG    1        6.492  -4.750   6.574  0.00  0.00    +0.125 A 
ATOM      4  C   LIG    1        5.689  -5.398   7.515  0.00  0.00    +0.083 A 
ATOM      5  C   LIG    1        4.359  -5.619   7.206  0.00  0.00    +0.135 A 
ATOM      6 CL   LIG    1        3.316  -6.419   8.340  0.00  0.00    -0.062 Cl
ATOM      7  N   LIG    1        3.888  -5.209   6.036  0.00  0.00    -0.210 NA
ENDROOT
BRANCH   3   8
ATOM      8  N   LIG    1        7.830  -4.508   6.841  0.00  0.00    -0.325 N 
ATOM      9  H   LIG    1        8.382  -4.058   6.182  0.00  0.00    +0.148 HD
BRANCH   8  10
ATOM     10  C   LIG    1        8.411  -4.931   8.117  0.00  0.00    +0.138 C 
BRANCH  10  11
ATOM     11  C   LIG    1        9.869  -4.553   8.155  0.00  0.00    -0.030 A 
ATOM     12  C   LIG    1       10.823  -5.437   7.685  0.00  0.00    +0.006 A 
ATOM     13  C   LIG    1       12.160  -5.095   7.718  0.00  0.00    +0.009 A 
ATOM     14  C   LIG    1       12.548  -3.857   8.226  0.00  0.00    -0.018 A 
ATOM     15  C   LIG    1       11.582  -2.970   8.698  0.00  0.00    +0.009 A 
ATOM     16  C   LIG    1       10.248  -3.320   8.656  0.00  0.00    +0.006 A 
BRANCH  14  17
ATOM     17  C   LIG    1       13.983  -3.484   8.264  0.00  0.00    -0.018 A 
ATOM     18  C   LIG    1       14.948  -4.368   7.787  0.00  0.00    +0.008 A 
ATOM     19  C   LIG    1       16.282  -4.016   7.825  0.00  0.00    +0.001 A 
ATOM     20  C   LIG    1       16.662  -2.788   8.335  0.00  0.00    +0.000 A 
ATOM     21  C   LIG    1       15.708  -1.906   8.811  0.00  0.00    +0.001 A 
ATOM     22  C   LIG    1       14.371  -2.245   8.772  0.00  0.00    +0.008 A 
ENDBRANCH  14  17
ENDBRANCH  10  11
ENDBRANCH   8  10
ENDBRANCH   3   8
BRANCH   1  23
ATOM     23  S   LIG    1        4.004  -4.080   3.617  0.00  0.00    -0.071 S 
BRANCH  23  24
ATOM     24  C   LIG    1        2.264  -4.584   3.704  0.00  0.00    +0.162 C 
BRANCH  24  25
ATOM     25  C   LIG    1        2.178  -6.088   3.760  0.00  0.00    +0.318 C 
ATOM     26  O   LIG    1        3.081  -6.767   3.301  0.00  0.00    -0.250 OA
BRANCH  25  27
ATOM     27  O   LIG    1        1.207  -6.625   4.264  0.00  0.00    -0.480 OA
ATOM     28  H   LIG    1        0.513  -6.103   4.617  0.00  0.00    +0.295 HD
ENDBRANCH  25  27
ENDBRANCH  24  25
BRANCH  24  29
ATOM     29  C   LIG    1        1.524  -4.077   2.464  0.00  0.00    +0.026 C 
BRANCH  29  30
ATOM     30  C   LIG    1        1.503  -2.548   2.473  0.00  0.00    +0.002 C 
BRANCH  30  31
ATOM     31  C   LIG    1        0.763  -2.041   1.233  0.00  0.00    +0.000 C 
BRANCH  31  32
ATOM     32  C   LIG    1        0.742  -0.511   1.242  0.00  0.00    -0.000 C 
BRANCH  32  34
ATOM     33  C   LIG    1       -0.019   1.526   0.010  0.00  0.00    +0.004 C 
ATOM     34  C   LIG    1        0.002  -0.004   0.002  0.00  0.00    -0.003 C 
ENDBRANCH  32  34
ENDBRANCH  31  32
ENDBRANCH  30  31
ENDBRANCH  29  30
ENDBRANCH  24  29
ENDBRANCH  23  24
ENDBRANCH   1  23
TORSDOF 13
