REMARK  Name = ZINC26578176
REMARK                            x       y       z     vdW  Elec       q    Type
REMARK                         _______ _______ _______ _____ _____    ______ ____
ROOT
ATOM      1  C   LIG    1        1.815  -2.510   2.235  0.00  0.00    +0.073 C 
ATOM      2  C   LIG    1        2.241  -3.762   2.470  0.00  0.00    +0.017 C 
ATOM      3  C   LIG    1        2.355  -4.735   1.324  0.00  0.00    +0.061 C 
ATOM      4  N   LIG    1        2.574  -4.168   3.732  0.00  0.00    -0.317 N 
ATOM      5  H   LIG    1        3.111  -4.966   3.858  0.00  0.00    +0.152 HD
ATOM      6  C   LIG    1        2.148  -3.447   4.826  0.00  0.00    +0.050 C 
ATOM      7  C   LIG    1        1.713  -2.167   4.682  0.00  0.00    +0.078 C 
ATOM      8  C   LIG    1        1.698  -1.496   3.336  0.00  0.00    +0.141 C 
ENDROOT
BRANCH   6   9
ATOM      9  C   LIG    1        2.162  -4.070   6.165  0.00  0.00    -0.003 A 
ATOM     10  C   LIG    1        1.337  -5.163   6.439  0.00  0.00    +0.010 A 
ATOM     11  C   LIG    1        1.356  -5.739   7.692  0.00  0.00    +0.001 A 
ATOM     12  C   LIG    1        2.190  -5.238   8.676  0.00  0.00    +0.000 A 
ATOM     13  C   LIG    1        3.010  -4.155   8.411  0.00  0.00    +0.001 A 
ATOM     14  C   LIG    1        3.006  -3.573   7.161  0.00  0.00    +0.010 A 
ENDBRANCH   6   9
BRANCH   1  15
ATOM     15  C   LIG    1        1.473  -2.135   0.915  0.00  0.00    +0.338 C 
ATOM     16  O   LIG    1        0.304  -2.075   0.583  0.00  0.00    -0.245 OA
BRANCH  15  17
ATOM     17  O   LIG    1        2.443  -1.845   0.023  0.00  0.00    -0.462 OA
BRANCH  17  19
ATOM     18  C   LIG    1        3.256  -1.184  -2.155  0.00  0.00    +0.048 C 
ATOM     19  C   LIG    1        2.026  -1.474  -1.292  0.00  0.00    +0.229 C 
ENDBRANCH  17  19
ENDBRANCH  15  17
ENDBRANCH   1  15
BRANCH   7  20
ATOM     20  C   LIG    1        1.274  -1.455   5.815  0.00  0.00    +0.339 C 
ATOM     21  O   LIG    1        1.174  -2.021   6.889  0.00  0.00    -0.245 OA
BRANCH  20  22
ATOM     22  O   LIG    1        0.964  -0.145   5.711  0.00  0.00    -0.457 OA
BRANCH  22  23
ATOM     23  C   LIG    1        0.525   0.514   6.901  0.00  0.00    +0.268 C 
BRANCH  23  24
ATOM     24  C   LIG    1        0.227   1.959   6.593  0.00  0.00    -0.010 A 
ATOM     25  C   LIG    1        1.224   2.909   6.704  0.00  0.00    +0.009 A 
ATOM     26  C   LIG    1        0.951   4.235   6.422  0.00  0.00    +0.033 A 
ATOM     27  C   LIG    1       -0.320   4.609   6.029  0.00  0.00    +0.122 A 
ATOM     28  C   LIG    1       -1.318   3.659   5.916  0.00  0.00    +0.033 A 
ATOM     29  C   LIG    1       -1.043   2.333   6.194  0.00  0.00    +0.009 A 
BRANCH  27  30
ATOM     30  N   LIG    1       -0.613   6.029   5.728  0.00  0.00    +0.006 N 
ATOM     31  O   LIG    1        0.259   6.860   5.826  0.00  0.00    -0.130 OA
BRANCH  30  32
ATOM     32  O   LIG    1       -1.725   6.356   5.383  0.00  0.00    -0.396 OA
ATOM     33  H   LIG    1       -2.401   5.712   5.307  0.00  0.00    +0.329 HD
ENDBRANCH  30  32
ENDBRANCH  27  30
ENDBRANCH  23  24
ENDBRANCH  22  23
ENDBRANCH  20  22
ENDBRANCH   7  20
BRANCH   8  34
ATOM     34  C   LIG    1        2.824  -0.552   3.247  0.00  0.00    -0.084 C 
ATOM     35  C   LIG    1        3.722   0.201   3.176  0.00  0.00    -0.065 C 
BRANCH  35  36
ATOM     36  C   LIG    1        4.817   1.119   3.089  0.00  0.00    +0.025 A 
ATOM     37  C   LIG    1        5.771   0.979   2.081  0.00  0.00    +0.017 A 
ATOM     38  C   LIG    1        6.824   1.867   2.003  0.00  0.00    +0.001 A 
ATOM     39  C   LIG    1        6.934   2.896   2.921  0.00  0.00    +0.000 A 
ATOM     40  C   LIG    1        5.992   3.040   3.924  0.00  0.00    +0.001 A 
ATOM     41  C   LIG    1        4.932   2.162   4.010  0.00  0.00    +0.017 A 
ENDBRANCH  35  36
ENDBRANCH   8  34
TORSDOF 12
