REMARK  Name = ZINC00001099
REMARK                            x       y       z     vdW  Elec       q    Type
REMARK                         _______ _______ _______ _____ _____    ______ ____
ROOT
ATOM      1  C   LIG    1       -0.017   1.393   0.010  0.00  0.00    +0.017 A 
ATOM      2  C   LIG    1        1.170   2.095   0.002  0.00  0.00    +0.029 A 
ATOM      3  C   LIG    1        2.378   1.420  -0.013  0.00  0.00    +0.105 A 
ATOM      4  C   LIG    1        2.404   0.036  -0.021  0.00  0.00    +0.029 A 
ATOM      5  C   LIG    1        1.225  -0.679  -0.013  0.00  0.00    +0.017 A 
ATOM      6  C   LIG    1        0.002  -0.004   0.002  0.00  0.00    +0.059 A 
ENDROOT
BRANCH   3   7
ATOM      7  S   LIG    1        3.889   2.326  -0.024  0.00  0.00    +0.056 S 
ATOM      8  O   LIG    1        3.591   3.605  -0.566  0.00  0.00    -0.153 OA
ATOM      9  O   LIG    1        4.872   1.469  -0.589  0.00  0.00    -0.153 OA
BRANCH   7  10
ATOM     10  N   LIG    1        4.325   2.569   1.555  0.00  0.00    -0.204 NA
ATOM     11  H   LIG    1        5.138   3.055   1.764  0.00  0.00    +0.144 HD
ATOM     12  H   LIG    1        3.767   2.227   2.270  0.00  0.00    +0.144 HD
ENDBRANCH   7  10
ENDBRANCH   3   7
BRANCH   6  13
ATOM     13  C   LIG    1       -1.263  -0.763   0.011  0.00  0.00    +0.337 C 
ATOM     14  O   LIG    1       -2.332  -0.169   0.024  0.00  0.00    -0.245 OA
BRANCH  13  15
ATOM     15  O   LIG    1       -1.243  -1.985   0.004  0.00  0.00    -0.477 OA
ATOM     16  H   LIG    1       -0.424  -2.440  -0.007  0.00  0.00    +0.295 HD
ENDBRANCH  13  15
ENDBRANCH   6  13
TORSDOF 4
