REMARK  Name = ZINC24912362
REMARK                            x       y       z     vdW  Elec       q    Type
REMARK                         _______ _______ _______ _____ _____    ______ ____
ROOT
ATOM      1  N   LIG    1       -2.454   3.822   0.046  0.00  0.00    -0.300 N 
ATOM      2  C   LIG    1       -2.538   4.783  -1.079  0.00  0.00    +0.214 C 
ATOM      3  N   LIG    1       -3.945   4.801  -1.497  0.00  0.00    -0.298 N 
ATOM      4  H   LIG    1       -4.325   5.630  -2.112  0.00  0.00    +0.150 HD
ATOM      5  C   LIG    1       -4.575   3.709  -1.013  0.00  0.00    +0.238 C 
ATOM      6  O   LIG    1       -5.740   3.425  -1.191  0.00  0.00    -0.273 OA
ATOM      7  C   LIG    1       -3.581   2.903  -0.214  0.00  0.00    +0.109 C 
ATOM      8  C   LIG    1       -4.202   2.447   1.103  0.00  0.00    +0.017 C 
ATOM      9  C   LIG    1       -5.339   1.463   0.813  0.00  0.00    -0.076 C 
ATOM     10  N   LIG    1       -4.814   0.318   0.058  0.00  0.00    +0.383 N 
ATOM     11  H   LIG    1       -3.986  -0.115   0.639  0.00  0.00    -0.081 HD
ATOM     12  C   LIG    1       -4.273   0.739  -1.241  0.00  0.00    -0.076 C 
ATOM     13  C   LIG    1       -3.101   1.699  -1.019  0.00  0.00    +0.017 C 
ENDROOT
BRANCH   1  17
ATOM     14  C   LIG    1        1.176   1.782  -0.001  0.00  0.00    +0.000 A 
ATOM     15  C   LIG    1        0.960   2.826  -0.881  0.00  0.00    +0.002 A 
ATOM     16  C   LIG    1       -0.241   3.509  -0.864  0.00  0.00    +0.023 A 
ATOM     17  C   LIG    1       -1.236   3.138   0.031  0.00  0.00    +0.032 A 
ATOM     18  C   LIG    1       -1.016   2.089   0.914  0.00  0.00    +0.023 A 
ATOM     19  C   LIG    1        0.189   1.414   0.895  0.00  0.00    +0.002 A 
ENDBRANCH   1  17
BRANCH  10  20
ATOM     20  C   LIG    1       -5.842  -0.718  -0.110  0.00  0.00    -0.041 C 
BRANCH  20  21
ATOM     21  C   LIG    1       -6.195  -1.298   1.236  0.00  0.00    -0.046 A 
ATOM     22  C   LIG    1       -5.510  -2.397   1.728  0.00  0.00    +0.005 A 
ATOM     23  C   LIG    1       -5.866  -2.894   2.973  0.00  0.00    +0.020 A 
ATOM     24  C   LIG    1       -6.892  -2.286   3.671  0.00  0.00    +0.111 A 
ATOM     25  N   LIG    1       -7.526  -1.245   3.170  0.00  0.00    -0.263 NA
ATOM     26  C   LIG    1       -7.211  -0.743   1.991  0.00  0.00    +0.112 A 
ENDBRANCH  20  21
ENDBRANCH  10  20
TORSDOF 3
