REMARK  Name = ZINC16161085
REMARK                            x       y       z     vdW  Elec       q    Type
REMARK                         _______ _______ _______ _____ _____    ______ ____
ROOT
ATOM      1  C   LIG    1        0.056  -1.459   3.532  0.00  0.00    +0.129 A 
ATOM      2  C   LIG    1        0.060  -1.212   4.899  0.00  0.00    +0.050 A 
ATOM      3  C   LIG    1        0.085  -2.452   5.532  0.00  0.00    +0.050 A 
ATOM      4  C   LIG    1        0.094  -3.412   4.540  0.00  0.00    +0.136 A 
ATOM      5  O   LIG    1        0.071  -2.796   3.346  0.00  0.00    -0.455 OA
ENDROOT
BRANCH   1  13
ATOM      6  C   LIG    1       -0.018   1.503   0.010  0.00  0.00    +0.070 C 
ATOM      7  C   LIG    1        0.002  -0.004   0.002  0.00  0.00    +0.092 C 
ATOM      8  N   LIG    1        0.008  -0.762  -1.048  0.00  0.00    -0.078 NA
ATOM      9  O   LIG    1        0.028  -2.126  -0.689  0.00  0.00    -0.312 OA
ATOM     10  C   LIG    1        0.035  -2.245   0.652  0.00  0.00    +0.368 C 
ATOM     11  O   LIG    1        0.052  -3.279   1.295  0.00  0.00    -0.242 OA
ATOM     12  C   LIG    1        0.025  -0.876   1.183  0.00  0.00    +0.089 C 
ATOM     13  C   LIG    1        0.033  -0.488   2.521  0.00  0.00    +0.063 C 
ENDBRANCH   1  13
BRANCH   4  14
ATOM     14  C   LIG    1        0.120  -4.872   4.756  0.00  0.00    +0.017 A 
ATOM     15  C   LIG    1        0.132  -5.390   6.053  0.00  0.00    +0.011 A 
ATOM     16  C   LIG    1        0.157  -6.755   6.247  0.00  0.00    +0.001 A 
ATOM     17  C   LIG    1        0.170  -7.611   5.160  0.00  0.00    +0.000 A 
ATOM     18  C   LIG    1        0.159  -7.105   3.872  0.00  0.00    +0.001 A 
ATOM     19  C   LIG    1        0.128  -5.742   3.663  0.00  0.00    +0.011 A 
ENDBRANCH   4  14
TORSDOF 2
