REMARK  Name = ZINC14972814
REMARK                            x       y       z     vdW  Elec       q    Type
REMARK                         _______ _______ _______ _____ _____    ______ ____
ROOT
ATOM      1  C   LIG    1        3.724  -0.694  -0.037  0.00  0.00    +0.198 C 
ATOM      2  N   LIG    1        4.859   0.243   0.123  0.00  0.00    -0.170 N 
ATOM      3  C   LIG    1        5.024   0.993   1.231  0.00  0.00    +0.273 C 
ATOM      4  O   LIG    1        4.224   0.914   2.144  0.00  0.00    -0.268 OA
ATOM      5  N   LIG    1        5.734   0.294  -0.939  0.00  0.00    -0.168 NA
ATOM      6  C   LIG    1        5.589  -0.424  -2.015  0.00  0.00    +0.124 C 
ATOM      7  S   LIG    1        4.100  -1.361  -1.710  0.00  0.00    -0.074 S 
ENDROOT
BRANCH   3   8
ATOM      8  C   LIG    1        6.174   1.909   1.335  0.00  0.00    +0.109 A 
ATOM      9  C   LIG    1        6.066   3.228   0.880  0.00  0.00    +0.141 A 
ATOM     10  F   LIG    1        4.906   3.666   0.342  0.00  0.00    -0.205 F 
ATOM     11  C   LIG    1        7.146   4.083   0.986  0.00  0.00    +0.077 A 
ATOM     12  C   LIG    1        8.338   3.634   1.532  0.00  0.00    +0.129 A 
ATOM     13  F   LIG    1        9.391   4.474   1.628  0.00  0.00    -0.205 F 
ATOM     14  C   LIG    1        8.454   2.327   1.980  0.00  0.00    +0.077 A 
ATOM     15  C   LIG    1        7.381   1.463   1.886  0.00  0.00    +0.141 A 
ATOM     16  F   LIG    1        7.496   0.190   2.323  0.00  0.00    -0.205 F 
ENDBRANCH   3   8
BRANCH   6  17
ATOM     17  C   LIG    1        6.456  -0.455  -3.213  0.00  0.00    +0.008 A 
ATOM     18  C   LIG    1        6.145  -1.298  -4.281  0.00  0.00    +0.012 A 
ATOM     19  C   LIG    1        6.954  -1.318  -5.398  0.00  0.00    +0.020 A 
ATOM     20  C   LIG    1        8.079  -0.512  -5.456  0.00  0.00    +0.041 A 
ATOM     21 CL   LIG    1        9.097  -0.549  -6.862  0.00  0.00    -0.084 Cl
ATOM     22  C   LIG    1        8.395   0.322  -4.397  0.00  0.00    +0.020 A 
ATOM     23  C   LIG    1        7.591   0.355  -3.277  0.00  0.00    +0.012 A 
ENDBRANCH   6  17
BRANCH   1  28
ATOM     24  C   LIG    1        0.002  -0.004   0.002  0.00  0.00    +0.162 A 
ATOM     25  C   LIG    1       -0.017   1.381   0.010  0.00  0.00    +0.049 A 
ATOM     26  C   LIG    1        1.171   2.089   0.002  0.00  0.00    +0.004 A 
ATOM     27  C   LIG    1        2.379   1.417  -0.013  0.00  0.00    +0.010 A 
ATOM     28  C   LIG    1        2.405   0.035  -0.021  0.00  0.00    +0.030 A 
ATOM     29  C   LIG    1        1.218  -0.680  -0.013  0.00  0.00    +0.167 A 
BRANCH  24  31
ATOM     30  C   LIG    1       -2.375   0.059   0.024  0.00  0.00    +0.277 C 
ATOM     31  O   LIG    1       -1.165  -0.702   0.009  0.00  0.00    -0.491 OA
ENDBRANCH  24  31
BRANCH  29  32
ATOM     32  O   LIG    1        1.242  -2.040  -0.021  0.00  0.00    -0.491 OA
ATOM     33  C   LIG    1        1.241  -2.681  -1.298  0.00  0.00    +0.277 C 
ENDBRANCH  29  32
ENDBRANCH   1  28
TORSDOF 5
