REMARK  Name = ZINC45356824
REMARK                            x       y       z     vdW  Elec       q    Type
REMARK                         _______ _______ _______ _____ _____    ______ ____
ROOT
ATOM      1  C   LIG    1        4.234  -0.854   1.393  0.00  0.00    -0.064 C 
ATOM      2  C   LIG    1        3.351  -1.843   2.157  0.00  0.00    +0.006 C 
ATOM      3  C   LIG    1        3.363  -3.195   1.437  0.00  0.00    +0.105 C 
ATOM      4  N   LIG    1        4.756  -3.631   1.273  0.00  0.00    -0.315 N 
ATOM      5  C   LIG    1        5.712  -2.719   0.631  0.00  0.00    +0.105 C 
ATOM      6  C   LIG    1        5.674  -1.372   1.361  0.00  0.00    +0.006 C 
ENDROOT
BRANCH   4   7
ATOM      7  C   LIG    1        5.160  -4.878   1.715  0.00  0.00    +0.134 A 
ATOM      8  C   LIG    1        5.195  -5.975   0.841  0.00  0.00    +0.059 A 
ATOM      9  C   LIG    1        4.885  -6.184  -0.572  0.00  0.00    +0.032 A 
ATOM     10  C   LIG    1        5.122  -7.479  -0.835  0.00  0.00    +0.085 A 
ATOM     11  N   LIG    1        5.559  -8.111   0.301  0.00  0.00    -0.346 N 
ATOM     12  H   LIG    1        5.795  -9.050   0.359  0.00  0.00    +0.167 HD
ATOM     13  C   LIG    1        5.614  -7.222   1.339  0.00  0.00    +0.143 A 
ATOM     14  N   LIG    1        5.961  -7.311   2.623  0.00  0.00    -0.218 NA
ATOM     15  C   LIG    1        5.913  -6.256   3.406  0.00  0.00    +0.225 A 
ATOM     16  N   LIG    1        5.531  -5.066   2.978  0.00  0.00    -0.220 NA
ENDBRANCH   4   7
BRANCH   1  17
ATOM     17  N   LIG    1        4.199   0.453   2.063  0.00  0.00    +0.382 N 
ATOM     18  H   LIG    1        4.780   1.105   1.558  0.00  0.00    -0.089 HD
ATOM     19  H   LIG    1        4.542   0.356   3.007  0.00  0.00    -0.089 HD
ATOM     20  H   LIG    1        3.250   0.795   2.083  0.00  0.00    -0.089 HD
ENDBRANCH   1  17
BRANCH   1  21
ATOM     21  C   LIG    1        3.713  -0.707  -0.038  0.00  0.00    +0.025 C 
BRANCH  21  26
ATOM     22  C   LIG    1        0.045   1.486  -0.003  0.00  0.00    +0.003 A 
ATOM     23  C   LIG    1        1.253   2.159   0.002  0.00  0.00    +0.020 A 
ATOM     24  C   LIG    1        2.441   1.449  -0.009  0.00  0.00    +0.045 A 
ATOM     25 CL   LIG    1        3.957   2.295  -0.004  0.00  0.00    -0.083 Cl
ATOM     26  C   LIG    1        2.420   0.066  -0.026  0.00  0.00    -0.012 A 
ATOM     27  C   LIG    1        1.211  -0.607  -0.030  0.00  0.00    +0.045 A 
ATOM     28 CL   LIG    1        1.184  -2.343  -0.051  0.00  0.00    -0.083 Cl
ATOM     29  C   LIG    1        0.024   0.103  -0.019  0.00  0.00    +0.020 A 
ENDBRANCH  21  26
ENDBRANCH   1  21
TORSDOF 4
