REMARK  Name = ZINC28371982
REMARK                            x       y       z     vdW  Elec       q    Type
REMARK                         _______ _______ _______ _____ _____    ______ ____
ROOT
ATOM      1  C   LIG    1       -0.019   1.542   0.011  0.00  0.00    +0.044 C 
ATOM      2  C   LIG    1        0.002  -0.004   0.002  0.00  0.00    +0.237 C 
ATOM      3  N   LIG    1        1.304  -0.373   0.569  0.00  0.00    -0.279 N 
ATOM      4  H   LIG    1        1.613  -1.353   0.961  0.00  0.00    +0.303 HD
ATOM      5  C   LIG    1        2.131   0.613   0.578  0.00  0.00    +0.239 C 
ATOM      6  C   LIG    1        1.496   1.858  -0.002  0.00  0.00    +0.103 C 
ATOM      7  C   LIG    1        1.984   2.092  -1.433  0.00  0.00    +0.020 C 
ENDROOT
BRANCH   5   8
ATOM      8  N   LIG    1        3.415   0.545   1.050  0.00  0.00    -0.254 N 
ATOM      9  H   LIG    1        3.802  -0.401   1.457  0.00  0.00    +0.288 HD
ATOM     10  H   LIG    1        4.060   1.436   1.021  0.00  0.00    +0.288 HD
ENDBRANCH   5   8
BRANCH   1  12
ATOM     11  C   LIG    1       -2.190   1.717  -1.213  0.00  0.00    +0.004 C 
ATOM     12  C   LIG    1       -0.707   2.091  -1.241  0.00  0.00    +0.005 C 
ENDBRANCH   1  12
TORSDOF 2
