REMARK  Name = ZINC16052349
REMARK                            x       y       z     vdW  Elec       q    Type
REMARK                         _______ _______ _______ _____ _____    ______ ____
ROOT
ATOM      1  C   LIG    1        1.352   5.261   2.302  0.00  0.00    +0.253 C 
ATOM      2  N   LIG    1        1.334   3.964   1.938  0.00  0.00    -0.307 N 
ATOM      3  H   LIG    1        1.307   3.270   2.615  0.00  0.00    +0.149 HD
ATOM      4  O   LIG    1        1.385   6.131   1.452  0.00  0.00    -0.270 OA
ENDROOT
BRANCH   1   7
ATOM      5  C   LIG    1        1.387   8.135   3.486  0.00  0.00    +0.067 C 
ATOM      6  C   LIG    1        1.345   6.879   4.318  0.00  0.00    +0.058 A 
ATOM      7  C   LIG    1        1.332   5.624   3.722  0.00  0.00    +0.097 A 
ATOM      8  S   LIG    1        1.276   4.575   5.168  0.00  0.00    -0.062 S 
ATOM      9  C   LIG    1        1.284   5.835   6.363  0.00  0.00    +0.109 A 
ATOM     10  N   LIG    1        1.321   6.934   5.622  0.00  0.00    -0.243 NA
BRANCH   9  11
ATOM     11  C   LIG    1        1.253   5.713   7.835  0.00  0.00    +0.007 A 
ATOM     12  C   LIG    1        1.210   4.453   8.434  0.00  0.00    +0.011 A 
ATOM     13  C   LIG    1        1.186   4.347   9.809  0.00  0.00    +0.013 A 
ATOM     14  C   LIG    1        1.194   5.486  10.595  0.00  0.00    +0.055 A 
ATOM     15  C   LIG    1        1.231   6.738  10.008  0.00  0.00    +0.013 A 
ATOM     16  C   LIG    1        1.260   6.859   8.633  0.00  0.00    +0.011 A 
BRANCH  14  17
ATOM     17  C   LIG    1        1.161   5.362  12.096  0.00  0.00    +0.417 C 
ATOM     18  F   LIG    1        1.831   6.448  12.668  0.00  0.00    -0.166 F 
ATOM     19  F   LIG    1        1.790   4.172  12.479  0.00  0.00    -0.166 F 
ATOM     20  F   LIG    1       -0.167   5.350  12.534  0.00  0.00    -0.166 F 
ENDBRANCH  14  17
ENDBRANCH   9  11
ENDBRANCH   1   7
BRANCH   2  21
ATOM     21  C   LIG    1        1.354   3.601   0.518  0.00  0.00    +0.139 C 
BRANCH  21  22
ATOM     22  C   LIG    1        1.327   2.100   0.383  0.00  0.00    -0.030 A 
ATOM     23  C   LIG    1        0.117   1.437   0.298  0.00  0.00    +0.009 A 
ATOM     24  C   LIG    1        0.090   0.061   0.174  0.00  0.00    +0.046 A 
ATOM     25  C   LIG    1        1.278  -0.654   0.134  0.00  0.00    +0.122 A 
ATOM     26  C   LIG    1        2.491   0.014   0.220  0.00  0.00    +0.046 A 
ATOM     27  C   LIG    1        2.513   1.390   0.344  0.00  0.00    +0.009 A 
BRANCH  25  28
ATOM     28  O   LIG    1        1.254  -2.008   0.013  0.00  0.00    -0.475 OA
BRANCH  28  29
ATOM     29  C   LIG    1        2.512  -2.667  -0.147  0.00  0.00    +0.200 C 
ATOM     30  C   LIG    1        3.218  -2.124  -1.391  0.00  0.00    +0.067 C 
ATOM     31  C   LIG    1        2.282  -4.172  -0.306  0.00  0.00    +0.067 C 
BRANCH  29  32
ATOM     32  C   LIG    1        3.368  -2.416   1.067  0.00  0.00    +0.348 C 
ATOM     33  O   LIG    1        2.945  -1.741   1.976  0.00  0.00    -0.247 OA
BRANCH  32  34
ATOM     34  O   LIG    1        4.601  -2.942   1.139  0.00  0.00    -0.478 OA
ATOM     35  H   LIG    1        4.929  -3.465   0.434  0.00  0.00    +0.295 HD
ENDBRANCH  32  34
ENDBRANCH  29  32
ENDBRANCH  28  29
ENDBRANCH  25  28
ENDBRANCH  21  22
ENDBRANCH   2  21
TORSDOF 9
