REMARK  Name = ZINC19365690
REMARK                            x       y       z     vdW  Elec       q    Type
REMARK                         _______ _______ _______ _____ _____    ______ ____
ROOT
ATOM      1  C   LIG    1       -2.666  -2.550   0.733  0.00  0.00    +0.099 C 
ENDROOT
BRANCH   1   2
ATOM      2  N   LIG    1       -1.389  -2.003   0.255  0.00  0.00    -0.306 NA
ATOM      3  C   LIG    1       -1.064  -2.518  -1.082  0.00  0.00    +0.104 C 
BRANCH   2   4
ATOM      4  C   LIG    1       -1.409  -0.535   0.263  0.00  0.00    +0.065 C 
BRANCH   4   5
ATOM      5  C   LIG    1        0.002  -0.004   0.002  0.00  0.00    -0.064 C 
BRANCH   5   7
ATOM      6  C   LIG    1        1.346   2.010   0.000  0.00  0.00    -0.097 C 
ATOM      7  N   LIG    1       -0.018   1.465   0.010  0.00  0.00    +0.377 N 
ATOM      8  H   LIG    1       -0.505   1.791   0.941  0.00  0.00    -0.083 HD
ATOM      9  C   LIG    1       -0.802   1.987  -1.117  0.00  0.00    -0.097 C 
ENDBRANCH   5   7
ENDBRANCH   4   5
ENDBRANCH   2   4
ENDBRANCH   1   2
BRANCH   1  10
ATOM     10  C   LIG    1       -2.527  -4.058   0.948  0.00  0.00    +0.099 C 
BRANCH  10  11
ATOM     11  N   LIG    1       -3.804  -4.605   1.426  0.00  0.00    -0.306 NA
ATOM     12  C   LIG    1       -4.129  -4.090   2.763  0.00  0.00    +0.104 C 
BRANCH  11  13
ATOM     13  C   LIG    1       -3.784  -6.074   1.418  0.00  0.00    +0.065 C 
BRANCH  13  14
ATOM     14  C   LIG    1       -5.195  -6.604   1.679  0.00  0.00    -0.064 C 
BRANCH  14  15
ATOM     15  N   LIG    1       -5.175  -8.073   1.671  0.00  0.00    +0.377 N 
ATOM     16  H   LIG    1       -4.687  -8.399   0.741  0.00  0.00    -0.083 HD
ATOM     17  C   LIG    1       -6.539  -8.618   1.681  0.00  0.00    -0.097 C 
ATOM     18  C   LIG    1       -4.391  -8.595   2.799  0.00  0.00    -0.097 C 
ENDBRANCH  14  15
ENDBRANCH  13  14
ENDBRANCH  11  13
ENDBRANCH  10  11
ENDBRANCH   1  10
TORSDOF 9
