REMARK  Name = ZINC13860431
REMARK                            x       y       z     vdW  Elec       q    Type
REMARK                         _______ _______ _______ _____ _____    ______ ____
ROOT
ATOM      1  N   LIG    1        8.427  -2.775   3.287  0.00  0.00    -0.307 N 
ATOM      2  H   LIG    1        9.089  -2.109   3.044  0.00  0.00    +0.149 HD
ATOM      3  C   LIG    1        8.692  -3.663   4.265  0.00  0.00    +0.215 C 
ATOM      4  O   LIG    1        7.864  -4.496   4.569  0.00  0.00    -0.276 OA
ENDROOT
BRANCH   1   5
ATOM      5  C   LIG    1        7.139  -2.815   2.590  0.00  0.00    +0.200 C 
BRANCH   5  10
ATOM      6  N   LIG    1        3.502  -0.645  -0.035  0.00  0.00    -0.297 N 
ATOM      7  C   LIG    1        3.583  -1.584   1.092  0.00  0.00    +0.127 C 
ATOM      8  C   LIG    1        4.836  -2.453   0.940  0.00  0.00    +0.127 C 
ATOM      9  N   LIG    1        6.001  -1.570   0.781  0.00  0.00    -0.297 N 
ATOM     10  C   LIG    1        7.097  -1.725   1.550  0.00  0.00    +0.233 C 
ATOM     11  O   LIG    1        8.049  -0.987   1.405  0.00  0.00    -0.274 OA
ATOM     12  C   LIG    1        5.939  -0.512  -0.240  0.00  0.00    +0.127 C 
ATOM     13  C   LIG    1        4.643   0.281  -0.041  0.00  0.00    +0.127 C 
BRANCH   6  17
ATOM     14  C   LIG    1       -0.017   1.382   0.010  0.00  0.00    +0.039 A 
ATOM     15  C   LIG    1        1.192   2.061   0.002  0.00  0.00    +0.116 A 
ATOM     16  N   LIG    1        2.320   1.371  -0.013  0.00  0.00    -0.223 NA
ATOM     17  C   LIG    1        2.303   0.046  -0.020  0.00  0.00    +0.218 A 
ATOM     18  N   LIG    1        1.165  -0.633  -0.013  0.00  0.00    -0.223 NA
ATOM     19  C   LIG    1        0.002  -0.004   0.002  0.00  0.00    +0.116 A 
ENDBRANCH   6  17
ENDBRANCH   5  10
ENDBRANCH   1   5
BRANCH   3  20
ATOM     20  C   LIG    1       10.017  -3.622   4.982  0.00  0.00    +0.117 C 
BRANCH  20  21
ATOM     21  C   LIG    1       10.060  -4.729   6.038  0.00  0.00    +0.136 C 
BRANCH  21  22
ATOM     22  N   LIG    1       11.348  -4.688   6.735  0.00  0.00    -0.297 N 
ATOM     23  C   LIG    1       12.402  -5.438   6.238  0.00  0.00    +0.033 A 
ATOM     24  C   LIG    1       13.583  -5.359   6.858  0.00  0.00    +0.046 A 
ATOM     25  C   LIG    1       14.864  -6.024   6.418  0.00  0.00    +0.111 C 
ATOM     26  S   LIG    1       14.498  -7.407   5.296  0.00  0.00    -0.155 S 
ATOM     27  C   LIG    1       13.258  -6.658   4.192  0.00  0.00    +0.075 C 
ATOM     28  C   LIG    1       13.690  -4.565   8.040  0.00  0.00    +0.258 A 
ATOM     29  N   LIG    1       12.634  -3.875   8.499  0.00  0.00    -0.275 N 
ATOM     30  H   LIG    1       12.715  -3.321   9.327  0.00  0.00    +0.173 HD
ATOM     31  O   LIG    1       14.749  -4.514   8.639  0.00  0.00    -0.267 OA
ATOM     32  C   LIG    1       12.055  -6.280   5.044  0.00  0.00    +0.064 C 
ATOM     33  C   LIG    1       11.465  -3.934   7.833  0.00  0.00    +0.330 A 
ATOM     34  O   LIG    1       10.509  -3.298   8.234  0.00  0.00    -0.246 OA
ENDBRANCH  21  22
ENDBRANCH  20  21
ENDBRANCH   3  20
TORSDOF 6
