REMARK  Name = ZINC36379693
REMARK                            x       y       z     vdW  Elec       q    Type
REMARK                         _______ _______ _______ _____ _____    ______ ____
ROOT
ATOM      1  C   LIG    1       -5.834  -5.257   1.327  0.00  0.00    +0.027 A 
ATOM      2  C   LIG    1       -6.782  -5.557   0.358  0.00  0.00    +0.025 A 
ATOM      3  C   LIG    1       -7.889  -6.315   0.686  0.00  0.00    +0.025 A 
ATOM      4  C   LIG    1       -8.054  -6.777   1.985  0.00  0.00    +0.035 A 
ATOM      5  C   LIG    1       -7.106  -6.477   2.954  0.00  0.00    +0.025 A 
ATOM      6  C   LIG    1       -5.996  -5.724   2.625  0.00  0.00    +0.025 A 
ENDROOT
BRANCH   4   7
ATOM      7  N   LIG    1       -9.177  -7.546   2.318  0.00  0.00    -0.269 N 
ATOM      8  H   LIG    1       -9.567  -7.477   3.203  0.00  0.00    +0.156 HD
ATOM      9  C   LIG    1       -9.716  -8.382   1.408  0.00  0.00    +0.308 C 
ATOM     10  N   LIG    1      -10.855  -9.043   1.691  0.00  0.00    -0.269 N 
ATOM     11  H   LIG    1      -11.329  -8.861   2.518  0.00  0.00    +0.156 HD
ATOM     12  O   LIG    1       -9.173  -8.540   0.331  0.00  0.00    -0.252 OA
BRANCH  10  13
ATOM     13  C   LIG    1      -11.356  -9.991   0.792  0.00  0.00    +0.035 A 
ATOM     14  C   LIG    1      -10.483 -10.756   0.030  0.00  0.00    +0.023 A 
ATOM     15  C   LIG    1      -10.981 -11.691  -0.857  0.00  0.00    +0.002 A 
ATOM     16  C   LIG    1      -12.346 -11.866  -0.986  0.00  0.00    +0.000 A 
ATOM     17  C   LIG    1      -13.218 -11.106  -0.228  0.00  0.00    +0.002 A 
ATOM     18  C   LIG    1      -12.727 -10.173   0.664  0.00  0.00    +0.023 A 
ENDBRANCH  10  13
ENDBRANCH   4   7
BRANCH   1  19
ATOM     19  N   LIG    1       -4.713  -4.489   0.995  0.00  0.00    -0.340 N 
ATOM     20  H   LIG    1       -4.048  -4.283   1.671  0.00  0.00    +0.146 HD
BRANCH  19  21
ATOM     21  C   LIG    1       -4.542  -3.996  -0.374  0.00  0.00    +0.137 C 
BRANCH  21  26
ATOM     22  C   LIG    1       -2.094  -1.110  -0.312  0.00  0.00    +0.059 A 
ATOM     23  C   LIG    1       -0.902  -1.757  -0.643  0.00  0.00    +0.015 A 
ATOM     24  C   LIG    1       -0.902  -3.116  -0.882  0.00  0.00    +0.001 A 
ATOM     25  C   LIG    1       -2.080  -3.837  -0.794  0.00  0.00    +0.005 A 
ATOM     26  C   LIG    1       -3.264  -3.202  -0.467  0.00  0.00    -0.030 A 
ATOM     27  C   LIG    1       -3.278  -1.845  -0.220  0.00  0.00    +0.020 A 
BRANCH  22  28
ATOM     28  C   LIG    1       -2.102   0.345  -0.055  0.00  0.00    +0.339 C 
ATOM     29  O   LIG    1       -3.140   0.904   0.237  0.00  0.00    -0.245 OA
BRANCH  28  31
ATOM     30  C   LIG    1       -1.040   2.453   0.116  0.00  0.00    +0.280 C 
ATOM     31  O   LIG    1       -0.959   1.051  -0.145  0.00  0.00    -0.464 OA
ENDBRANCH  28  31
ENDBRANCH  22  28
ENDBRANCH  21  26
ENDBRANCH  19  21
ENDBRANCH   1  19
TORSDOF 7
