REMARK  Name = ZINC16052630
REMARK                            x       y       z     vdW  Elec       q    Type
REMARK                         _______ _______ _______ _____ _____    ______ ____
ROOT
ATOM      1  C   LIG    1        0.738  -0.493  -1.249  0.00  0.00    -0.064 C 
ATOM      2  C   LIG    1        0.002  -0.004   0.002  0.00  0.00    +0.006 C 
ATOM      3  C   LIG    1       -0.019   1.526   0.010  0.00  0.00    +0.105 C 
ATOM      4  N   LIG    1        1.359   2.036   0.000  0.00  0.00    -0.315 N 
ATOM      5  C   LIG    1        2.070   1.619  -1.215  0.00  0.00    +0.105 C 
ATOM      6  C   LIG    1        2.153   0.091  -1.260  0.00  0.00    +0.006 C 
ENDROOT
BRANCH   4   7
ATOM      7  C   LIG    1        1.379   3.412   0.139  0.00  0.00    +0.134 A 
ATOM      8  C   LIG    1        2.594   4.114   0.161  0.00  0.00    +0.059 A 
ATOM      9  C   LIG    1        4.004   3.748   0.054  0.00  0.00    +0.032 A 
ATOM     10  C   LIG    1        4.710   4.888   0.139  0.00  0.00    +0.085 A 
ATOM     11  N   LIG    1        3.857   5.951   0.285  0.00  0.00    -0.346 N 
ATOM     12  H   LIG    1        4.132   6.878   0.367  0.00  0.00    +0.167 HD
ATOM     13  C   LIG    1        2.561   5.514   0.299  0.00  0.00    +0.143 A 
ATOM     14  N   LIG    1        1.377   6.115   0.414  0.00  0.00    -0.218 NA
ATOM     15  C   LIG    1        0.264   5.416   0.393  0.00  0.00    +0.225 A 
ATOM     16  N   LIG    1        0.249   4.101   0.260  0.00  0.00    -0.220 NA
ENDBRANCH   4   7
BRANCH   1  17
ATOM     17  N   LIG    1        0.016  -0.024  -2.445  0.00  0.00    +0.382 N 
ATOM     18  H   LIG    1        0.007   1.002  -2.454  0.00  0.00    -0.089 HD
ATOM     19  H   LIG    1       -0.944  -0.364  -2.429  0.00  0.00    -0.089 HD
ATOM     20  H   LIG    1        0.481  -0.360  -3.287  0.00  0.00    -0.089 HD
ENDBRANCH   1  17
BRANCH   1  21
ATOM     21  C   LIG    1        0.813  -2.021  -1.233  0.00  0.00    +0.022 C 
BRANCH  21  28
ATOM     22  C   LIG    1        0.828  -2.784  -3.617  0.00  0.00    +0.005 A 
ATOM     23  C   LIG    1        1.492  -3.218  -4.748  0.00  0.00    +0.020 A 
ATOM     24  C   LIG    1        2.866  -3.381  -4.724  0.00  0.00    +0.041 A 
ATOM     25 CL   LIG    1        3.700  -3.933  -6.143  0.00  0.00    -0.084 Cl
ATOM     26  C   LIG    1        3.575  -3.103  -3.569  0.00  0.00    +0.020 A 
ATOM     27  C   LIG    1        2.910  -2.663  -2.440  0.00  0.00    +0.005 A 
ATOM     28  C   LIG    1        1.537  -2.501  -2.465  0.00  0.00    -0.049 A 
ENDBRANCH  21  28
ENDBRANCH   1  21
TORSDOF 4
