REMARK  Name = ZINC34554182
REMARK                            x       y       z     vdW  Elec       q    Type
REMARK                         _______ _______ _______ _____ _____    ______ ____
ROOT
ATOM      1  C   LIG    1        7.184   1.580   0.112  0.00  0.00    +0.035 A 
ATOM      2  C   LIG    1        7.210   0.190   0.097  0.00  0.00    +0.024 A 
ATOM      3  C   LIG    1        8.415  -0.478   0.077  0.00  0.00    +0.010 A 
ATOM      4  C   LIG    1        9.610   0.242   0.073  0.00  0.00    -0.017 A 
ATOM      5  C   LIG    1        9.581   1.637   0.087  0.00  0.00    +0.010 A 
ATOM      6  C   LIG    1        8.373   2.300   0.101  0.00  0.00    +0.024 A 
ENDROOT
BRANCH   4   7
ATOM      7  C   LIG    1       10.906  -0.473   0.052  0.00  0.00    -0.005 A 
ATOM      8  C   LIG    1       11.163  -1.496   0.946  0.00  0.00    +0.009 A 
ATOM      9  C   LIG    1       12.377  -2.176   0.939  0.00  0.00    +0.003 A 
ATOM     10  C   LIG    1       13.373  -1.883   0.066  0.00  0.00    +0.030 A 
ATOM     11  C   LIG    1       13.211  -0.855  -0.888  0.00  0.00    +0.095 A 
ATOM     12  N   LIG    1       13.969  -0.347  -1.843  0.00  0.00    -0.172 NA
ATOM     13  N   LIG    1       13.264   0.670  -2.497  0.00  0.00    -0.263 N 
ATOM     14  H   LIG    1       13.604   1.197  -3.236  0.00  0.00    +0.190 HD
ATOM     15  C   LIG    1       12.049   0.816  -1.939  0.00  0.00    +0.120 A 
ATOM     16  C   LIG    1       11.940  -0.116  -0.917  0.00  0.00    +0.049 A 
BRANCH  15  17
ATOM     17  N   LIG    1       11.080   1.733  -2.318  0.00  0.00    -0.343 N 
ATOM     18  H   LIG    1       11.252   2.347  -3.049  0.00  0.00    +0.144 HD
ATOM     19  H   LIG    1       10.230   1.760  -1.851  0.00  0.00    +0.144 HD
ENDBRANCH  15  17
ENDBRANCH   4   7
BRANCH   1  23
ATOM     20  N   LIG    1        3.700   2.317   0.712  0.00  0.00    -0.269 N 
ATOM     21  H   LIG    1        3.572   3.088   0.137  0.00  0.00    +0.156 HD
ATOM     22  C   LIG    1        4.906   1.720   0.779  0.00  0.00    +0.308 C 
ATOM     23  N   LIG    1        5.960   2.255   0.131  0.00  0.00    -0.269 N 
ATOM     24  H   LIG    1        5.869   3.108  -0.322  0.00  0.00    +0.156 HD
ATOM     25  O   LIG    1        5.044   0.699   1.426  0.00  0.00    -0.252 OA
BRANCH  20  28
ATOM     26  C   LIG    1        1.811   0.772   3.463  0.00  0.00    +0.005 A 
ATOM     27  C   LIG    1        2.867   1.257   2.715  0.00  0.00    +0.023 A 
ATOM     28  C   LIG    1        2.632   1.825   1.470  0.00  0.00    +0.037 A 
ATOM     29  C   LIG    1        1.335   1.905   0.979  0.00  0.00    +0.061 A 
ATOM     30  C   LIG    1        0.282   1.418   1.732  0.00  0.00    +0.125 A 
ATOM     31  F   LIG    1       -0.980   1.495   1.256  0.00  0.00    -0.205 F 
ATOM     32  C   LIG    1        0.521   0.852   2.974  0.00  0.00    +0.038 A 
ENDBRANCH  20  28
ENDBRANCH   1  23
TORSDOF 4
