REMARK  Name = ZINC18710082
REMARK                            x       y       z     vdW  Elec       q    Type
REMARK                         _______ _______ _______ _____ _____    ______ ____
ROOT
ATOM      1  N   LIG    1        0.925   6.213   0.120  0.00  0.00    -0.281 N 
ATOM      2  H   LIG    1        1.807   5.808   0.108  0.00  0.00    +0.155 HD
ATOM      3  C   LIG    1       -0.173   5.437   0.030  0.00  0.00    +0.252 C 
ATOM      4  O   LIG    1       -1.275   5.949  -0.035  0.00  0.00    -0.270 OA
ENDROOT
BRANCH   1  13
ATOM      5  C   LIG    1       -0.174  12.328   1.799  0.00  0.00    +0.017 C 
ATOM      6  C   LIG    1        0.171  11.813   0.400  0.00  0.00    +0.007 C 
ATOM      7  C   LIG    1        1.316  12.629  -0.203  0.00  0.00    +0.017 C 
ATOM      8  C   LIG    1       -1.066  11.870  -0.511  0.00  0.00    +0.112 C 
ATOM      9  N   LIG    1       -1.316  10.481  -0.906  0.00  0.00    -0.343 N 
ATOM     10  H   LIG    1       -2.037  10.189  -1.486  0.00  0.00    +0.146 HD
ATOM     11  C   LIG    1       -0.366   9.639  -0.326  0.00  0.00    +0.033 A 
ATOM     12  C   LIG    1       -0.227   8.255  -0.437  0.00  0.00    +0.046 A 
ATOM     13  C   LIG    1        0.794   7.601   0.232  0.00  0.00    +0.035 A 
ATOM     14  C   LIG    1        1.692   8.322   1.008  0.00  0.00    +0.024 A 
ATOM     15  C   LIG    1        1.559   9.693   1.115  0.00  0.00    +0.008 A 
ATOM     16  C   LIG    1        0.537  10.347   0.453  0.00  0.00    -0.019 A 
ENDBRANCH   1  13
BRANCH   3  17
ATOM     17  C   LIG    1       -0.040   3.969   0.011  0.00  0.00    +0.077 A 
ATOM     18  C   LIG    1        1.224   3.369  -0.028  0.00  0.00    +0.018 A 
ATOM     19  C   LIG    1        1.295   1.988  -0.045  0.00  0.00    +0.021 A 
ATOM     20  C   LIG    1        0.128   1.245  -0.021  0.00  0.00    +0.113 A 
ATOM     21  N   LIG    1       -1.054   1.829   0.010  0.00  0.00    -0.240 NA
ATOM     22  C   LIG    1       -1.179   3.147   0.033  0.00  0.00    +0.131 A 
BRANCH  22  23
ATOM     23  N   LIG    1       -2.438   3.717   0.071  0.00  0.00    -0.324 N 
ATOM     24  H   LIG    1       -2.537   4.680   0.006  0.00  0.00    +0.148 HD
BRANCH  23  25
ATOM     25  C   LIG    1       -3.623   2.867   0.210  0.00  0.00    +0.138 C 
BRANCH  25  26
ATOM     26  C   LIG    1       -4.860   3.728   0.226  0.00  0.00    -0.028 A 
ATOM     27  C   LIG    1       -5.370   4.216   1.419  0.00  0.00    +0.025 A 
ATOM     28  C   LIG    1       -6.504   5.006   1.394  0.00  0.00    +0.111 A 
ATOM     29  N   LIG    1       -7.104   5.288   0.254  0.00  0.00    -0.263 NA
ATOM     30  C   LIG    1       -6.650   4.837  -0.899  0.00  0.00    +0.111 A 
ATOM     31  C   LIG    1       -5.519   4.045  -0.952  0.00  0.00    +0.025 A 
ENDBRANCH  25  26
ENDBRANCH  23  25
ENDBRANCH  22  23
ENDBRANCH   3  17
TORSDOF 5
