REMARK  Name = ZINC34717850
REMARK                            x       y       z     vdW  Elec       q    Type
REMARK                         _______ _______ _______ _____ _____    ______ ____
ROOT
ATOM      1  C   LIG    1       -0.019   1.527   0.010  0.00  0.00    +0.008 C 
ATOM      2  C   LIG    1        0.002  -0.004   0.002  0.00  0.00    -0.007 C 
ATOM      3  C   LIG    1        0.724  -0.497  -1.251  0.00  0.00    +0.037 C 
ATOM      4  C   LIG    1       -0.284  -0.952  -2.304  0.00  0.00    +0.147 C 
ATOM      5  C   LIG    1       -0.882  -2.306  -1.919  0.00  0.00    +0.150 C 
ATOM      6  C   LIG    1       -1.853  -2.762  -3.018  0.00  0.00    +0.040 C 
ATOM      7  C   LIG    1       -1.257  -3.985  -3.724  0.00  0.00    +0.014 C 
ATOM      8  C   LIG    1       -3.168  -3.136  -2.392  0.00  0.00    -0.019 C 
ATOM      9  C   LIG    1       -4.318  -2.985  -2.993  0.00  0.00    -0.033 C 
ATOM     10  C   LIG    1       -4.423  -2.404  -4.378  0.00  0.00    +0.042 C 
ATOM     11  C   LIG    1       -5.579  -3.411  -2.275  0.00  0.00    +0.236 C 
ATOM     12  C   LIG    1       -6.243  -2.201  -1.618  0.00  0.00    +0.186 C 
ATOM     13  C   LIG    1       -7.138  -2.659  -0.498  0.00  0.00    +0.008 C 
ATOM     14  C   LIG    1       -6.870  -2.376   0.779  0.00  0.00    -0.001 C 
ATOM     15  C   LIG    1       -5.692  -1.604   1.136  0.00  0.00    +0.008 C 
ATOM     16  C   LIG    1       -5.302  -1.388   2.417  0.00  0.00    +0.012 C 
ATOM     17  C   LIG    1       -6.065  -1.952   3.581  0.00  0.00    +0.049 C 
ATOM     18  C   LIG    1       -4.105  -0.586   2.609  0.00  0.00    +0.244 C 
ATOM     19  N   LIG    1       -3.531  -0.309   3.791  0.00  0.00    -0.279 N 
ATOM     20  H   LIG    1       -4.024  -0.341   4.635  0.00  0.00    +0.155 HD
ATOM     21  C   LIG    1       -2.186   0.033   3.749  0.00  0.00    +0.085 C 
ATOM     22  C   LIG    1       -1.652   0.855   4.681  0.00  0.00    +0.080 C 
ATOM     23  C   LIG    1       -0.254   1.273   4.545  0.00  0.00    +0.202 C 
ATOM     24  C   LIG    1        0.544   0.819   3.368  0.00  0.00    +0.081 C 
ATOM     25  C   LIG    1       -0.006  -0.031   2.475  0.00  0.00    +0.026 C 
ATOM     26  O   LIG    1        0.254   1.989   5.385  0.00  0.00    -0.286 OA
ATOM     27  C   LIG    1       -1.330  -0.507   2.665  0.00  0.00    +0.205 C 
ATOM     28  O   LIG    1       -1.733  -1.399   1.942  0.00  0.00    -0.286 OA
ATOM     29  O   LIG    1       -3.607  -0.098   1.605  0.00  0.00    -0.270 OA
ATOM     30  C   LIG    1        0.739  -0.505   1.251  0.00  0.00    +0.044 C 
ENDROOT
BRANCH   4  31
ATOM     31  O   LIG    1       -1.329   0.014  -2.430  0.00  0.00    -0.377 OA
ATOM     32  C   LIG    1       -1.070   1.027  -3.404  0.00  0.00    +0.194 C 
ENDBRANCH   4  31
BRANCH   5  33
ATOM     33  O   LIG    1        0.162  -3.272  -1.789  0.00  0.00    -0.389 OA
ATOM     34  H   LIG    1       -0.148  -4.156  -1.546  0.00  0.00    +0.210 HD
ENDBRANCH   5  33
BRANCH  12  35
ATOM     35  O   LIG    1       -7.034  -1.512  -2.592  0.00  0.00    -0.372 OA
ATOM     36  C   LIG    1       -7.143  -0.106  -2.364  0.00  0.00    +0.195 C 
ENDBRANCH  12  35
BRANCH  24  37
ATOM     37  N   LIG    1        1.837   1.265   3.222  0.00  0.00    -0.339 N 
ATOM     38  H   LIG    1        2.366   0.978   2.462  0.00  0.00    +0.146 HD
BRANCH  37  39
ATOM     39  C   LIG    1        2.414   2.175   4.215  0.00  0.00    +0.117 C 
BRANCH  39  40
ATOM     40  C   LIG    1        3.853   2.515   3.819  0.00  0.00    +0.102 C 
BRANCH  40  41
ATOM     41  N   LIG    1        4.432   3.426   4.814  0.00  0.00    -0.307 NA
ATOM     42  C   LIG    1        3.748   4.727   4.798  0.00  0.00    +0.104 C 
ATOM     43  C   LIG    1        5.876   3.589   4.602  0.00  0.00    +0.104 C 
ENDBRANCH  40  41
ENDBRANCH  39  40
ENDBRANCH  37  39
ENDBRANCH  24  37
BRANCH  11  44
ATOM     44  O   LIG    1       -6.480  -4.000  -3.214  0.00  0.00    -0.440 OA
BRANCH  44  45
ATOM     45  C   LIG    1       -6.381  -5.330  -3.404  0.00  0.00    +0.398 C 
ATOM     46  N   LIG    1       -7.202  -5.948  -4.276  0.00  0.00    -0.295 N 
ATOM     47  H   LIG    1       -7.131  -6.906  -4.413  0.00  0.00    +0.148 HD
ATOM     48  H   LIG    1       -7.864  -5.436  -4.766  0.00  0.00    +0.148 HD
ATOM     49  O   LIG    1       -5.552  -5.971  -2.790  0.00  0.00    -0.227 OA
ENDBRANCH  44  45
ENDBRANCH  11  44
TORSDOF 9
