REMARK  Name = ZINC20827202
REMARK                            x       y       z     vdW  Elec       q    Type
REMARK                         _______ _______ _______ _____ _____    ______ ____
ROOT
ATOM      1  C   LIG    1        6.674  -2.396   7.116  0.00  0.00    +0.224 A 
ATOM      2  N   LIG    1        6.252  -1.808   6.024  0.00  0.00    -0.234 NA
ATOM      3  C   LIG    1        4.973  -1.936   5.606  0.00  0.00    +0.093 A 
ATOM      4  C   LIG    1        4.345  -1.345   4.410  0.00  0.00    +0.037 A 
ATOM      5  C   LIG    1        4.961  -0.511   3.439  0.00  0.00    -0.029 A 
ATOM      6  C   LIG    1        4.229  -0.059   2.390  0.00  0.00    -0.004 A 
ATOM      7  C   LIG    1        4.813   0.822   1.315  0.00  0.00    +0.039 C 
ATOM      8  C   LIG    1        6.120   1.454   1.788  0.00  0.00    +0.005 C 
ATOM      9  C   LIG    1        7.025   0.344   2.336  0.00  0.00    +0.005 C 
ATOM     10  C   LIG    1        2.874  -0.404   2.286  0.00  0.00    +0.126 A 
ATOM     11  N   LIG    1        2.304  -1.181   3.191  0.00  0.00    -0.225 NA
ATOM     12  C   LIG    1        6.414  -0.176   3.636  0.00  0.00    +0.036 C 
ATOM     13  C   LIG    1        2.987  -1.645   4.216  0.00  0.00    +0.113 A 
ATOM     14  S   LIG    1        2.567  -2.687   5.592  0.00  0.00    -0.064 S 
ATOM     15  C   LIG    1        4.140  -2.728   6.406  0.00  0.00    +0.080 A 
ATOM     16  C   LIG    1        4.623  -3.335   7.556  0.00  0.00    +0.134 A 
ATOM     17  N   LIG    1        5.902  -3.145   7.881  0.00  0.00    -0.220 NA
ENDROOT
BRANCH  10  18
ATOM     18  N   LIG    1        2.125   0.070   1.217  0.00  0.00    -0.311 N 
ATOM     19  C   LIG    1        1.629  -1.039   0.389  0.00  0.00    +0.134 C 
ATOM     20  C   LIG    1        0.860  -0.471  -0.807  0.00  0.00    +0.178 C 
ATOM     21  O   LIG    1       -0.197   0.367  -0.334  0.00  0.00    -0.377 OA
ATOM     22  C   LIG    1        0.251   1.458   0.476  0.00  0.00    +0.178 C 
ATOM     23  C   LIG    1        1.013   0.909   1.685  0.00  0.00    +0.134 C 
ENDBRANCH  10  18
BRANCH  16  24
ATOM     24  N   LIG    1        3.797  -4.119   8.347  0.00  0.00    -0.342 N 
ATOM     25  H   LIG    1        2.744  -4.266   8.065  0.00  0.00    +0.144 HD
ATOM     26  H   LIG    1        4.195  -4.593   9.256  0.00  0.00    +0.144 HD
ENDBRANCH  16  24
TORSDOF 2
