REMARK  Name = ZINC28460717
REMARK                            x       y       z     vdW  Elec       q    Type
REMARK                         _______ _______ _______ _____ _____    ______ ____
ROOT
ATOM      1  N   LIG    1       -0.981  -0.975   0.006  0.00  0.00    -0.322 N 
ATOM      2  C   LIG    1        0.002  -0.004   0.002  0.00  0.00    +0.069 A 
ATOM      3  C   LIG    1       -0.017   1.384   0.010  0.00  0.00    +0.031 A 
ATOM      4  C   LIG    1        1.169   2.087   0.002  0.00  0.00    +0.040 A 
ATOM      5  C   LIG    1        2.386   1.415  -0.013  0.00  0.00    +0.126 A 
ATOM      6  F   LIG    1        3.540   2.119  -0.020  0.00  0.00    -0.205 F 
ATOM      7  C   LIG    1        2.425   0.039  -0.021  0.00  0.00    +0.068 A 
ATOM      8  C   LIG    1        1.230  -0.690  -0.013  0.00  0.00    +0.092 A 
ATOM      9  N   LIG    1        0.949  -2.014  -0.018  0.00  0.00    -0.226 NA
ATOM     10  C   LIG    1       -0.350  -2.189  -0.007  0.00  0.00    +0.167 A 
ENDROOT
BRANCH  10  11
ATOM     11  C   LIG    1       -1.032  -3.502  -0.009  0.00  0.00    +0.190 A 
ATOM     12  C   LIG    1       -0.434  -4.858  -0.029  0.00  0.00    +0.191 A 
ATOM     13  N   LIG    1       -1.491  -5.636  -0.019  0.00  0.00    -0.033 NA
ATOM     14  O   LIG    1       -2.490  -4.957  -0.005  0.00  0.00    -0.240 OA
ATOM     15  N   LIG    1       -2.322  -3.760   0.001  0.00  0.00    -0.044 NA
BRANCH  12  16
ATOM     16  N   LIG    1        0.908  -5.215  -0.049  0.00  0.00    -0.339 N 
ATOM     17  H   LIG    1        1.685  -4.436  -0.053  0.00  0.00    +0.144 HD
ATOM     18  H   LIG    1        1.194  -6.277  -0.062  0.00  0.00    +0.144 HD
ENDBRANCH  12  16
ENDBRANCH  10  11
BRANCH   1  20
ATOM     19  C   LIG    1       -2.945  -0.660  -1.417  0.00  0.00    +0.027 C 
ATOM     20  C   LIG    1       -2.428  -0.747   0.020  0.00  0.00    +0.120 C 
ENDBRANCH   1  20
TORSDOF 3
