REMARK  Name = ZINC64437033
REMARK                            x       y       z     vdW  Elec       q    Type
REMARK                         _______ _______ _______ _____ _____    ______ ____
ROOT
ATOM      1  C   LIG    1       -0.010   1.501   0.088  0.00  0.00    +0.064 C 
ATOM      2  C   LIG    1        0.006  -0.005   0.039  0.00  0.00    +0.034 A 
ATOM      3  C   LIG    1       -1.167  -0.705   0.145  0.00  0.00    +0.085 A 
ATOM      4  C   LIG    1       -1.132  -2.175   0.096  0.00  0.00    +0.074 A 
ATOM      5  N   LIG    1       -2.430  -2.603   0.224  0.00  0.00    -0.294 N 
ATOM      6  N   LIG    1       -3.283  -1.503   0.351  0.00  0.00    -0.254 N 
ATOM      7  C   LIG    1       -4.738  -1.590   0.506  0.00  0.00    +0.174 C 
ATOM      8  H   LIG    1       -2.713  -3.531   0.226  0.00  0.00    +0.187 HD
ATOM      9  C   LIG    1        0.089  -2.793  -0.057  0.00  0.00    +0.098 A 
ATOM     10  C   LIG    1        1.240  -2.001  -0.159  0.00  0.00    +0.254 A 
ATOM     11  O   LIG    1        2.326  -2.542  -0.294  0.00  0.00    -0.268 OA
ATOM     12  C   LIG    1       -2.584  -0.351   0.311  0.00  0.00    +0.276 A 
ATOM     13  O   LIG    1       -3.041   0.773   0.396  0.00  0.00    -0.266 OA
ATOM     14  N   LIG    1        1.174  -0.661  -0.115  0.00  0.00    -0.306 N 
ENDROOT
BRANCH  14  15
ATOM     15  C   LIG    1        2.412   0.114  -0.232  0.00  0.00    +0.180 C 
BRANCH  15  16
ATOM     16  C   LIG    1        3.039   0.269   1.130  0.00  0.00    +0.061 A 
ATOM     17  C   LIG    1        4.022  -0.614   1.534  0.00  0.00    +0.025 A 
ATOM     18  C   LIG    1        4.593  -0.463   2.788  0.00  0.00    +0.003 A 
ATOM     19  C   LIG    1        4.150   0.576   3.593  0.00  0.00    +0.020 A 
ATOM     20  C   LIG    1        3.162   1.420   3.122  0.00  0.00    +0.111 A 
ATOM     21  N   LIG    1        2.646   1.249   1.920  0.00  0.00    -0.258 NA
ENDBRANCH  15  16
ENDBRANCH  14  15
TORSDOF 2
