REMARK  Name = ZINC49067414
REMARK                            x       y       z     vdW  Elec       q    Type
REMARK                         _______ _______ _______ _____ _____    ______ ____
ROOT
ATOM      1  C   LIG    1        0.159   1.556  -1.078  0.00  0.00    +0.044 C 
ATOM      2  C   LIG    1        0.146   0.051  -0.998  0.00  0.00    -0.050 A 
ATOM      3  C   LIG    1        0.339  -0.704  -2.144  0.00  0.00    +0.007 A 
ATOM      4  C   LIG    1        0.328  -2.083  -2.089  0.00  0.00    +0.046 A 
ATOM      5  C   LIG    1        0.125  -2.731  -0.878  0.00  0.00    +0.132 A 
ATOM      6  C   LIG    1       -0.066  -1.965   0.283  0.00  0.00    +0.059 A 
ATOM      7  C   LIG    1       -0.271  -2.655   1.569  0.00  0.00    +0.170 C 
ATOM      8  C   LIG    1       -0.544  -4.147   1.501  0.00  0.00    +0.127 C 
ATOM      9  C   LIG    1        0.377  -4.727   0.417  0.00  0.00    +0.120 C 
ATOM     10  C   LIG    1        1.834  -4.492   0.817  0.00  0.00    +0.067 C 
ATOM     11  C   LIG    1        2.756  -5.052  -0.271  0.00  0.00    +0.112 C 
ATOM     12  N   LIG    1        2.413  -6.462  -0.502  0.00  0.00    -0.297 N 
ATOM     13  C   LIG    1        3.359  -7.419  -0.434  0.00  0.00    +0.249 C 
ATOM     14  O   LIG    1        4.522  -7.113  -0.255  0.00  0.00    -0.270 OA
ATOM     15  C   LIG    1        1.018  -6.808  -0.808  0.00  0.00    +0.112 C 
ATOM     16  C   LIG    1        0.116  -6.229   0.286  0.00  0.00    +0.067 C 
ATOM     17  O   LIG    1       -0.225  -2.062   2.626  0.00  0.00    -0.292 OA
ATOM     18  O   LIG    1        0.110  -4.083  -0.827  0.00  0.00    -0.484 OA
ATOM     19  C   LIG    1       -0.051  -0.570   0.217  0.00  0.00    +0.018 A 
ENDROOT
BRANCH  13  20
ATOM     20  C   LIG    1        2.984  -8.838  -0.578  0.00  0.00    +0.062 A 
ATOM     21  C   LIG    1        2.264  -9.264  -1.691  0.00  0.00    +0.015 A 
ATOM     22  C   LIG    1        1.909 -10.595  -1.831  0.00  0.00    +0.001 A 
ATOM     23  C   LIG    1        2.260 -11.521  -0.874  0.00  0.00    +0.011 A 
ATOM     24  C   LIG    1        2.984 -11.121   0.254  0.00  0.00    +0.020 A 
ATOM     25  C   LIG    1        3.503 -11.822   1.425  0.00  0.00    +0.142 A 
ATOM     26  N   LIG    1        4.123 -10.949   2.166  0.00  0.00    -0.181 NA
ATOM     27  N   LIG    1        4.048  -9.682   1.579  0.00  0.00    -0.276 N 
ATOM     28  H   LIG    1        4.426  -8.868   1.948  0.00  0.00    +0.189 HD
ATOM     29  C   LIG    1        3.356  -9.772   0.406  0.00  0.00    +0.078 A 
ENDBRANCH  13  20
TORSDOF 1
