REMARK  Name = ZINC14951272
REMARK                            x       y       z     vdW  Elec       q    Type
REMARK                         _______ _______ _______ _____ _____    ______ ____
ROOT
ATOM      1  C   LIG    1        3.463   0.673  -0.009  0.00  0.00    +0.080 A 
ATOM      2  C   LIG    1        4.153   1.364  -0.992  0.00  0.00    +0.056 A 
ATOM      3  C   LIG    1        5.542   1.322  -1.025  0.00  0.00    +0.068 A 
ATOM      4  C   LIG    1        6.237   0.582  -0.065  0.00  0.00    +0.068 A 
ATOM      5  N   LIG    1        7.628   0.529  -0.084  0.00  0.00    -0.316 N 
ATOM      6  H   LIG    1        8.102   0.012   0.587  0.00  0.00    +0.169 HD
ATOM      7  C   LIG    1        8.318   1.194  -1.032  0.00  0.00    +0.314 A 
ATOM      8  O   LIG    1        9.531   1.151  -1.052  0.00  0.00    -0.262 OA
ATOM      9  C   LIG    1        7.575   1.985  -2.056  0.00  0.00    +0.314 A 
ATOM     10  O   LIG    1        8.178   2.591  -2.918  0.00  0.00    -0.262 OA
ATOM     11  C   LIG    1        5.535  -0.108   0.917  0.00  0.00    +0.062 A 
ATOM     12  N   LIG    1        6.228   2.018  -2.015  0.00  0.00    -0.316 N 
ATOM     13  H   LIG    1        5.736   2.529  -2.678  0.00  0.00    +0.169 HD
ATOM     14  C   LIG    1        4.157  -0.057   0.949  0.00  0.00    +0.147 A 
ENDROOT
BRANCH   1  17
ATOM     15  C   LIG    1       -0.042   0.540  -0.531  0.00  0.00    +0.130 A 
ATOM     16  C   LIG    1        1.211   0.335  -0.981  0.00  0.00    +0.112 A 
ATOM     17  N   LIG    1        2.061   0.716   0.024  0.00  0.00    -0.304 N 
ATOM     18  C   LIG    1        1.290   1.143   1.057  0.00  0.00    +0.204 A 
ATOM     19  N   LIG    1        0.036   1.033   0.713  0.00  0.00    -0.244 NA
ENDBRANCH   1  17
BRANCH  14  20
ATOM     20  N   LIG    1        3.415  -0.789   2.001  0.00  0.00    +0.008 N 
ATOM     21  O   LIG    1        4.016  -1.326   2.902  0.00  0.00    -0.130 OA
BRANCH  20  22
ATOM     22  O   LIG    1        2.209  -0.849   1.959  0.00  0.00    -0.396 OA
ATOM     23  H   LIG    1        1.743  -0.432   1.260  0.00  0.00    +0.329 HD
ENDBRANCH  20  22
ENDBRANCH  14  20
TORSDOF 3
