REMARK  Name = ZINC19458660
REMARK                            x       y       z     vdW  Elec       q    Type
REMARK                         _______ _______ _______ _____ _____    ______ ____
ROOT
ATOM      1  N   LIG    1       -0.546   3.058   0.927  0.00  0.00    -0.305 N 
ATOM      2  H   LIG    1       -1.430   3.589   0.544  0.00  0.00    +0.150 HD
ATOM      3  C   LIG    1        0.450   3.747   1.518  0.00  0.00    +0.245 C 
ATOM      4  O   LIG    1        1.427   3.160   1.941  0.00  0.00    -0.270 OA
ENDROOT
BRANCH   3   5
ATOM      5  C   LIG    1        0.355   5.216   1.652  0.00  0.00    +0.042 A 
ATOM      6  C   LIG    1       -0.706   5.907   1.063  0.00  0.00    +0.013 A 
ATOM      7  C   LIG    1       -0.791   7.277   1.196  0.00  0.00    +0.001 A 
ATOM      8  C   LIG    1        0.177   7.968   1.902  0.00  0.00    +0.000 A 
ATOM      9  C   LIG    1        1.234   7.291   2.483  0.00  0.00    +0.006 A 
ATOM     10  C   LIG    1        1.329   5.920   2.362  0.00  0.00    -0.014 A 
BRANCH  10  11
ATOM     11  C   LIG    1        2.480   5.183   2.997  0.00  0.00    +0.181 C 
BRANCH  11  12
ATOM     12  N   LIG    1        3.527   4.959   1.997  0.00  0.00    -0.248 N 
ATOM     13  C   LIG    1        4.818   5.324   2.086  0.00  0.00    +0.219 A 
ATOM     14  N   LIG    1        5.425   4.942   0.992  0.00  0.00    -0.223 NA
ATOM     15  C   LIG    1        4.556   4.341   0.180  0.00  0.00    +0.245 A 
ATOM     16  N   LIG    1        3.380   4.327   0.751  0.00  0.00    -0.158 NA
ENDBRANCH  11  12
ENDBRANCH  10  11
ENDBRANCH   3   5
BRANCH   1  18
ATOM     17  C   LIG    1        0.339   1.255  -0.468  0.00  0.00    +0.033 C 
ATOM     18  C   LIG    1       -0.452   1.602   0.794  0.00  0.00    +0.100 C 
BRANCH  18  19
ATOM     19  C   LIG    1       -1.837   1.016   0.697  0.00  0.00    -0.025 A 
ATOM     20  C   LIG    1       -2.810   1.663  -0.043  0.00  0.00    +0.009 A 
ATOM     21  C   LIG    1       -4.079   1.127  -0.139  0.00  0.00    +0.049 A 
ATOM     22  C   LIG    1       -4.382  -0.058   0.516  0.00  0.00    +0.155 A 
ATOM     23  C   LIG    1       -3.405  -0.704   1.263  0.00  0.00    +0.165 A 
ATOM     24  F   LIG    1       -3.696  -1.858   1.903  0.00  0.00    -0.202 F 
ATOM     25  C   LIG    1       -2.135  -0.165   1.351  0.00  0.00    +0.047 A 
BRANCH  22  26
ATOM     26  O   LIG    1       -5.632  -0.585   0.427  0.00  0.00    -0.492 OA
ATOM     27  C   LIG    1       -6.585   0.134  -0.358  0.00  0.00    +0.277 C 
ENDBRANCH  22  26
ENDBRANCH  18  19
ENDBRANCH   1  18
TORSDOF 6
