REMARK  Name = ZINC40891656
REMARK                            x       y       z     vdW  Elec       q    Type
REMARK                         _______ _______ _______ _____ _____    ______ ____
ROOT
ATOM      1  C   LIG    1        3.759  -1.423   0.079  0.00  0.00    +0.139 A 
ATOM      2  C   LIG    1        3.828  -2.780   0.075  0.00  0.00    +0.098 A 
ATOM      3  C   LIG    1        5.094  -3.414   0.052  0.00  0.00    +0.197 A 
ATOM      4  C   LIG    1        6.285  -2.548   0.034  0.00  0.00    +0.105 A 
ATOM      5  C   LIG    1        7.577  -3.089   0.011  0.00  0.00    +0.135 A 
ATOM      6  C   LIG    1        8.669  -2.241  -0.006  0.00  0.00    +0.092 A 
ATOM      7  C   LIG    1        8.484  -0.863  -0.000  0.00  0.00    +0.128 A 
ATOM      8  C   LIG    1        7.209  -0.321   0.024  0.00  0.00    +0.092 A 
ATOM      9  C   LIG    1        6.101  -1.155   0.040  0.00  0.00    +0.146 A 
ATOM     10  O   LIG    1        5.194  -4.630   0.047  0.00  0.00    -0.287 OA
ATOM     11  O   LIG    1        4.852  -0.644   0.057  0.00  0.00    -0.454 OA
ENDROOT
BRANCH   1  15
ATOM     12  C   LIG    1       -0.064   0.426   0.145  0.00  0.00    +0.000 A 
ATOM     13  C   LIG    1        1.079   1.207   0.123  0.00  0.00    +0.001 A 
ATOM     14  C   LIG    1        2.324   0.613   0.102  0.00  0.00    +0.011 A 
ATOM     15  C   LIG    1        2.429  -0.780   0.102  0.00  0.00    +0.017 A 
ATOM     16  C   LIG    1        1.272  -1.561   0.125  0.00  0.00    +0.011 A 
ATOM     17  C   LIG    1        0.034  -0.954   0.146  0.00  0.00    +0.001 A 
ENDBRANCH   1  15
BRANCH   5  18
ATOM     18  O   LIG    1        7.755  -4.434   0.005  0.00  0.00    -0.506 OA
ATOM     19  H   LIG    1        7.792  -4.822  -0.880  0.00  0.00    +0.292 HD
ENDBRANCH   5  18
BRANCH   7  20
ATOM     20  O   LIG    1        9.564  -0.040  -0.017  0.00  0.00    -0.481 OA
BRANCH  20  21
ATOM     21  C   LIG    1       10.851  -0.659  -0.040  0.00  0.00    +0.349 C 
BRANCH  21  22
ATOM     22  C   LIG    1       11.920   0.404  -0.056  0.00  0.00    +0.345 C 
ATOM     23  O   LIG    1       11.610   1.571  -0.048  0.00  0.00    -0.247 OA
BRANCH  22  24
ATOM     24  O   LIG    1       13.215   0.053  -0.079  0.00  0.00    -0.456 OA
BRANCH  24  25
ATOM     25  C   LIG    1       14.174   1.112  -0.093  0.00  0.00    +0.294 C 
BRANCH  25  26
ATOM     26  C   LIG    1       15.564   0.531  -0.119  0.00  0.00    +0.163 A 
ATOM     27  C   LIG    1       16.413   0.299   1.047  0.00  0.00    +0.142 A 
ATOM     28  N   LIG    1       17.545  -0.215   0.636  0.00  0.00    -0.047 NA
ATOM     29  O   LIG    1       17.477  -0.334  -0.774  0.00  0.00    -0.230 OA
ATOM     30  N   LIG    1       16.208   0.147  -1.181  0.00  0.00    -0.012 N 
BRANCH  27  31
ATOM     31  C   LIG    1       16.054   0.597   2.456  0.00  0.00    +0.006 A 
ATOM     32  C   LIG    1       14.777   0.304   2.929  0.00  0.00    +0.010 A 
ATOM     33  C   LIG    1       14.449   0.582   4.240  0.00  0.00    +0.001 A 
ATOM     34  C   LIG    1       15.386   1.150   5.085  0.00  0.00    +0.000 A 
ATOM     35  C   LIG    1       16.655   1.443   4.620  0.00  0.00    +0.001 A 
ATOM     36  C   LIG    1       16.996   1.164   3.312  0.00  0.00    +0.010 A 
ENDBRANCH  27  31
BRANCH  30  37
ATOM     37  O   LIG    1       15.726   0.201  -2.512  0.00  0.00    -0.397 OA
ATOM     38  H   LIG    1       14.869   0.537  -2.686  0.00  0.00    +0.329 HD
ENDBRANCH  30  37
ENDBRANCH  25  26
ENDBRANCH  24  25
ENDBRANCH  22  24
ENDBRANCH  21  22
ENDBRANCH  20  21
ENDBRANCH   7  20
TORSDOF 10
