REMARK  Name = ZINC19795629
REMARK                            x       y       z     vdW  Elec       q    Type
REMARK                         _______ _______ _______ _____ _____    ______ ____
ROOT
ATOM      1  C   LIG    1        5.029  -3.261  -0.059  0.00  0.00    +0.001 A 
ATOM      2  C   LIG    1        5.609  -2.000  -0.058  0.00  0.00    +0.002 A 
ATOM      3  C   LIG    1        4.825  -0.866  -0.047  0.00  0.00    +0.027 A 
ATOM      4  C   LIG    1        3.440  -0.985  -0.035  0.00  0.00    +0.056 A 
ATOM      5  C   LIG    1        2.856  -2.264  -0.035  0.00  0.00    +0.006 A 
ATOM      6  C   LIG    1        1.410  -2.050  -0.021  0.00  0.00    +0.015 A 
ATOM      7  C   LIG    1        1.202  -0.709  -0.013  0.00  0.00    +0.147 A 
ATOM      8  N   LIG    1        0.002  -0.004   0.002  0.00  0.00    -0.194 NA
ATOM      9  C   LIG    1       -0.016   1.343   0.009  0.00  0.00    +0.224 A 
ATOM     10  C   LIG    1        1.265   2.071   0.001  0.00  0.00    +0.060 A 
ATOM     11  C   LIG    1        1.305   3.465   0.004  0.00  0.00    +0.015 A 
ATOM     12  C   LIG    1        2.523   4.112  -0.004  0.00  0.00    +0.001 A 
ATOM     13  C   LIG    1        3.702   3.384  -0.017  0.00  0.00    +0.002 A 
ATOM     14  C   LIG    1        3.676   2.003  -0.023  0.00  0.00    +0.027 A 
ATOM     15  C   LIG    1        2.460   1.337  -0.015  0.00  0.00    +0.061 A 
ATOM     16  N   LIG    1        2.411  -0.057  -0.021  0.00  0.00    -0.293 N 
ATOM     17  C   LIG    1        3.669  -3.400  -0.047  0.00  0.00    +0.010 A 
ENDROOT
BRANCH   9  18
ATOM     18  O   LIG    1       -1.071   1.948   0.018  0.00  0.00    -0.492 OA
ATOM     19  H   LIG    1       -1.075   2.885   0.023  0.00  0.00    +0.294 HD
ENDBRANCH   9  18
BRANCH   6  20
ATOM     20  C   LIG    1        0.349  -3.120  -0.015  0.00  0.00    +0.159 C 
BRANCH  20  21
ATOM     21  C   LIG    1       -0.018  -3.470  -1.435  0.00  0.00    +0.309 C 
ATOM     22  O   LIG    1        0.526  -2.909  -2.356  0.00  0.00    -0.251 OA
BRANCH  21  23
ATOM     23  O   LIG    1       -0.950  -4.406  -1.675  0.00  0.00    -0.480 OA
ATOM     24  H   LIG    1       -1.372  -4.842  -0.961  0.00  0.00    +0.295 HD
ENDBRANCH  21  23
ENDBRANCH  20  21
ENDBRANCH   6  20
TORSDOF 4
