REMARK  Name = ZINC13779018
REMARK                            x       y       z     vdW  Elec       q    Type
REMARK                         _______ _______ _______ _____ _____    ______ ____
ROOT
ATOM      1  C   LIG    1       -0.019   1.526   0.010  0.00  0.00    +0.196 C 
ENDROOT
BRANCH   1   2
ATOM      2  N   LIG    1        1.356   2.033   0.000  0.00  0.00    -0.151 N 
ATOM      3  C   LIG    1        2.197   2.061  -1.050  0.00  0.00    +0.331 A 
ATOM      4  N   LIG    1        3.341   2.590  -0.663  0.00  0.00    -0.119 NA
ATOM      5  C   LIG    1        3.283   2.918   0.628  0.00  0.00    +0.463 A 
ATOM      6  O   LIG    1        4.182   3.426   1.275  0.00  0.00    -0.219 OA
ATOM      7  O   LIG    1        2.063   2.598   1.094  0.00  0.00    -0.315 OA
BRANCH   3   8
ATOM      8  O   LIG    1        1.917   1.620  -2.294  0.00  0.00    -0.478 OA
ATOM      9  H   LIG    1        2.646   1.721  -2.921  0.00  0.00    +0.295 HD
ENDBRANCH   3   8
ENDBRANCH   1   2
BRANCH   1  10
ATOM     10  CA  LIG    1        0.002  -0.004   0.002  0.00  0.00    +0.184 C 
BRANCH  10  11
ATOM     11  N   LIG    1        0.792  -0.477  -1.143  0.00  0.00    -0.317 NA
ATOM     12  H1  LIG    1        0.397  -0.154  -2.013  0.00  0.00    +0.119 HD
ATOM     13  H2  LIG    1        0.875  -1.482  -1.134  0.00  0.00    +0.119 HD
ENDBRANCH  10  11
BRANCH  10  14
ATOM     14  C   LIG    1       -1.407  -0.525  -0.111  0.00  0.00    +0.324 C 
ATOM     15  O   LIG    1       -1.830  -0.897  -1.180  0.00  0.00    -0.249 OA
BRANCH  14  16
ATOM     16  OXT LIG    1       -2.194  -0.575   0.976  0.00  0.00    -0.479 OA
ATOM     17  HXT LIG    1       -3.079  -0.923   0.804  0.00  0.00    +0.295 HD
ENDBRANCH  14  16
ENDBRANCH  10  14
ENDBRANCH   1  10
TORSDOF 6
