REMARK  Name = ZINC14243646
REMARK                            x       y       z     vdW  Elec       q    Type
REMARK                         _______ _______ _______ _____ _____    ______ ____
ROOT
ATOM      1  N   LIG    1        7.979 -15.855 -12.179  0.00  0.00    -0.281 N 
ATOM      2  H   LIG    1        8.280 -15.377 -12.968  0.00  0.00    +0.152 HD
ATOM      3  C   LIG    1        8.099 -17.195 -12.116  0.00  0.00    +0.400 C 
ATOM      4  O   LIG    1        7.722 -17.793 -11.127  0.00  0.00    -0.226 OA
ENDROOT
BRANCH   3   5
ATOM      5  O   LIG    1        8.637 -17.873 -13.147  0.00  0.00    -0.448 OA
BRANCH   5   6
ATOM      6  C   LIG    1        8.734 -19.292 -13.012  0.00  0.00    +0.268 C 
BRANCH   6   7
ATOM      7  C   LIG    1        9.366 -19.883 -14.274  0.00  0.00    +0.193 C 
BRANCH   7   8
ATOM      8  O   LIG    1        8.496 -19.667 -15.388  0.00  0.00    -0.373 OA
ATOM      9  C   LIG    1        9.170 -19.599 -16.646  0.00  0.00    +0.194 C 
ENDBRANCH   7   8
BRANCH   7  10
ATOM     10  C   LIG    1        9.584 -21.384 -14.080  0.00  0.00    +0.268 C 
BRANCH  10  11
ATOM     11  O   LIG    1       10.304 -21.909 -15.197  0.00  0.00    -0.447 OA
BRANCH  11  12
ATOM     12  C   LIG    1       10.490 -23.242 -15.233  0.00  0.00    +0.409 C 
ATOM     13  N   LIG    1       11.073 -23.812 -16.306  0.00  0.00    -0.206 N 
ATOM     14  C   LIG    1       11.118 -25.155 -16.414  0.00  0.00    +0.221 C 
ATOM     15  C   LIG    1       10.351 -26.015 -15.443  0.00  0.00    +0.110 C 
ATOM     16  O   LIG    1       11.775 -25.671 -17.292  0.00  0.00    -0.275 OA
ATOM     17  O   LIG    1       10.133 -23.930 -14.298  0.00  0.00    -0.226 OA
BRANCH  13  18
ATOM     18  C   LIG    1       11.659 -22.973 -17.354  0.00  0.00    +0.138 C 
BRANCH  18  19
ATOM     19  C   LIG    1       13.134 -22.806 -17.098  0.00  0.00    +0.075 C 
ATOM     20  C   LIG    1       13.627 -22.962 -15.816  0.00  0.00    +0.020 C 
ATOM     21  C   LIG    1       14.986 -22.805 -15.591  0.00  0.00    +0.003 C 
ATOM     22  C   LIG    1       15.802 -22.497 -16.669  0.00  0.00    +0.015 C 
ATOM     23  C   LIG    1       15.238 -22.356 -17.923  0.00  0.00    +0.085 C 
ATOM     24  N   LIG    1       13.941 -22.517 -18.100  0.00  0.00    -0.298 NA
BRANCH  24  25
ATOM     25  C   LIG    1       13.381 -22.366 -19.446  0.00  0.00    +0.081 C 
ATOM     26  C   LIG    1       12.898 -20.927 -19.638  0.00  0.00    +0.020 C 
ENDBRANCH  24  25
ENDBRANCH  18  19
ENDBRANCH  13  18
ENDBRANCH  11  12
ENDBRANCH  10  11
ENDBRANCH   7  10
ENDBRANCH   6   7
ENDBRANCH   5   6
ENDBRANCH   3   5
BRANCH   1  27
ATOM     27  C   LIG    1        7.393 -15.118 -11.056  0.00  0.00    +0.107 C 
BRANCH  27  28
ATOM     28  C   LIG    1        7.373 -13.623 -11.382  0.00  0.00    +0.019 C 
BRANCH  28  29
ATOM     29  C   LIG    1        6.762 -12.854 -10.209  0.00  0.00    +0.002 C 
BRANCH  29  30
ATOM     30  C   LIG    1        6.742 -11.359 -10.535  0.00  0.00    +0.000 C 
BRANCH  30  31
ATOM     31  C   LIG    1        6.131 -10.589  -9.362  0.00  0.00    +0.000 C 
BRANCH  31  32
ATOM     32  C   LIG    1        6.111  -9.095  -9.688  0.00  0.00    +0.000 C 
BRANCH  32  33
ATOM     33  C   LIG    1        5.500  -8.325  -8.515  0.00  0.00    -0.000 C 
BRANCH  33  34
ATOM     34  C   LIG    1        5.480  -6.830  -8.841  0.00  0.00    -0.000 C 
BRANCH  34  35
ATOM     35  C   LIG    1        4.869  -6.061  -7.669  0.00  0.00    -0.000 C 
BRANCH  35  36
ATOM     36  C   LIG    1        4.849  -4.566  -7.994  0.00  0.00    -0.000 C 
BRANCH  36  37
ATOM     37  C   LIG    1        4.237  -3.797  -6.822  0.00  0.00    -0.000 C 
BRANCH  37  38
ATOM     38  C   LIG    1        4.218  -2.302  -7.147  0.00  0.00    -0.000 C 
BRANCH  38  39
ATOM     39  C   LIG    1        3.606  -1.532  -5.975  0.00  0.00    -0.000 C 
BRANCH  39  40
ATOM     40  C   LIG    1        3.587  -0.037  -6.301  0.00  0.00    -0.000 C 
BRANCH  40  41
ATOM     41  C   LIG    1        2.975   0.732  -5.128  0.00  0.00    -0.000 C 
BRANCH  41  42
ATOM     42  C   LIG    1        2.956   2.227  -5.454  0.00  0.00    -0.000 C 
BRANCH  42  44
ATOM     43  C   LIG    1        2.324   4.491  -4.607  0.00  0.00    +0.004 C 
ATOM     44  C   LIG    1        2.344   2.996  -4.281  0.00  0.00    -0.003 C 
ENDBRANCH  42  44
ENDBRANCH  41  42
ENDBRANCH  40  41
ENDBRANCH  39  40
ENDBRANCH  38  39
ENDBRANCH  37  38
ENDBRANCH  36  37
ENDBRANCH  35  36
ENDBRANCH  34  35
ENDBRANCH  33  34
ENDBRANCH  32  33
ENDBRANCH  31  32
ENDBRANCH  30  31
ENDBRANCH  29  30
ENDBRANCH  28  29
ENDBRANCH  27  28
ENDBRANCH   1  27
TORSDOF 27
