REMARK  Name = ZINC19371672
REMARK                            x       y       z     vdW  Elec       q    Type
REMARK                         _______ _______ _______ _____ _____    ______ ____
ROOT
ATOM      1  C   LIG    1        4.441   0.209  -4.504  0.00  0.00    +0.118 C 
ENDROOT
BRANCH   1   2
ATOM      2  N   LIG    1        4.934  -0.790  -5.461  0.00  0.00    -0.286 NA
ATOM      3  C   LIG    1        5.875  -0.187  -6.415  0.00  0.00    +0.104 C 
ATOM      4  C   LIG    1        6.425  -1.274  -7.341  0.00  0.00    +0.068 C 
ATOM      5  C   LIG    1        7.374  -0.643  -8.362  0.00  0.00    +0.025 C 
ATOM      6  N   LIG    1        5.310  -1.924  -8.045  0.00  0.00    -0.293 NA
ATOM      7  C   LIG    1        4.369  -2.527  -7.091  0.00  0.00    +0.103 C 
ATOM      8  C   LIG    1        3.819  -1.440  -6.164  0.00  0.00    +0.069 C 
ATOM      9  C   LIG    1        2.870  -2.071  -5.144  0.00  0.00    +0.025 C 
BRANCH   6  10
ATOM     10  C   LIG    1        5.803  -2.923  -9.002  0.00  0.00    +0.111 C 
BRANCH  10  11
ATOM     11  C   LIG    1        4.664  -3.389  -9.873  0.00  0.00    -0.019 C 
ATOM     12  C   LIG    1        4.764  -3.314 -11.177  0.00  0.00    +0.005 C 
ENDBRANCH  10  11
ENDBRANCH   6  10
ENDBRANCH   1   2
BRANCH   1  16
ATOM     13  C   LIG    1        2.879  -1.772  -1.051  0.00  0.00    +0.037 A 
ATOM     14  C   LIG    1        2.209  -0.674  -1.592  0.00  0.00    +0.013 A 
ATOM     15  C   LIG    1        2.719  -0.039  -2.706  0.00  0.00    +0.006 A 
ATOM     16  C   LIG    1        3.891  -0.489  -3.287  0.00  0.00    -0.026 A 
ATOM     17  C   LIG    1        4.560  -1.577  -2.756  0.00  0.00    +0.006 A 
ATOM     18  C   LIG    1        4.064  -2.217  -1.638  0.00  0.00    +0.013 A 
BRANCH  13  20
ATOM     19  N   LIG    1        1.028  -2.763   0.209  0.00  0.00    -0.298 N 
ATOM     20  C   LIG    1        2.339  -2.457   0.143  0.00  0.00    +0.247 C 
ATOM     21  O   LIG    1        3.078  -2.744   1.065  0.00  0.00    -0.270 OA
BRANCH  19  23
ATOM     22  C   LIG    1        0.466  -4.909   1.238  0.00  0.00    +0.024 C 
ATOM     23  C   LIG    1        0.482  -3.389   1.415  0.00  0.00    +0.104 C 
ENDBRANCH  19  23
BRANCH  19  24
ATOM     24  C   LIG    1        0.149  -2.468  -0.925  0.00  0.00    +0.104 C 
ATOM     25  C   LIG    1       -0.641  -1.190  -0.639  0.00  0.00    +0.024 C 
ENDBRANCH  19  24
ENDBRANCH  13  20
ENDBRANCH   1  16
BRANCH   1  26
ATOM     26  C   LIG    1        5.575   1.114  -4.094  0.00  0.00    -0.022 A 
ATOM     27  C   LIG    1        6.747   0.572  -3.598  0.00  0.00    +0.006 A 
ATOM     28  C   LIG    1        7.788   1.399  -3.221  0.00  0.00    +0.004 A 
ATOM     29  C   LIG    1        7.661   2.770  -3.339  0.00  0.00    +0.045 A 
ATOM     30  C   LIG    1        6.487   3.316  -3.837  0.00  0.00    +0.120 A 
ATOM     31  C   LIG    1        5.445   2.483  -4.220  0.00  0.00    +0.051 A 
BRANCH  30  32
ATOM     32  O   LIG    1        6.359   4.664  -3.954  0.00  0.00    -0.495 OA
ATOM     33  C   LIG    1        7.474   5.459  -3.546  0.00  0.00    +0.277 C 
ENDBRANCH  30  32
ENDBRANCH   1  26
TORSDOF 9
