REMARK  Name = ZINC45245466
REMARK                            x       y       z     vdW  Elec       q    Type
REMARK                         _______ _______ _______ _____ _____    ______ ____
ROOT
ATOM      1  C   LIG    1        0.108   0.192   2.387  0.00  0.00    +0.074 A 
ATOM      2  C   LIG    1       -0.034   1.527   2.455  0.00  0.00    +0.121 A 
ATOM      3  N   LIG    1        0.070   1.907   3.778  0.00  0.00    -0.277 N 
ATOM      4  C   LIG    1        0.047   2.983   4.653  0.00  0.00    +0.157 A 
ATOM      5  C   LIG    1       -0.125   4.369   4.503  0.00  0.00    +0.280 A 
ATOM      6  N   LIG    1       -0.092   5.161   5.594  0.00  0.00    -0.273 N 
ATOM      7  C   LIG    1        0.102   4.645   6.820  0.00  0.00    +0.331 A 
ATOM      8  N   LIG    1        0.271   3.323   7.011  0.00  0.00    -0.280 N 
ATOM      9  C   LIG    1        0.480   2.799   8.364  0.00  0.00    +0.155 C 
ATOM     10  O   LIG    1        0.124   5.390   7.780  0.00  0.00    -0.246 OA
ATOM     11  H   LIG    1       -0.211   6.118   5.493  0.00  0.00    +0.173 HD
ATOM     12  O   LIG    1       -0.303   4.851   3.398  0.00  0.00    -0.265 OA
ATOM     13  C   LIG    1        0.248   2.457   5.928  0.00  0.00    +0.170 A 
ATOM     14  N   LIG    1        0.382   1.139   5.803  0.00  0.00    -0.193 NA
ATOM     15  C   LIG    1        0.279   0.792   4.529  0.00  0.00    +0.223 A 
ATOM     16  N   LIG    1        0.299  -0.284   3.678  0.00  0.00    -0.275 N 
ENDROOT
BRANCH   1  23
ATOM     17  C   LIG    1       -2.357   0.001   0.888  0.00  0.00    +0.044 C 
ATOM     18  C   LIG    1       -1.121  -0.725   0.423  0.00  0.00    -0.041 A 
ATOM     19  C   LIG    1       -1.158  -1.484  -0.729  0.00  0.00    +0.007 A 
ATOM     20  C   LIG    1       -0.027  -2.152  -1.158  0.00  0.00    +0.046 A 
ATOM     21  C   LIG    1        1.155  -2.063  -0.434  0.00  0.00    +0.118 A 
ATOM     22  C   LIG    1        1.202  -1.304   0.723  0.00  0.00    +0.055 A 
ATOM     23  C   LIG    1        0.063  -0.626   1.155  0.00  0.00    +0.007 A 
BRANCH  21  24
ATOM     24  O   LIG    1        2.264  -2.723  -0.860  0.00  0.00    -0.507 OA
ATOM     25  H   LIG    1        2.823  -2.207  -1.457  0.00  0.00    +0.292 HD
ENDBRANCH  21  24
ENDBRANCH   1  23
BRANCH  16  26
ATOM     26  C   LIG    1        0.482  -1.625   4.045  0.00  0.00    +0.091 A 
ATOM     27  C   LIG    1        1.760  -2.161   4.105  0.00  0.00    +0.030 A 
ATOM     28  C   LIG    1        1.938  -3.483   4.467  0.00  0.00    +0.002 A 
ATOM     29  C   LIG    1        0.845  -4.274   4.771  0.00  0.00    +0.004 A 
ATOM     30  C   LIG    1       -0.432  -3.746   4.713  0.00  0.00    +0.048 A 
ATOM     31  C   LIG    1       -0.619  -2.420   4.357  0.00  0.00    +0.144 A 
BRANCH  31  32
ATOM     32  O   LIG    1       -1.873  -1.898   4.307  0.00  0.00    -0.493 OA
ATOM     33  C   LIG    1       -2.953  -2.772   4.639  0.00  0.00    +0.277 C 
ENDBRANCH  31  32
ENDBRANCH  16  26
TORSDOF 4
