REMARK  Name = ZINC15018459
REMARK                            x       y       z     vdW  Elec       q    Type
REMARK                         _______ _______ _______ _____ _____    ______ ____
ROOT
ATOM      1  C   LIG    1        5.689   3.506  -0.318  0.00  0.00    +0.102 C 
ATOM      2  N   LIG    1        5.962   2.212  -0.350  0.00  0.00    -0.168 NA
ATOM      3  C   LIG    1        5.027   1.291  -0.258  0.00  0.00    +0.275 C 
ATOM      4  C   LIG    1        3.634   1.780  -0.126  0.00  0.00    +0.078 C 
ATOM      5  C   LIG    1        2.474   1.083  -0.016  0.00  0.00    +0.028 C 
ATOM      6  O   LIG    1        5.292   0.100  -0.282  0.00  0.00    -0.267 OA
ATOM      7  S   LIG    1        3.912   3.547  -0.145  0.00  0.00    -0.066 S 
ENDROOT
BRANCH   1  12
ATOM      8  C   LIG    1        9.346   7.935  -0.655  0.00  0.00    +0.044 C 
ATOM      9  C   LIG    1        8.388   6.775  -0.566  0.00  0.00    -0.050 A 
ATOM     10  C   LIG    1        8.870   5.479  -0.618  0.00  0.00    +0.004 A 
ATOM     11  C   LIG    1        7.999   4.412  -0.538  0.00  0.00    +0.010 A 
ATOM     12  C   LIG    1        6.628   4.643  -0.404  0.00  0.00    +0.005 A 
ATOM     13  C   LIG    1        6.148   5.954  -0.357  0.00  0.00    +0.010 A 
ATOM     14  C   LIG    1        7.031   7.011  -0.433  0.00  0.00    +0.004 A 
ENDBRANCH   1  12
BRANCH   5  15
ATOM     15  C   LIG    1        1.186   1.789  -0.057  0.00  0.00    -0.022 A 
ATOM     16  C   LIG    1       -0.001   1.104   0.229  0.00  0.00    +0.008 A 
ATOM     17  C   LIG    1       -1.205   1.773   0.189  0.00  0.00    +0.002 A 
ATOM     18  C   LIG    1       -1.244   3.119  -0.131  0.00  0.00    +0.020 A 
ATOM     19  C   LIG    1       -0.074   3.807  -0.409  0.00  0.00    +0.042 A 
ATOM     20 CL   LIG    1       -0.134   5.496  -0.802  0.00  0.00    -0.084 Cl
ATOM     21  C   LIG    1        1.140   3.150  -0.380  0.00  0.00    +0.028 A 
ENDBRANCH   5  15
TORSDOF 2
