REMARK  Name = ZINC27638522
REMARK                            x       y       z     vdW  Elec       q    Type
REMARK                         _______ _______ _______ _____ _____    ______ ____
ROOT
ATOM      1  C   LIG    1       -2.396   5.432  -4.414  0.00  0.00    +0.000 C 
ENDROOT
BRANCH   1   2
ATOM      2  C   LIG    1       -1.693   5.044  -3.111  0.00  0.00    +0.009 C 
BRANCH   2   3
ATOM      3  C   LIG    1       -1.636   3.519  -2.997  0.00  0.00    +0.097 C 
BRANCH   3   5
ATOM      4  N   LIG    1       -0.778   1.837  -1.400  0.00  0.00    -0.101 NA
ATOM      5  C   LIG    1       -0.944   3.137  -1.714  0.00  0.00    +0.206 C 
BRANCH   4   7
ATOM      6  C   LIG    1       -1.110   2.020   1.327  0.00  0.00    +0.223 C 
ATOM      7  S   LIG    1       -0.017   1.417   0.010  0.00  0.00    +0.070 S 
ATOM      8  O   LIG    1        1.195   2.158   0.002  0.00  0.00    -0.152 OA
ATOM      9  O   LIG    1        0.002  -0.004   0.002  0.00  0.00    -0.152 OA
ENDBRANCH   4   7
BRANCH   5  10
ATOM     10  O   LIG    1       -0.536   3.999  -0.965  0.00  0.00    -0.495 OA
ATOM     11  H   LIG    1       -0.106   3.761  -0.168  0.00  0.00    +0.293 HD
ENDBRANCH   5  10
ENDBRANCH   3   5
ENDBRANCH   2   3
ENDBRANCH   1   2
BRANCH   1  12
ATOM     12  C   LIG    1       -2.453   6.956  -4.528  0.00  0.00    +0.000 C 
BRANCH  12  13
ATOM     13  C   LIG    1       -3.156   7.345  -5.830  0.00  0.00    +0.000 C 
BRANCH  13  14
ATOM     14  C   LIG    1       -3.213   8.869  -5.944  0.00  0.00    +0.000 C 
BRANCH  14  15
ATOM     15  C   LIG    1       -3.916   9.257  -7.247  0.00  0.00    +0.000 C 
BRANCH  15  16
ATOM     16  C   LIG    1       -3.972  10.782  -7.361  0.00  0.00    +0.004 C 
BRANCH  16  17
ATOM     17  C   LIG    1       -4.675  11.170  -8.664  0.00  0.00    +0.029 C 
BRANCH  17  18
ATOM     18  C   LIG    1       -4.731  12.672  -8.776  0.00  0.00    -0.004 C 
ATOM     19  C   LIG    1       -4.246  13.269  -9.839  0.00  0.00    +0.057 C 
ATOM     20 BR   LIG    1       -4.316  15.153  -9.980  0.00  0.00    -0.043 Br
ATOM     21 BR   LIG    1       -3.476  12.245 -11.230  0.00  0.00    -0.043 Br
ENDBRANCH  17  18
ENDBRANCH  16  17
ENDBRANCH  15  16
ENDBRANCH  14  15
ENDBRANCH  13  14
ENDBRANCH  12  13
ENDBRANCH   1  12
TORSDOF 12
