REMARK  Name = ZINC14951176
REMARK                            x       y       z     vdW  Elec       q    Type
REMARK                         _______ _______ _______ _____ _____    ______ ____
ROOT
ATOM      1  C   LIG    1       -1.265  -0.774   0.122  0.00  0.00    +0.117 A 
ATOM      2  N   LIG    1       -2.510  -0.217   0.124  0.00  0.00    -0.339 N 
ATOM      3  C   LIG    1       -3.415  -1.246  -0.027  0.00  0.00    +0.072 A 
ATOM      4  C   LIG    1       -2.671  -2.410  -0.116  0.00  0.00    +0.072 A 
ATOM      5  H   LIG    1       -2.720   0.725   0.214  0.00  0.00    +0.167 HD
ATOM      6  N   LIG    1       -1.374  -2.075  -0.026  0.00  0.00    -0.339 N 
ATOM      7  H   LIG    1       -0.632  -2.699  -0.063  0.00  0.00    +0.167 HD
ENDROOT
BRANCH   4   8
ATOM      8  C   LIG    1       -3.210  -3.780  -0.286  0.00  0.00    +0.001 A 
ATOM      9  C   LIG    1       -4.183  -4.034  -1.252  0.00  0.00    +0.013 A 
ATOM     10  C   LIG    1       -4.682  -5.311  -1.407  0.00  0.00    +0.039 A 
ATOM     11  C   LIG    1       -4.216  -6.341  -0.605  0.00  0.00    +0.123 A 
ATOM     12  F   LIG    1       -4.708  -7.590  -0.760  0.00  0.00    -0.205 F 
ATOM     13  C   LIG    1       -3.249  -6.093   0.356  0.00  0.00    +0.039 A 
ATOM     14  C   LIG    1       -2.741  -4.821   0.515  0.00  0.00    +0.013 A 
ENDBRANCH   4   8
BRANCH   1  20
ATOM     15  C   LIG    1       -0.008   1.356   0.413  0.00  0.00    +0.015 A 
ATOM     16  C   LIG    1        1.179   2.045   0.541  0.00  0.00    +0.046 A 
ATOM     17  C   LIG    1        2.387   1.360   0.518  0.00  0.00    +0.117 A 
ATOM     18  C   LIG    1        2.405  -0.021   0.366  0.00  0.00    +0.046 A 
ATOM     19  C   LIG    1        1.222  -0.716   0.236  0.00  0.00    +0.015 A 
ATOM     20  C   LIG    1        0.005  -0.032   0.260  0.00  0.00    +0.016 A 
BRANCH  17  21
ATOM     21  O   LIG    1        3.555   2.042   0.645  0.00  0.00    -0.507 OA
ATOM     22  H   LIG    1        3.854   2.143   1.559  0.00  0.00    +0.292 HD
ENDBRANCH  17  21
ENDBRANCH   1  20
BRANCH   3  23
ATOM     23  C   LIG    1       -4.884  -1.129  -0.082  0.00  0.00    +0.003 A 
ATOM     24  C   LIG    1       -5.703  -1.974   0.680  0.00  0.00    +0.030 A 
ATOM     25  C   LIG    1       -7.072  -1.829   0.597  0.00  0.00    +0.111 A 
ATOM     26  N   LIG    1       -7.611  -0.912  -0.184  0.00  0.00    -0.263 NA
ATOM     27  C   LIG    1       -6.877  -0.096  -0.918  0.00  0.00    +0.111 A 
ATOM     28  C   LIG    1       -5.500  -0.166  -0.894  0.00  0.00    +0.030 A 
ENDBRANCH   3  23
TORSDOF 4
