REMARK  Name = ZINC26384924
REMARK                            x       y       z     vdW  Elec       q    Type
REMARK                         _______ _______ _______ _____ _____    ______ ____
ROOT
ATOM      1  C   LIG    1       -2.338  -0.594   0.254  0.00  0.00    +0.338 C 
ATOM      2  O   LIG    1       -2.413   0.620   0.312  0.00  0.00    -0.245 OA
ENDROOT
BRANCH   1   5
ATOM      3  C   LIG    1       -0.020   1.005   0.435  0.00  0.00    +0.066 C 
ATOM      4  C   LIG    1        0.072  -0.497   0.364  0.00  0.00    +0.049 C 
ATOM      5  C   LIG    1       -1.081  -1.223   0.277  0.00  0.00    +0.069 C 
ATOM      6  C   LIG    1       -0.956  -2.734   0.207  0.00  0.00    +0.096 C 
ATOM      7  C   LIG    1        0.460  -3.284   0.241  0.00  0.00    +0.065 C 
ATOM      8  C   LIG    1        1.499  -2.356   0.334  0.00  0.00    +0.049 C 
ATOM      9  C   LIG    1        2.922  -2.850   0.371  0.00  0.00    +0.066 C 
ATOM     10  C   LIG    1        0.707  -4.638   0.184  0.00  0.00    +0.285 C 
ATOM     11  N   LIG    1        1.269  -1.064   0.383  0.00  0.00    -0.256 NA
BRANCH   6  12
ATOM     12  C   LIG    1       -1.607  -3.202  -1.069  0.00  0.00    -0.033 A 
ATOM     13  C   LIG    1       -1.135  -2.756  -2.290  0.00  0.00    +0.005 A 
ATOM     14  C   LIG    1       -1.732  -3.185  -3.460  0.00  0.00    +0.003 A 
ATOM     15  C   LIG    1       -2.802  -4.060  -3.410  0.00  0.00    +0.032 A 
ATOM     16  C   LIG    1       -3.273  -4.506  -2.190  0.00  0.00    +0.122 A 
ATOM     17  C   LIG    1       -2.673  -4.080  -1.019  0.00  0.00    +0.037 A 
BRANCH  16  18
ATOM     18  N   LIG    1       -4.418  -5.442  -2.136  0.00  0.00    +0.006 N 
ATOM     19  O   LIG    1       -4.941  -5.816  -3.160  0.00  0.00    -0.130 OA
BRANCH  18  20
ATOM     20  O   LIG    1       -4.831  -5.832  -1.069  0.00  0.00    -0.396 OA
ATOM     21  H   LIG    1       -4.425  -5.542  -0.276  0.00  0.00    +0.329 HD
ENDBRANCH  18  20
ENDBRANCH  16  18
ENDBRANCH   6  12
BRANCH  10  22
ATOM     22  O   LIG    1        1.974  -5.088   0.091  0.00  0.00    -0.467 OA
ATOM     23  C   LIG    1        2.156  -6.504   0.036  0.00  0.00    +0.280 C 
ENDBRANCH  10  22
BRANCH  10  24
ATOM     24  O   LIG    1       -0.318  -5.512   0.220  0.00  0.00    -0.480 OA
ATOM     25  H   LIG    1       -1.199  -5.199   0.284  0.00  0.00    +0.295 HD
ENDBRANCH  10  24
ENDBRANCH   1   5
BRANCH   1  26
ATOM     26  O   LIG    1       -3.463  -1.337   0.167  0.00  0.00    -0.461 OA
BRANCH  26  27
ATOM     27  C   LIG    1       -4.706  -0.632   0.149  0.00  0.00    +0.230 C 
BRANCH  27  28
ATOM     28  C   LIG    1       -5.859  -1.633   0.048  0.00  0.00    +0.023 C 
BRANCH  28  29
ATOM     29  C   LIG    1       -7.189  -0.877   0.028  0.00  0.00    -0.076 C 
BRANCH  29  30
ATOM     30  N   LIG    1       -8.296  -1.839  -0.069  0.00  0.00    +0.380 N 
ATOM     31  H   LIG    1       -8.158  -2.429  -0.876  0.00  0.00    -0.082 HD
ATOM     32  C   LIG    1       -8.329  -2.668   1.141  0.00  0.00    -0.078 C 
ATOM     33  C   LIG    1       -9.429  -3.724   1.010  0.00  0.00    -0.003 C 
ATOM     34  C   LIG    1      -10.780  -3.026   0.831  0.00  0.00    +0.017 C 
ATOM     35  C   LIG    1      -10.710  -2.107  -0.391  0.00  0.00    -0.003 C 
ATOM     36  C   LIG    1       -9.563  -1.111  -0.209  0.00  0.00    -0.078 C 
BRANCH  34  37
ATOM     37  C   LIG    1      -11.857  -4.060   0.623  0.00  0.00    -0.037 A 
ATOM     38  C   LIG    1      -11.522  -5.397   0.524  0.00  0.00    +0.004 A 
ATOM     39  C   LIG    1      -12.510  -6.345   0.334  0.00  0.00    +0.000 A 
ATOM     40  C   LIG    1      -13.833  -5.956   0.243  0.00  0.00    +0.000 A 
ATOM     41  C   LIG    1      -14.168  -4.618   0.343  0.00  0.00    +0.000 A 
ATOM     42  C   LIG    1      -13.181  -3.671   0.538  0.00  0.00    +0.004 A 
ENDBRANCH  34  37
BRANCH  34  43
ATOM     43  C   LIG    1      -11.092  -2.210   2.059  0.00  0.00    -0.037 A 
ATOM     44  C   LIG    1      -11.452  -0.881   1.932  0.00  0.00    +0.004 A 
ATOM     45  C   LIG    1      -11.739  -0.133   3.058  0.00  0.00    +0.000 A 
ATOM     46  C   LIG    1      -11.666  -0.713   4.311  0.00  0.00    +0.000 A 
ATOM     47  C   LIG    1      -11.307  -2.042   4.437  0.00  0.00    +0.000 A 
ATOM     48  C   LIG    1      -11.025  -2.792   3.311  0.00  0.00    +0.004 A 
ENDBRANCH  34  43
ENDBRANCH  29  30
ENDBRANCH  28  29
ENDBRANCH  27  28
ENDBRANCH  26  27
ENDBRANCH   1  26
TORSDOF 13
