REMARK  Name = ZINC19866683
REMARK                            x       y       z     vdW  Elec       q    Type
REMARK                         _______ _______ _______ _____ _____    ______ ____
ROOT
ATOM      1  C   LIG    1        8.988  -3.472  -0.274  0.00  0.00    +0.247 C 
ATOM      2  N   LIG    1        8.104  -2.454  -0.308  0.00  0.00    -0.295 N 
ATOM      3  C   LIG    1        8.440  -1.143   0.267  0.00  0.00    +0.123 C 
ATOM      4  C   LIG    1        7.312  -0.724   1.216  0.00  0.00    +0.103 C 
ATOM      5  N   LIG    1        6.030  -0.779   0.500  0.00  0.00    -0.295 NA
ATOM      6  C   LIG    1        5.716  -2.149   0.073  0.00  0.00    +0.103 C 
ATOM      7  C   LIG    1        6.779  -2.626  -0.922  0.00  0.00    +0.123 C 
ATOM      8  O   LIG    1       10.104  -3.292   0.171  0.00  0.00    -0.270 OA
ENDROOT
BRANCH   1  11
ATOM      9  C   LIG    1        7.701  -6.256  -2.479  0.00  0.00    +0.072 A 
ATOM     10  C   LIG    1        8.056  -4.971  -2.043  0.00  0.00    +0.042 A 
ATOM     11  C   LIG    1        8.598  -4.807  -0.777  0.00  0.00    +0.048 A 
ATOM     12  C   LIG    1        8.774  -6.008   0.039  0.00  0.00    +0.013 A 
ATOM     13  C   LIG    1        9.306  -5.943   1.332  0.00  0.00    +0.011 A 
ATOM     14  C   LIG    1        9.448  -7.087   2.060  0.00  0.00    +0.001 A 
ATOM     15  C   LIG    1        9.064  -8.320   1.536  0.00  0.00    +0.002 A 
ATOM     16  C   LIG    1        8.538  -8.418   0.284  0.00  0.00    +0.028 A 
ATOM     17  C   LIG    1        8.376  -7.259  -0.497  0.00  0.00    +0.072 A 
ATOM     18  N   LIG    1        7.863  -7.324  -1.727  0.00  0.00    -0.247 NA
BRANCH   9  22
ATOM     19  C   LIG    1        6.042  -6.719  -6.367  0.00  0.00    +0.000 A 
ATOM     20  C   LIG    1        6.222  -7.827  -5.558  0.00  0.00    +0.001 A 
ATOM     21  C   LIG    1        6.760  -7.683  -4.295  0.00  0.00    +0.010 A 
ATOM     22  C   LIG    1        7.123  -6.418  -3.835  0.00  0.00    +0.000 A 
ATOM     23  C   LIG    1        6.934  -5.304  -4.653  0.00  0.00    +0.010 A 
ATOM     24  C   LIG    1        6.400  -5.461  -5.915  0.00  0.00    +0.001 A 
ENDBRANCH   9  22
ENDBRANCH   1  11
BRANCH   5  25
ATOM     25  C   LIG    1        4.945  -0.222   1.320  0.00  0.00    +0.119 C 
BRANCH  25  26
ATOM     26  C   LIG    1        3.706  -0.067   0.476  0.00  0.00    -0.030 A 
ATOM     27  C   LIG    1        2.797  -1.105   0.390  0.00  0.00    +0.009 A 
ATOM     28  C   LIG    1        1.659  -0.968  -0.383  0.00  0.00    +0.050 A 
ATOM     29  C   LIG    1        1.427   0.211  -1.073  0.00  0.00    +0.166 A 
ATOM     30  C   LIG    1        2.344   1.256  -0.986  0.00  0.00    +0.167 A 
ATOM     31  O   LIG    1        1.894   2.296  -1.748  0.00  0.00    -0.453 OA
ATOM     32  C   LIG    1        0.497   2.030  -1.974  0.00  0.00    +0.466 C 
ATOM     33  O   LIG    1        0.404   0.596  -1.890  0.00  0.00    -0.453 OA
ATOM     34  C   LIG    1        3.482   1.112  -0.209  0.00  0.00    +0.054 A 
ENDBRANCH  25  26
ENDBRANCH   5  25
TORSDOF 4
