REMARK  Name = ZINC13759256
REMARK                            x       y       z     vdW  Elec       q    Type
REMARK                         _______ _______ _______ _____ _____    ______ ____
ROOT
ATOM      1  C   LIG    1       -1.026   0.028   2.290  0.00  0.00    +0.046 C 
ATOM      2  C   LIG    1       -0.481  -0.711   1.095  0.00  0.00    -0.026 A 
ATOM      3  C   LIG    1       -0.452  -2.092   1.091  0.00  0.00    +0.050 A 
ATOM      4  C   LIG    1        0.054  -2.772  -0.007  0.00  0.00    +0.120 A 
ATOM      5  C   LIG    1        0.527  -2.067  -1.103  0.00  0.00    +0.047 A 
ATOM      6  C   LIG    1        0.494  -0.686  -1.103  0.00  0.00    +0.027 A 
ATOM      7  C   LIG    1       -0.013  -0.004  -0.005  0.00  0.00    +0.033 A 
ENDROOT
BRANCH   7   8
ATOM      8  N   LIG    1       -0.047   1.395  -0.004  0.00  0.00    -0.333 N 
ATOM      9  C   LIG    1        0.722   1.941  -1.131  0.00  0.00    +0.086 C 
ATOM     10  C   LIG    1        0.727   3.469  -1.048  0.00  0.00    -0.063 C 
ATOM     11  N   LIG    1       -0.661   3.969  -1.078  0.00  0.00    +0.381 N 
ATOM     12  H   LIG    1       -0.654   4.993  -1.014  0.00  0.00    -0.086 HD
ATOM     13  H   LIG    1       -1.106   3.683  -1.958  0.00  0.00    -0.086 HD
ATOM     14  C   LIG    1       -1.427   3.416   0.056  0.00  0.00    -0.063 C 
ATOM     15  C   LIG    1       -1.431   1.888  -0.026  0.00  0.00    +0.086 C 
ENDBRANCH   7   8
BRANCH   4  16
ATOM     16  O   LIG    1        0.088  -4.132  -0.007  0.00  0.00    -0.495 OA
ATOM     17  C   LIG    1        0.623  -4.767  -1.170  0.00  0.00    +0.277 C 
ENDBRANCH   4  16
TORSDOF 2
