REMARK  Name = ZINC00038812
REMARK                            x       y       z     vdW  Elec       q    Type
REMARK                         _______ _______ _______ _____ _____    ______ ____
ROOT
ATOM      1  N   LIG    1        2.824   7.697  -0.143  0.00  0.00    -0.281 N 
ATOM      2  H   LIG    1        1.878   7.908  -0.183  0.00  0.00    +0.155 HD
ATOM      3  C   LIG    1        3.236   6.419  -0.259  0.00  0.00    +0.256 C 
ATOM      4  O   LIG    1        4.425   6.165  -0.306  0.00  0.00    -0.269 OA
ENDROOT
BRANCH   3   5
ATOM      5  C   LIG    1        2.249   5.334  -0.330  0.00  0.00    +0.094 A 
ATOM      6  C   LIG    1        2.468   3.996  -0.448  0.00  0.00    +0.068 A 
ATOM      7 CL   LIG    1        4.090   3.384  -0.535  0.00  0.00    -0.082 Cl
ATOM      8  C   LIG    1        1.376   3.109  -0.500  0.00  0.00    +0.008 A 
ATOM      9  C   LIG    1        1.397   1.696  -0.620  0.00  0.00    +0.010 A 
ATOM     10  C   LIG    1        0.242   0.984  -0.657  0.00  0.00    +0.001 A 
ATOM     11  C   LIG    1       -0.999   1.605  -0.583  0.00  0.00    +0.001 A 
ATOM     12  C   LIG    1       -1.066   2.978  -0.459  0.00  0.00    +0.016 A 
ATOM     13  C   LIG    1        0.099   3.714  -0.421  0.00  0.00    +0.021 A 
ATOM     14  S   LIG    1        0.469   5.445  -0.283  0.00  0.00    -0.082 S 
ENDBRANCH   3   5
BRANCH   1  19
ATOM     15  C   LIG    1        6.623  11.846   0.581  0.00  0.00    +0.046 C 
ATOM     16  C   LIG    1        5.614  10.744   0.389  0.00  0.00    -0.020 A 
ATOM     17  C   LIG    1        4.383  10.818   1.016  0.00  0.00    +0.007 A 
ATOM     18  C   LIG    1        3.454   9.812   0.837  0.00  0.00    +0.024 A 
ATOM     19  C   LIG    1        3.761   8.720   0.036  0.00  0.00    +0.036 A 
ATOM     20  C   LIG    1        4.997   8.648  -0.591  0.00  0.00    +0.056 A 
ATOM     21  C   LIG    1        5.920   9.660  -0.413  0.00  0.00    +0.126 A 
BRANCH  21  22
ATOM     22  N   LIG    1        7.239   9.584  -1.081  0.00  0.00    +0.006 N 
ATOM     23  O   LIG    1        7.492   8.654  -1.826  0.00  0.00    -0.130 OA
BRANCH  22  24
ATOM     24  O   LIG    1        8.071  10.452  -0.886  0.00  0.00    -0.396 OA
ATOM     25  H   LIG    1        7.877  11.168  -0.314  0.00  0.00    +0.329 HD
ENDBRANCH  22  24
ENDBRANCH  21  22
ENDBRANCH   1  19
TORSDOF 4
