REMARK  Name = ZINC27101553
REMARK                            x       y       z     vdW  Elec       q    Type
REMARK                         _______ _______ _______ _____ _____    ______ ____
ROOT
ATOM      1  C   LIG    1       -2.576   5.978  -0.750  0.00  0.00    +0.046 C 
ATOM      2  C   LIG    1       -3.337   4.765  -0.280  0.00  0.00    -0.019 A 
ATOM      3  C   LIG    1       -4.662   4.881   0.103  0.00  0.00    +0.038 A 
ATOM      4  C   LIG    1       -5.364   3.760   0.536  0.00  0.00    +0.025 A 
ATOM      5  C   LIG    1       -4.750   2.527   0.589  0.00  0.00    +0.028 A 
ATOM      6  C   LIG    1       -3.418   2.394   0.207  0.00  0.00    +0.051 A 
ATOM      7  N   LIG    1       -2.568   1.300   0.160  0.00  0.00    -0.337 N 
ATOM      8  C   LIG    1       -1.320   1.684  -0.297  0.00  0.00    +0.050 A 
ATOM      9  C   LIG    1       -0.144   0.972  -0.519  0.00  0.00    +0.026 A 
ATOM     10  C   LIG    1        0.975   1.621  -0.994  0.00  0.00    +0.002 A 
ATOM     11  C   LIG    1        0.946   2.983  -1.250  0.00  0.00    +0.001 A 
ATOM     12  C   LIG    1       -0.207   3.706  -1.032  0.00  0.00    +0.010 A 
ATOM     13  C   LIG    1       -1.346   3.063  -0.552  0.00  0.00    +0.008 A 
ATOM     14  C   LIG    1       -2.706   3.525  -0.218  0.00  0.00    +0.012 A 
ENDROOT
BRANCH   3  15
ATOM     15  N   LIG    1       -5.298   6.129   0.055  0.00  0.00    -0.269 N 
ATOM     16  H   LIG    1       -4.701   7.052   0.090  0.00  0.00    +0.156 HD
ATOM     17  C   LIG    1       -6.641   6.198  -0.036  0.00  0.00    +0.307 C 
ATOM     18  N   LIG    1       -7.250   7.397  -0.128  0.00  0.00    -0.281 N 
ATOM     19  C   LIG    1       -8.717   7.503  -0.130  0.00  0.00    +0.137 C 
ATOM     20  C   LIG    1       -9.123   8.550   0.920  0.00  0.00    +0.179 C 
ATOM     21  O   LIG    1       -8.399   9.759   0.681  0.00  0.00    -0.377 OA
ATOM     22  C   LIG    1       -6.981   9.629   0.813  0.00  0.00    +0.179 C 
ATOM     23  C   LIG    1       -6.466   8.638  -0.237  0.00  0.00    +0.137 C 
ATOM     24  O   LIG    1       -7.304   5.178  -0.034  0.00  0.00    -0.252 OA
ENDBRANCH   3  15
BRANCH   7  25
ATOM     25  C   LIG    1       -2.938  -0.066   0.538  0.00  0.00    +0.082 C 
ATOM     26  C   LIG    1       -2.041  -0.538   1.684  0.00  0.00    +0.030 C 
ATOM     27  C   LIG    1       -2.760  -0.994  -0.664  0.00  0.00    +0.030 C 
ENDBRANCH   7  25
TORSDOF 2
