REMARK  Name = ZINC16079265
REMARK                            x       y       z     vdW  Elec       q    Type
REMARK                         _______ _______ _______ _____ _____    ______ ____
ROOT
ATOM      1  C   LIG    1        4.180  -1.955  -5.371  0.00  0.00    +0.157 C 
ATOM      2  N   LIG    1        3.653  -1.411  -4.117  0.00  0.00    -0.264 N 
ATOM      3  C   LIG    1        4.498  -1.122  -3.107  0.00  0.00    +0.262 A 
ATOM      4  C   LIG    1        3.990  -0.601  -1.907  0.00  0.00    +0.060 A 
ATOM      5  C   LIG    1        2.644  -0.397  -1.788  0.00  0.00    +0.111 A 
ATOM      6  N   LIG    1        1.819  -0.710  -2.841  0.00  0.00    -0.295 N 
ATOM      7  H   LIG    1        0.733  -0.558  -2.753  0.00  0.00    +0.172 HD
ATOM      8  O   LIG    1        5.695  -1.313  -3.236  0.00  0.00    -0.267 OA
ATOM      9  C   LIG    1        2.331  -1.203  -3.983  0.00  0.00    +0.330 A 
ATOM     10  O   LIG    1        1.586  -1.470  -4.907  0.00  0.00    -0.246 OA
ENDROOT
BRANCH   5  11
ATOM     11  N   LIG    1        2.121   0.111  -0.626  0.00  0.00    -0.316 N 
ATOM     12  C   LIG    1        0.811  -0.485  -0.335  0.00  0.00    +0.107 C 
ATOM     13  C   LIG    1        0.325  -0.007   1.036  0.00  0.00    +0.023 C 
ATOM     14  C   LIG    1        0.223   1.521   1.031  0.00  0.00    -0.004 C 
ATOM     15  C   LIG    1        1.589   2.115   0.678  0.00  0.00    +0.023 C 
ATOM     16  C   LIG    1        2.038   1.576  -0.682  0.00  0.00    +0.107 C 
BRANCH  14  17
ATOM     17  C   LIG    1       -0.204   2.009   2.417  0.00  0.00    +0.038 C 
BRANCH  17  18
ATOM     18  C   LIG    1       -0.423   3.499   2.380  0.00  0.00    -0.047 A 
ATOM     19  C   LIG    1        0.623   4.359   2.659  0.00  0.00    +0.003 A 
ATOM     20  C   LIG    1        0.422   5.726   2.620  0.00  0.00    +0.000 A 
ATOM     21  C   LIG    1       -0.826   6.233   2.311  0.00  0.00    +0.000 A 
ATOM     22  C   LIG    1       -1.873   5.373   2.037  0.00  0.00    +0.000 A 
ATOM     23  C   LIG    1       -1.672   4.006   2.071  0.00  0.00    +0.003 A 
ENDBRANCH  17  18
ENDBRANCH  14  17
ENDBRANCH   5  11
BRANCH   4  24
ATOM     24  C   LIG    1        4.917  -0.271  -0.765  0.00  0.00    +0.080 C 
BRANCH  24  25
ATOM     25  C   LIG    1        5.141  -1.503   0.073  0.00  0.00    -0.029 A 
ATOM     26  C   LIG    1        4.175  -1.911   0.975  0.00  0.00    +0.005 A 
ATOM     27  C   LIG    1        4.377  -3.044   1.739  0.00  0.00    +0.000 A 
ATOM     28  C   LIG    1        5.550  -3.765   1.611  0.00  0.00    +0.001 A 
ATOM     29  C   LIG    1        6.519  -3.355   0.714  0.00  0.00    +0.015 A 
ATOM     30  C   LIG    1        6.314  -2.224  -0.056  0.00  0.00    +0.021 A 
ATOM     31 BR   LIG    1        7.638  -1.663  -1.283  0.00  0.00    -0.050 Br
ENDBRANCH  24  25
ENDBRANCH   4  24
TORSDOF 5
