REMARK  Name = ZINC13986811
REMARK                            x       y       z     vdW  Elec       q    Type
REMARK                         _______ _______ _______ _____ _____    ______ ____
ROOT
ATOM      1  C   LIG    1       -2.451   1.116   0.141  0.00  0.00    +0.037 A 
ATOM      2  C   LIG    1       -2.571  -0.271   0.243  0.00  0.00    +0.013 A 
ATOM      3  C   LIG    1       -3.820  -0.845   0.366  0.00  0.00    +0.006 A 
ATOM      4  C   LIG    1       -4.952  -0.049   0.375  0.00  0.00    -0.030 A 
ATOM      5  C   LIG    1       -4.840   1.326   0.268  0.00  0.00    +0.006 A 
ATOM      6  C   LIG    1       -3.597   1.913   0.151  0.00  0.00    +0.013 A 
ENDROOT
BRANCH   1   9
ATOM      7  N   LIG    1       -0.011   0.966   0.007  0.00  0.00    -0.280 N 
ATOM      8  H   LIG    1       -0.095  -0.001   0.017  0.00  0.00    +0.155 HD
ATOM      9  C   LIG    1       -1.116   1.738   0.017  0.00  0.00    +0.248 C 
ATOM     10  O   LIG    1       -1.014   2.946  -0.077  0.00  0.00    -0.270 OA
BRANCH   7  14
ATOM     11  C   LIG    1        3.767   2.733  -0.079  0.00  0.00    +0.002 A 
ATOM     12  C   LIG    1        2.709   3.326  -0.745  0.00  0.00    +0.002 A 
ATOM     13  C   LIG    1        1.458   2.739  -0.722  0.00  0.00    +0.025 A 
ATOM     14  C   LIG    1        1.258   1.559  -0.022  0.00  0.00    +0.055 A 
ATOM     15  C   LIG    1        2.325   0.962   0.649  0.00  0.00    +0.046 A 
ATOM     16  C   LIG    1        3.578   1.554   0.617  0.00  0.00    +0.024 A 
BRANCH  15  17
ATOM     17  N   LIG    1        2.131  -0.232   1.353  0.00  0.00    -0.357 N 
ATOM     18  H   LIG    1        2.874  -0.646   1.819  0.00  0.00    +0.142 HD
ATOM     19  H   LIG    1        1.254  -0.646   1.374  0.00  0.00    +0.142 HD
ENDBRANCH  15  17
ENDBRANCH   7  14
ENDBRANCH   1   9
BRANCH   4  20
ATOM     20  C   LIG    1       -6.314  -0.683   0.502  0.00  0.00    +0.139 C 
BRANCH  20  21
ATOM     21  N   LIG    1       -6.837  -0.989  -0.832  0.00  0.00    -0.309 N 
ATOM     22  H   LIG    1       -6.311  -0.777  -1.619  0.00  0.00    +0.149 HD
BRANCH  21  23
ATOM     23  C   LIG    1       -8.081  -1.580  -0.968  0.00  0.00    +0.216 A 
ATOM     24  N   LIG    1       -8.785  -1.862   0.119  0.00  0.00    -0.223 NA
ATOM     25  C   LIG    1       -9.978  -2.427   0.030  0.00  0.00    +0.116 A 
ATOM     26  C   LIG    1      -10.494  -2.726  -1.219  0.00  0.00    +0.048 A 
ATOM     27  C   LIG    1       -9.729  -2.417  -2.347  0.00  0.00    +0.077 A 
ATOM     28  N   LIG    1       -8.539  -1.844  -2.182  0.00  0.00    -0.214 NA
BRANCH  27  29
ATOM     29  C   LIG    1      -10.239  -2.717  -3.707  0.00  0.00    +0.019 A 
ATOM     30  C   LIG    1       -9.474  -2.408  -4.836  0.00  0.00    +0.013 A 
ATOM     31  C   LIG    1       -9.994  -2.708  -6.083  0.00  0.00    +0.020 A 
ATOM     32  C   LIG    1      -11.242  -3.298  -6.172  0.00  0.00    +0.111 A 
ATOM     33  N   LIG    1      -11.940  -3.578  -5.088  0.00  0.00    -0.263 NA
ATOM     34  C   LIG    1      -11.485  -3.316  -3.880  0.00  0.00    +0.120 A 
ENDBRANCH  27  29
ENDBRANCH  21  23
ENDBRANCH  20  21
ENDBRANCH   4  20
TORSDOF 7
