REMARK  Name = ZINC14728559
REMARK                            x       y       z     vdW  Elec       q    Type
REMARK                         _______ _______ _______ _____ _____    ______ ____
ROOT
ATOM      1  C   LIG    1       -0.018   1.503   0.010  0.00  0.00    +0.090 C 
ATOM      2  C   LIG    1        0.002  -0.004   0.002  0.00  0.00    +0.149 A 
ATOM      3  N   LIG    1        0.007  -0.765  -1.089  0.00  0.00    -0.211 NA
ATOM      4  C   LIG    1        0.026  -2.035  -0.743  0.00  0.00    +0.168 A 
ATOM      5  C   LIG    1        0.040  -3.303  -1.481  0.00  0.00    +0.045 A 
ATOM      6  C   LIG    1        0.035  -3.346  -2.874  0.00  0.00    +0.014 A 
ATOM      7  C   LIG    1        0.049  -4.564  -3.517  0.00  0.00    +0.001 A 
ATOM      8  C   LIG    1        0.068  -5.747  -2.788  0.00  0.00    +0.002 A 
ATOM      9  C   LIG    1        0.074  -5.727  -1.412  0.00  0.00    +0.028 A 
ATOM     10  C   LIG    1        0.060  -4.504  -0.736  0.00  0.00    +0.077 A 
ATOM     11  N   LIG    1        0.066  -4.445   0.617  0.00  0.00    -0.222 NA
ATOM     12  C   LIG    1        0.053  -3.306   1.262  0.00  0.00    +0.192 A 
ATOM     13  N   LIG    1        0.033  -2.095   0.625  0.00  0.00    -0.188 N 
ATOM     14  N   LIG    1        0.023  -0.765   1.068  0.00  0.00    -0.148 NA
ENDROOT
BRANCH  12  15
ATOM     15  S   LIG    1        0.062  -3.333   3.023  0.00  0.00    -0.085 S 
BRANCH  15  16
ATOM     16  C   LIG    1        0.087  -5.099   3.435  0.00  0.00    +0.093 C 
BRANCH  16  17
ATOM     17  C   LIG    1        0.096  -5.268   4.956  0.00  0.00    +0.095 C 
BRANCH  17  18
ATOM     18  N   LIG    1        0.116  -6.699   5.289  0.00  0.00    -0.297 NA
ATOM     19  C   LIG    1       -1.134  -7.353   4.879  0.00  0.00    +0.112 C 
ATOM     20  C   LIG    1       -1.047  -8.850   5.190  0.00  0.00    +0.175 C 
ATOM     21  O   LIG    1       -0.775  -9.027   6.583  0.00  0.00    -0.377 OA
ATOM     22  C   LIG    1        0.436  -8.403   7.017  0.00  0.00    +0.175 C 
ATOM     23  C   LIG    1        0.364  -6.902   6.724  0.00  0.00    +0.112 C 
ENDBRANCH  17  18
ENDBRANCH  16  17
ENDBRANCH  15  16
ENDBRANCH  12  15
TORSDOF 4
