REMARK  Name = ZINC20148984
REMARK                            x       y       z     vdW  Elec       q    Type
REMARK                         _______ _______ _______ _____ _____    ______ ____
ROOT
ATOM      1  C   LIG    1       -0.255   4.097   0.254  0.00  0.00    +0.107 A 
ATOM      2  C   LIG    1       -1.258   3.040   0.128  0.00  0.00    +0.086 A 
ATOM      3  C   LIG    1       -1.216   1.642   0.001  0.00  0.00    +0.131 A 
ATOM      4  N   LIG    1       -2.366   0.983  -0.102  0.00  0.00    -0.220 NA
ATOM      5  C   LIG    1       -3.522   1.622  -0.090  0.00  0.00    +0.225 A 
ATOM      6  N   LIG    1       -3.610   2.929   0.023  0.00  0.00    -0.216 NA
ATOM      7  C   LIG    1       -2.512   3.678   0.131  0.00  0.00    +0.164 A 
ATOM      8  N   LIG    1       -2.276   5.014   0.258  0.00  0.00    -0.243 N 
ATOM      9  N   LIG    1       -0.898   5.239   0.330  0.00  0.00    -0.168 NA
ENDROOT
BRANCH   1  16
ATOM     10  C   LIG    1        4.484   4.905   2.013  0.00  0.00    +0.029 A 
ATOM     11  C   LIG    1        5.599   4.331   1.535  0.00  0.00    +0.085 A 
ATOM     12  N   LIG    1        5.285   3.489   0.501  0.00  0.00    -0.346 N 
ATOM     13  C   LIG    1        3.928   3.500   0.281  0.00  0.00    +0.138 A 
ATOM     14  N   LIG    1        3.147   2.870  -0.587  0.00  0.00    -0.237 NA
ATOM     15  C   LIG    1        1.845   3.048  -0.605  0.00  0.00    +0.123 A 
ATOM     16  C   LIG    1        1.215   3.913   0.294  0.00  0.00    +0.022 A 
ATOM     17  C   LIG    1        1.989   4.605   1.225  0.00  0.00    +0.023 A 
ATOM     18  H   LIG    1        5.926   2.963  -0.001  0.00  0.00    +0.167 HD
ATOM     19  C   LIG    1        3.367   4.389   1.220  0.00  0.00    +0.019 A 
ENDBRANCH   1  16
BRANCH   8  20
ATOM     20  C   LIG    1       -3.307   6.054   0.311  0.00  0.00    +0.109 C 
ATOM     21  C   LIG    1       -3.086   7.075  -0.824  0.00  0.00    +0.027 C 
ATOM     22  C   LIG    1       -3.464   8.437  -0.188  0.00  0.00    +0.002 C 
ATOM     23  C   LIG    1       -2.918   8.304   1.256  0.00  0.00    +0.002 C 
ATOM     24  C   LIG    1       -3.201   6.835   1.633  0.00  0.00    +0.027 C 
ENDBRANCH   8  20
BRANCH   3  25
ATOM     25  N   LIG    1       -0.010   0.967  -0.012  0.00  0.00    -0.342 N 
ATOM     26  H   LIG    1        0.796   1.410   0.296  0.00  0.00    +0.144 HD
ATOM     27  H   LIG    1        0.030   0.053  -0.332  0.00  0.00    +0.144 HD
ENDBRANCH   3  25
TORSDOF 3
