REMARK  Name = ZINC28863086
REMARK                            x       y       z     vdW  Elec       q    Type
REMARK                         _______ _______ _______ _____ _____    ______ ____
ROOT
ATOM      1  C   LIG    1       -0.856   7.429   0.050  0.00  0.00    -0.030 A 
ATOM      2  C   LIG    1       -0.704   8.100   1.249  0.00  0.00    +0.005 A 
ATOM      3  C   LIG    1       -0.408   9.450   1.254  0.00  0.00    +0.005 A 
ATOM      4  C   LIG    1       -0.272  10.132   0.059  0.00  0.00    -0.030 A 
ATOM      5  C   LIG    1       -0.429   9.462  -1.140  0.00  0.00    +0.005 A 
ATOM      6  C   LIG    1       -0.721   8.111  -1.145  0.00  0.00    +0.005 A 
ENDROOT
BRANCH   1   7
ATOM      7  C   LIG    1       -1.174   5.956   0.045  0.00  0.00    +0.138 C 
BRANCH   7   8
ATOM      8  N   LIG    1        0.073   5.187   0.029  0.00  0.00    -0.325 N 
ATOM      9  H   LIG    1        1.041   5.709   0.022  0.00  0.00    +0.148 HD
BRANCH   8  14
ATOM     10  C   LIG    1       -1.221   1.761   0.017  0.00  0.00    +0.005 A 
ATOM     11  C   LIG    1       -0.013   1.076   0.008  0.00  0.00    +0.020 A 
ATOM     12  C   LIG    1        1.169   1.789   0.001  0.00  0.00    +0.113 A 
ATOM     13  N   LIG    1        1.163   3.109   0.007  0.00  0.00    -0.241 NA
ATOM     14  C   LIG    1        0.033   3.798   0.022  0.00  0.00    +0.119 A 
ATOM     15  C   LIG    1       -1.195   3.144   0.030  0.00  0.00    +0.043 A 
ENDBRANCH   8  14
ENDBRANCH   7   8
ENDBRANCH   1   7
BRANCH   4  16
ATOM     16  C   LIG    1        0.046  11.604   0.064  0.00  0.00    +0.138 C 
BRANCH  16  17
ATOM     17  N   LIG    1       -1.200  12.374   0.079  0.00  0.00    -0.325 N 
ATOM     18  H   LIG    1       -2.168  11.852   0.085  0.00  0.00    +0.148 HD
BRANCH  17  19
ATOM     19  C   LIG    1       -1.159  13.763   0.086  0.00  0.00    +0.119 A 
ATOM     20  C   LIG    1        0.069  14.417   0.084  0.00  0.00    +0.043 A 
ATOM     21  C   LIG    1        0.095  15.800   0.086  0.00  0.00    +0.005 A 
ATOM     22  C   LIG    1       -1.113  16.485   0.101  0.00  0.00    +0.020 A 
ATOM     23  C   LIG    1       -2.295  15.772   0.107  0.00  0.00    +0.113 A 
ATOM     24  N   LIG    1       -2.289  14.453   0.100  0.00  0.00    -0.241 NA
ENDBRANCH  17  19
ENDBRANCH  16  17
ENDBRANCH   4  16
TORSDOF 6
