REMARK  Name = ZINC21982951
REMARK                            x       y       z     vdW  Elec       q    Type
REMARK                         _______ _______ _______ _____ _____    ______ ____
ROOT
ATOM      1  N   LIG    1       -0.482   2.900   7.650  0.00  0.00    -0.308 N 
ATOM      2  H   LIG    1       -0.129   3.751   7.345  0.00  0.00    +0.149 HD
ENDROOT
BRANCH   1   3
ATOM      3  C   LIG    1       -0.691   2.680   9.005  0.00  0.00    +0.144 C 
ATOM      4  C   LIG    1       -1.053   1.419   9.468  0.00  0.00    +0.073 C 
ATOM      5  C   LIG    1       -1.251   1.251  10.835  0.00  0.00    +0.128 C 
ATOM      6  N   LIG    1       -1.087   2.295  11.645  0.00  0.00    -0.286 NA
ATOM      7  H   LIG    1       -0.366   2.032  12.317  0.00  0.00    +0.125 HD
ATOM      8  C   LIG    1       -0.744   3.474  11.168  0.00  0.00    +0.121 C 
ATOM      9  C   LIG    1       -0.569   4.627  12.122  0.00  0.00    +0.041 C 
ATOM     10  N   LIG    1       -0.542   3.672   9.881  0.00  0.00    -0.283 NA
ATOM     11  H   LIG    1       -0.285   4.553   9.567  0.00  0.00    +0.125 HD
BRANCH   5  12
ATOM     12  N   LIG    1       -1.614   0.014  11.346  0.00  0.00    -0.285 NA
ATOM     13  C   LIG    1       -2.056  -0.125  12.742  0.00  0.00    +0.101 C 
ATOM     14  C   LIG    1       -3.387  -0.885  12.758  0.00  0.00    +0.100 C 
ATOM     15  N   LIG    1       -3.233  -2.149  12.025  0.00  0.00    -0.298 NA
ATOM     16  C   LIG    1       -2.917  -1.911  10.611  0.00  0.00    +0.100 C 
ATOM     17  C   LIG    1       -1.573  -1.192  10.506  0.00  0.00    +0.101 C 
BRANCH  15  18
ATOM     18  C   LIG    1       -4.433  -2.986  12.162  0.00  0.00    +0.112 C 
BRANCH  18  19
ATOM     19  C   LIG    1       -4.148  -4.382  11.604  0.00  0.00    +0.171 C 
BRANCH  19  20
ATOM     20  O   LIG    1       -3.150  -5.019  12.404  0.00  0.00    -0.394 OA
ATOM     21  H   LIG    1       -2.919  -5.910  12.108  0.00  0.00    +0.209 HD
ENDBRANCH  19  20
ENDBRANCH  18  19
ENDBRANCH  15  18
ENDBRANCH   5  12
ENDBRANCH   1   3
BRANCH   1  25
ATOM     22  C   LIG    1       -1.172   0.290   4.715  0.00  0.00    +0.095 A 
ATOM     23  C   LIG    1       -1.547  -0.120   5.987  0.00  0.00    +0.133 A 
ATOM     24  N   LIG    1       -1.326   0.727   6.960  0.00  0.00    -0.233 NA
ATOM     25  C   LIG    1       -0.776   1.907   6.736  0.00  0.00    +0.160 A 
ATOM     26  S   LIG    1       -0.511   1.910   5.074  0.00  0.00    -0.048 S 
BRANCH  22  29
ATOM     27  N   LIG    1       -0.844   0.177   2.305  0.00  0.00    -0.280 N 
ATOM     28  H   LIG    1       -0.384   1.030   2.349  0.00  0.00    +0.155 HD
ATOM     29  C   LIG    1       -1.282  -0.411   3.437  0.00  0.00    +0.256 C 
ATOM     30  O   LIG    1       -1.769  -1.526   3.394  0.00  0.00    -0.269 OA
BRANCH  27  38
ATOM     31  C   LIG    1       -2.070   1.693   0.233  0.00  0.00    +0.046 C 
ATOM     32  C   LIG    1       -1.648   0.260   0.030  0.00  0.00    -0.028 A 
ATOM     33  C   LIG    1       -1.848  -0.352  -1.192  0.00  0.00    +0.005 A 
ATOM     34  C   LIG    1       -1.462  -1.667  -1.380  0.00  0.00    +0.002 A 
ATOM     35  C   LIG    1       -0.874  -2.373  -0.346  0.00  0.00    +0.022 A 
ATOM     36  C   LIG    1       -0.671  -1.766   0.879  0.00  0.00    +0.062 A 
ATOM     37 CL   LIG    1        0.066  -2.653   2.177  0.00  0.00    -0.082 Cl
ATOM     38  C   LIG    1       -1.053  -0.443   1.069  0.00  0.00    +0.055 A 
ENDBRANCH  27  38
ENDBRANCH  22  29
ENDBRANCH   1  25
TORSDOF 8
