REMARK  Name = ZINC25971863
REMARK                            x       y       z     vdW  Elec       q    Type
REMARK                         _______ _______ _______ _____ _____    ______ ____
ROOT
ATOM      1  C   LIG    1       -1.089  -0.802   0.008  0.00  0.00    +0.100 C 
ATOM      2  C   LIG    1        0.002  -0.004   0.002  0.00  0.00    +0.191 C 
ATOM      3  C   LIG    1        1.219  -0.844  -0.021  0.00  0.00    +0.282 C 
ATOM      4  N   LIG    1        0.878  -2.146  -0.018  0.00  0.00    -0.286 N 
ATOM      5  O   LIG    1        2.358  -0.422  -0.036  0.00  0.00    -0.267 OA
ATOM      6  C   LIG    1       -0.588  -2.228  -0.004  0.00  0.00    +0.154 C 
ENDROOT
BRANCH   1   7
ATOM      7  C   LIG    1       -2.490  -0.368   0.024  0.00  0.00    +0.340 C 
ATOM      8  O   LIG    1       -2.759   0.817   0.033  0.00  0.00    -0.245 OA
BRANCH   7  10
ATOM      9  C   LIG    1       -4.842  -0.783   0.045  0.00  0.00    +0.280 C 
ATOM     10  O   LIG    1       -3.479  -1.285   0.029  0.00  0.00    -0.465 OA
ENDBRANCH   7  10
ENDBRANCH   1   7
BRANCH   2  11
ATOM     11  O   LIG    1       -0.016   1.349   0.009  0.00  0.00    -0.502 OA
ATOM     12  H   LIG    1       -0.834   1.806   0.024  0.00  0.00    +0.292 HD
ENDBRANCH   2  11
BRANCH   4  13
ATOM     13  C   LIG    1        1.804  -3.280  -0.033  0.00  0.00    +0.143 C 
BRANCH  13  14
ATOM     14  C   LIG    1        2.108  -3.661  -1.459  0.00  0.00    -0.030 A 
ATOM     15  C   LIG    1        1.324  -4.598  -2.107  0.00  0.00    +0.005 A 
ATOM     16  C   LIG    1        1.600  -4.943  -3.417  0.00  0.00    +0.000 A 
ATOM     17  C   LIG    1        2.667  -4.360  -4.075  0.00  0.00    +0.000 A 
ATOM     18  C   LIG    1        3.454  -3.428  -3.426  0.00  0.00    +0.000 A 
ATOM     19  C   LIG    1        3.175  -3.079  -2.118  0.00  0.00    +0.005 A 
ENDBRANCH  13  14
ENDBRANCH   4  13
TORSDOF 5
