REMARK  Name = ZINC36126812
REMARK                            x       y       z     vdW  Elec       q    Type
REMARK                         _______ _______ _______ _____ _____    ______ ____
ROOT
ATOM      1  N   LIG    1        0.713  -0.491   1.192  0.00  0.00    +0.383 N 
ATOM      2  H   LIG    1        1.632  -0.076   1.228  0.00  0.00    -0.085 HD
ATOM      3  H   LIG    1        0.798  -1.495   1.145  0.00  0.00    -0.085 HD
ENDROOT
BRANCH   1   5
ATOM      4  C   LIG    1       -0.019   1.526   0.010  0.00  0.00    -0.013 C 
ATOM      5  C   LIG    1        0.002  -0.004   0.002  0.00  0.00    -0.071 C 
BRANCH   5   6
ATOM      6  C   LIG    1        0.718  -0.497  -1.257  0.00  0.00    +0.019 C 
BRANCH   6   7
ATOM      7  C   LIG    1        0.632  -2.000  -1.327  0.00  0.00    -0.049 A 
ATOM      8  C   LIG    1        1.612  -2.778  -0.739  0.00  0.00    +0.003 A 
ATOM      9  C   LIG    1        1.532  -4.156  -0.804  0.00  0.00    +0.000 A 
ATOM     10  C   LIG    1        0.473  -4.757  -1.457  0.00  0.00    +0.000 A 
ATOM     11  C   LIG    1       -0.508  -3.980  -2.045  0.00  0.00    +0.000 A 
ATOM     12  C   LIG    1       -0.431  -2.602  -1.976  0.00  0.00    +0.003 A 
ENDBRANCH   6   7
ENDBRANCH   5   6
ENDBRANCH   1   5
BRANCH   1  13
ATOM     13  C   LIG    1       -0.040  -0.119   2.398  0.00  0.00    -0.041 C 
BRANCH  13  14
ATOM     14  C   LIG    1        0.700  -0.626   3.637  0.00  0.00    +0.210 C 
BRANCH  14  15
ATOM     15  O   LIG    1        1.955   0.049   3.752  0.00  0.00    -0.494 OA
BRANCH  15  16
ATOM     16  C   LIG    1        2.742  -0.288   4.808  0.00  0.00    +0.120 A 
ATOM     17  C   LIG    1        2.318  -1.251   5.711  0.00  0.00    +0.045 A 
ATOM     18  C   LIG    1        3.120  -1.592   6.783  0.00  0.00    +0.004 A 
ATOM     19  C   LIG    1        4.344  -0.973   6.956  0.00  0.00    +0.000 A 
ATOM     20  C   LIG    1        4.769  -0.012   6.057  0.00  0.00    +0.004 A 
ATOM     21  C   LIG    1        3.973   0.327   4.980  0.00  0.00    +0.045 A 
ENDBRANCH  15  16
ENDBRANCH  14  15
ENDBRANCH  13  14
ENDBRANCH   1  13
TORSDOF 7
