REMARK  Name = ZINC29050679
REMARK                            x       y       z     vdW  Elec       q    Type
REMARK                         _______ _______ _______ _____ _____    ______ ____
ROOT
ATOM      1  C   LIG    1       -0.753   1.593  -1.232  0.00  0.00    -0.018 C 
ATOM      2  C   LIG    1       -0.777   3.124  -1.223  0.00  0.00    +0.021 C 
ATOM      3  C   LIG    1       -1.572   3.623  -2.431  0.00  0.00    +0.107 C 
ATOM      4  N   LIG    1       -2.940   3.093  -2.374  0.00  0.00    -0.315 N 
ATOM      5  C   LIG    1       -2.943   1.625  -2.430  0.00  0.00    +0.107 C 
ATOM      6  C   LIG    1       -2.190   1.066  -1.220  0.00  0.00    +0.021 C 
ENDROOT
BRANCH   4   7
ATOM      7  C   LIG    1       -3.722   3.629  -3.381  0.00  0.00    +0.134 A 
ATOM      8  C   LIG    1       -3.865   5.018  -3.519  0.00  0.00    +0.059 A 
ATOM      9  C   LIG    1       -3.353   6.187  -2.807  0.00  0.00    +0.032 A 
ATOM     10  C   LIG    1       -3.854   7.269  -3.426  0.00  0.00    +0.085 A 
ATOM     11  N   LIG    1       -4.644   6.879  -4.476  0.00  0.00    -0.346 N 
ATOM     12  H   LIG    1       -5.140   7.635  -5.102  0.00  0.00    +0.167 HD
ATOM     13  C   LIG    1       -4.671   5.514  -4.560  0.00  0.00    +0.143 A 
ATOM     14  N   LIG    1       -5.267   4.643  -5.373  0.00  0.00    -0.218 NA
ATOM     15  C   LIG    1       -5.106   3.348  -5.206  0.00  0.00    +0.225 A 
ATOM     16  N   LIG    1       -4.354   2.841  -4.246  0.00  0.00    -0.220 NA
ENDBRANCH   4   7
BRANCH   1  17
ATOM     17  C   LIG    1       -0.013   1.086   0.008  0.00  0.00    -0.041 C 
BRANCH  17  21
ATOM     18  C   LIG    1        3.995   2.564  -0.023  0.00  0.00    +0.000 A 
ATOM     19  C   LIG    1        3.732   1.272  -0.437  0.00  0.00    +0.000 A 
ATOM     20  C   LIG    1        2.435   0.793  -0.426  0.00  0.00    +0.002 A 
ATOM     21  C   LIG    1        1.401   1.607  -0.003  0.00  0.00    -0.062 A 
ATOM     22  C   LIG    1        1.663   2.902   0.406  0.00  0.00    +0.002 A 
ATOM     23  C   LIG    1        2.961   3.379   0.401  0.00  0.00    +0.000 A 
ENDBRANCH  17  21
BRANCH  17  24
ATOM     24  N   LIG    1       -0.700   1.560   1.217  0.00  0.00    +0.383 N 
ATOM     25  H   LIG    1       -0.168   1.195   2.108  0.00  0.00    -0.089 HD
ATOM     26  H   LIG    1       -0.715   2.659   1.223  0.00  0.00    -0.089 HD
ATOM     27  H   LIG    1       -1.732   1.179   1.224  0.00  0.00    -0.089 HD
ENDBRANCH  17  24
ENDBRANCH   1  17
TORSDOF 4
