REMARK  Name = ZINC19875505
REMARK                            x       y       z     vdW  Elec       q    Type
REMARK                         _______ _______ _______ _____ _____    ______ ____
ROOT
ATOM      1  C   LIG    1        2.302   4.161   0.002  0.00  0.00    +0.085 C 
ATOM      2  C   LIG    1        1.678   5.497   0.456  0.00  0.00    +0.028 C 
ATOM      3  C   LIG    1        0.203   5.336   0.029  0.00  0.00    +0.037 C 
ATOM      4  C   LIG    1       -0.047   3.844   0.023  0.00  0.00    -0.043 A 
ATOM      5  C   LIG    1       -1.235   3.132   0.030  0.00  0.00    +0.004 A 
ATOM      6  C   LIG    1       -1.218   1.751   0.017  0.00  0.00    +0.000 A 
ATOM      7  C   LIG    1       -0.013   1.076   0.008  0.00  0.00    +0.000 A 
ATOM      8  C   LIG    1        1.174   1.783   0.000  0.00  0.00    +0.005 A 
ATOM      9  C   LIG    1        1.159   3.168   0.008  0.00  0.00    -0.027 A 
ENDROOT
BRANCH   1  10
ATOM     10  N   LIG    1        2.858   4.291  -1.351  0.00  0.00    -0.299 NA
ATOM     11  H   LIG    1        3.305   5.291  -1.454  0.00  0.00    +0.123 HD
BRANCH  10  12
ATOM     12  C   LIG    1        3.882   3.268  -1.600  0.00  0.00    +0.171 C 
BRANCH  12  14
ATOM     13  C   LIG    1        4.840   3.558  -4.050  0.00  0.00    +0.005 C 
ATOM     14  C   LIG    1        4.415   3.429  -2.963  0.00  0.00    -0.090 C 
ENDBRANCH  12  14
ENDBRANCH  10  12
ENDBRANCH   1  10
TORSDOF 3
