REMARK  Name = ZINC13862244
REMARK                            x       y       z     vdW  Elec       q    Type
REMARK                         _______ _______ _______ _____ _____    ______ ____
ROOT
ATOM      1  C   LIG    1        1.043  -4.062  -0.027  0.00  0.00    +0.097 C 
ENDROOT
BRANCH   1   6
ATOM      2  C   LIG    1       -0.018   1.503   0.010  0.00  0.00    +0.051 C 
ATOM      3  C   LIG    1        0.002  -0.004   0.002  0.00  0.00    -0.013 A 
ATOM      4  C   LIG    1       -1.039  -0.872   0.002  0.00  0.00    +0.011 A 
ATOM      5  C   LIG    1       -0.780  -2.230  -0.007  0.00  0.00    +0.012 A 
ATOM      6  C   LIG    1        0.507  -2.653  -0.016  0.00  0.00    -0.004 A 
ATOM      7  S   LIG    1        1.404  -1.109  -0.018  0.00  0.00    -0.098 S 
ENDBRANCH   1   6
BRANCH   1   8
ATOM      8  C   LIG    1        1.215  -4.523  -1.451  0.00  0.00    +0.040 A 
ATOM      9  C   LIG    1        0.267  -5.063  -2.240  0.00  0.00    +0.133 A 
ATOM     10  N   LIG    1        0.822  -5.335  -3.430  0.00  0.00    -0.244 NA
ATOM     11  C   LIG    1        2.079  -4.985  -3.408  0.00  0.00    +0.196 A 
ATOM     12  N   LIG    1        2.364  -4.468  -2.194  0.00  0.00    -0.348 N 
ATOM     13  H   LIG    1        3.222  -4.124  -1.901  0.00  0.00    +0.166 HD
ENDBRANCH   1   8
TORSDOF 2
