REMARK  Name = ZINC26381346
REMARK                            x       y       z     vdW  Elec       q    Type
REMARK                         _______ _______ _______ _____ _____    ______ ____
ROOT
ATOM      1  O   LIG    1       -0.688   1.987   1.186  0.00  0.00    -0.491 OA
ENDROOT
BRANCH   1   4
ATOM      2  C   LIG    1       -0.371   5.558   0.563  0.00  0.00    +0.007 A 
ATOM      3  C   LIG    1       -0.260   4.190   0.399  0.00  0.00    +0.049 A 
ATOM      4  C   LIG    1       -0.793   3.332   1.349  0.00  0.00    +0.158 A 
ATOM      5  C   LIG    1       -1.431   3.849   2.469  0.00  0.00    +0.200 A 
ATOM      6  F   LIG    1       -1.948   3.016   3.398  0.00  0.00    -0.199 F 
ATOM      7  C   LIG    1       -1.537   5.221   2.631  0.00  0.00    +0.162 A 
ATOM      8  F   LIG    1       -2.157   5.726   3.719  0.00  0.00    -0.202 F 
ATOM      9  C   LIG    1       -1.006   6.074   1.677  0.00  0.00    +0.041 A 
ENDBRANCH   1   4
BRANCH   1  10
ATOM     10  C   LIG    1       -0.019   1.526   0.010  0.00  0.00    +0.213 C 
BRANCH  10  11
ATOM     11  C   LIG    1        0.002  -0.004   0.002  0.00  0.00    -0.034 C 
ATOM     12  C   LIG    1        0.828  -0.525  -1.194  0.00  0.00    -0.014 C 
ATOM     13  C   LIG    1        0.078  -1.782  -1.682  0.00  0.00    -0.021 C 
ATOM     14  C   LIG    1       -1.137  -1.915  -0.739  0.00  0.00    -0.082 C 
ATOM     15  N   LIG    1       -1.365  -0.539  -0.226  0.00  0.00    +0.383 N 
ATOM     16  H   LIG    1       -1.889   0.093  -0.957  0.00  0.00    -0.085 HD
ATOM     17  H   LIG    1       -1.921  -0.540   0.724  0.00  0.00    -0.085 HD
ENDBRANCH  10  11
ENDBRANCH   1  10
TORSDOF 3
