REMARK  Name = ZINC28404175
REMARK                            x       y       z     vdW  Elec       q    Type
REMARK                         _______ _______ _______ _____ _____    ______ ____
ROOT
ATOM      1  C   LIG    1        0.104   1.486   0.325  0.00  0.00    +0.068 C 
ATOM      2  C   LIG    1        0.062  -0.012   0.160  0.00  0.00    +0.065 C 
ATOM      3  C   LIG    1       -1.109  -0.635   0.292  0.00  0.00    +0.132 C 
ATOM      4  C   LIG    1       -1.134  -2.142   0.122  0.00  0.00    +0.113 C 
ATOM      5  C   LIG    1        0.199  -2.799  -0.186  0.00  0.00    +0.066 C 
ATOM      6  C   LIG    1        1.319  -1.952  -0.283  0.00  0.00    +0.049 C 
ATOM      7  C   LIG    1        2.670  -2.545  -0.586  0.00  0.00    +0.066 C 
ATOM      8  C   LIG    1        0.307  -4.144  -0.360  0.00  0.00    +0.285 C 
ATOM      9  N   LIG    1        1.208  -0.662  -0.120  0.00  0.00    -0.255 NA
ENDROOT
BRANCH   4  10
ATOM     10  C   LIG    1       -2.087  -2.473  -0.998  0.00  0.00    -0.022 A 
ATOM     11  C   LIG    1       -1.855  -1.983  -2.270  0.00  0.00    +0.005 A 
ATOM     12  C   LIG    1       -2.729  -2.287  -3.297  0.00  0.00    +0.000 A 
ATOM     13  C   LIG    1       -3.834  -3.080  -3.053  0.00  0.00    +0.001 A 
ATOM     14  C   LIG    1       -4.065  -3.571  -1.781  0.00  0.00    +0.012 A 
ATOM     15  C   LIG    1       -3.189  -3.271  -0.755  0.00  0.00    +0.059 A 
BRANCH  15  16
ATOM     16  C   LIG    1       -3.438  -3.810   0.630  0.00  0.00    +0.418 C 
ATOM     17  F   LIG    1       -3.588  -2.745   1.525  0.00  0.00    -0.166 F 
ATOM     18  F   LIG    1       -2.354  -4.601   1.025  0.00  0.00    -0.166 F 
ATOM     19  F   LIG    1       -4.604  -4.583   0.627  0.00  0.00    -0.166 F 
ENDBRANCH  15  16
ENDBRANCH   4  10
BRANCH   3  20
ATOM     20  N   LIG    1       -2.351   0.124   0.596  0.00  0.00    +0.004 N 
ATOM     21  O   LIG    1       -2.309   1.325   0.728  0.00  0.00    -0.130 OA
BRANCH  20  22
ATOM     22  O   LIG    1       -3.403  -0.460   0.711  0.00  0.00    -0.396 OA
ATOM     23  H   LIG    1       -3.436  -1.391   0.609  0.00  0.00    +0.329 HD
ENDBRANCH  20  22
ENDBRANCH   3  20
BRANCH   8  24
ATOM     24  O   LIG    1       -0.804  -4.908  -0.418  0.00  0.00    -0.467 OA
ATOM     25  C   LIG    1       -0.617  -6.313  -0.603  0.00  0.00    +0.280 C 
ENDBRANCH   8  24
BRANCH   8  26
ATOM     26  O   LIG    1        1.525  -4.714  -0.476  0.00  0.00    -0.480 OA
ATOM     27  H   LIG    1        2.296  -4.183  -0.437  0.00  0.00    +0.295 HD
ENDBRANCH   8  26
TORSDOF 6
