REMARK  Name = ZINC28476239
REMARK                            x       y       z     vdW  Elec       q    Type
REMARK                         _______ _______ _______ _____ _____    ______ ____
ROOT
ATOM      1  C   LIG    1       -0.365   1.014  -0.418  0.00  0.00    +0.008 C 
ATOM      2  C   LIG    1        0.181   1.328   0.977  0.00  0.00    +0.021 C 
ATOM      3  C   LIG    1       -1.244   1.741   0.603  0.00  0.00    +0.056 C 
ENDROOT
BRANCH   1   5
ATOM      4  C   LIG    1        1.667   1.526  -1.778  0.00  0.00    +0.007 C 
ATOM      5  C   LIG    1        0.180   1.833  -1.590  0.00  0.00    -0.013 C 
ATOM      6  C   LIG    1       -0.582   1.468  -2.865  0.00  0.00    +0.007 C 
ENDBRANCH   1   5
BRANCH   3   7
ATOM      7  C   LIG    1       -1.507   3.207   0.377  0.00  0.00    +0.309 C 
ATOM      8  O   LIG    1       -2.015   3.578  -0.655  0.00  0.00    -0.250 OA
BRANCH   7   9
ATOM      9  O   LIG    1       -1.178   4.102   1.321  0.00  0.00    -0.480 OA
ATOM     10  H   LIG    1       -0.784   3.815   2.122  0.00  0.00    +0.295 HD
ENDBRANCH   7   9
ENDBRANCH   3   7
BRANCH   3  11
ATOM     11  C   LIG    1       -2.396   0.953   1.231  0.00  0.00    -0.068 C 
BRANCH  11  12
ATOM     12  N   LIG    1       -2.401   1.167   2.684  0.00  0.00    +0.379 N 
ATOM     13  H   LIG    1       -1.446   0.823   3.109  0.00  0.00    -0.090 HD
ATOM     14  H   LIG    1       -2.531   2.239   2.897  0.00  0.00    -0.090 HD
ATOM     15  H   LIG    1       -3.228   0.601   3.136  0.00  0.00    -0.090 HD
ENDBRANCH  11  12
ENDBRANCH   3  11
TORSDOF 5
