REMARK  Name = ZINC14852066
REMARK                            x       y       z     vdW  Elec       q    Type
REMARK                         _______ _______ _______ _____ _____    ______ ____
ROOT
ATOM      1  C   LIG    1       -0.019   1.526   0.010  0.00  0.00    +0.052 C 
ATOM      2  C   LIG    1        0.002  -0.004   0.002  0.00  0.00    +0.177 C 
ATOM      3  C   LIG    1        0.721  -0.499  -1.257  0.00  0.00    +0.071 C 
ATOM      4  C   LIG    1        0.993   0.668  -2.172  0.00  0.00    -0.020 C 
ATOM      5  C   LIG    1        2.233   0.880  -2.627  0.00  0.00    +0.045 C 
ATOM      6  C   LIG    1        3.322  -0.011  -2.239  0.00  0.00    +0.187 C 
ATOM      7  C   LIG    1        4.724   0.240  -2.733  0.00  0.00    +0.213 C 
ATOM      8  C   LIG    1        5.535  -1.053  -2.639  0.00  0.00    +0.154 C 
ATOM      9  C   LIG    1        6.415  -1.022  -1.387  0.00  0.00    +0.061 C 
ATOM     10  C   LIG    1        5.749  -1.825  -0.297  0.00  0.00    -0.024 C 
ATOM     11  C   LIG    1        4.712  -1.320   0.347  0.00  0.00    +0.005 C 
ATOM     12  C   LIG    1        4.041  -2.071   1.421  0.00  0.00    -0.004 A 
ATOM     13  C   LIG    1        4.700  -3.080   2.110  0.00  0.00    +0.054 A 
ATOM     14  C   LIG    1        4.046  -3.768   3.123  0.00  0.00    +0.124 A 
ATOM     15  C   LIG    1        2.742  -3.446   3.455  0.00  0.00    +0.091 A 
ATOM     16  C   LIG    1        2.066  -2.443   2.791  0.00  0.00    +0.135 A 
ATOM     17  C   LIG    1        2.706  -1.750   1.757  0.00  0.00    +0.108 A 
ATOM     18  C   LIG    1        2.015  -0.703   1.003  0.00  0.00    +0.344 C 
ATOM     19  O   LIG    1        2.644  -0.022   0.217  0.00  0.00    -0.245 OA
ATOM     20  O   LIG    1        3.097  -0.958  -1.515  0.00  0.00    -0.290 OA
ATOM     21  O   LIG    1        0.698  -0.480   1.162  0.00  0.00    -0.458 OA
ENDROOT
BRANCH   7  22
ATOM     22  O   LIG    1        5.340   1.248  -1.928  0.00  0.00    -0.381 OA
ATOM     23  H   LIG    1        4.877   2.097  -1.939  0.00  0.00    +0.210 HD
ENDBRANCH   7  22
BRANCH   8  24
ATOM     24  O   LIG    1        6.363  -1.180  -3.797  0.00  0.00    -0.388 OA
ATOM     25  H   LIG    1        6.907  -1.979  -3.806  0.00  0.00    +0.210 HD
ENDBRANCH   8  24
BRANCH  14  26
ATOM     26  O   LIG    1        4.689  -4.760   3.790  0.00  0.00    -0.495 OA
ATOM     27  C   LIG    1        3.958  -5.427   4.821  0.00  0.00    +0.277 C 
ENDBRANCH  14  26
BRANCH  16  28
ATOM     28  O   LIG    1        0.792  -2.131   3.136  0.00  0.00    -0.506 OA
ATOM     29  H   LIG    1        0.725  -1.450   3.820  0.00  0.00    +0.292 HD
ENDBRANCH  16  28
TORSDOF 4
