REMARK  Name = ZINC19632896
REMARK                            x       y       z     vdW  Elec       q    Type
REMARK                         _______ _______ _______ _____ _____    ______ ____
ROOT
ATOM      1  N   LIG    1        3.611  -1.868  -0.933  0.00  0.00    -0.295 NA
ATOM      2  C   LIG    1        3.201  -1.458  -2.283  0.00  0.00    +0.067 C 
ATOM      3  C   LIG    1        3.051  -2.698  -3.166  0.00  0.00    -0.063 C 
ATOM      4  N   LIG    1        4.331  -3.418  -3.222  0.00  0.00    +0.381 N 
ATOM      5  H   LIG    1        5.043  -2.809  -3.598  0.00  0.00    -0.082 HD
ATOM      6  C   LIG    1        4.715  -3.842  -1.869  0.00  0.00    -0.063 C 
ATOM      7  C   LIG    1        4.878  -2.611  -0.975  0.00  0.00    +0.067 C 
ENDROOT
BRANCH   1   8
ATOM      8  C   LIG    1        3.711  -0.707  -0.038  0.00  0.00    +0.117 C 
BRANCH   8  12
ATOM      9  C   LIG    1       -0.017   1.378   0.010  0.00  0.00    +0.000 A 
ATOM     10  C   LIG    1        1.171   2.086   0.002  0.00  0.00    +0.000 A 
ATOM     11  C   LIG    1        2.377   1.411  -0.013  0.00  0.00    +0.005 A 
ATOM     12  C   LIG    1        2.396   0.029  -0.020  0.00  0.00    -0.026 A 
ATOM     13  C   LIG    1        1.208  -0.679  -0.012  0.00  0.00    +0.005 A 
ATOM     14  C   LIG    1        0.002  -0.004   0.002  0.00  0.00    +0.000 A 
ENDBRANCH   8  12
BRANCH   8  15
ATOM     15  C   LIG    1        4.044  -1.175   1.356  0.00  0.00    -0.026 A 
ATOM     16  C   LIG    1        3.455  -2.320   1.860  0.00  0.00    +0.005 A 
ATOM     17  C   LIG    1        3.760  -2.748   3.138  0.00  0.00    +0.000 A 
ATOM     18  C   LIG    1        4.654  -2.033   3.912  0.00  0.00    +0.000 A 
ATOM     19  C   LIG    1        5.243  -0.888   3.408  0.00  0.00    +0.000 A 
ATOM     20  C   LIG    1        4.941  -0.462   2.128  0.00  0.00    +0.005 A 
ENDBRANCH   8  15
ENDBRANCH   1   8
BRANCH   4  21
ATOM     21  C   LIG    1        4.191  -4.598  -4.084  0.00  0.00    -0.077 C 
BRANCH  21  22
ATOM     22  C   LIG    1        5.553  -5.278  -4.242  0.00  0.00    +0.003 C 
BRANCH  22  23
ATOM     23  C   LIG    1        5.408  -6.508  -5.140  0.00  0.00    +0.125 C 
BRANCH  23  24
ATOM     24  N   LIG    1        6.712  -7.159  -5.292  0.00  0.00    -0.292 N 
ATOM     25  C   LIG    1        7.652  -6.880  -6.280  0.00  0.00    +0.070 A 
ATOM     26  C   LIG    1        7.679  -5.990  -7.344  0.00  0.00    +0.028 A 
ATOM     27  C   LIG    1        8.783  -5.944  -8.173  0.00  0.00    +0.002 A 
ATOM     28  C   LIG    1        9.861  -6.782  -7.948  0.00  0.00    +0.002 A 
ATOM     29  C   LIG    1        9.843  -7.671  -6.891  0.00  0.00    +0.028 A 
ATOM     30  C   LIG    1        8.740  -7.724  -6.053  0.00  0.00    +0.067 A 
ATOM     31  N   LIG    1        8.427  -8.491  -4.933  0.00  0.00    -0.306 N 
ATOM     32  H   LIG    1        8.993  -9.170  -4.533  0.00  0.00    +0.170 HD
ATOM     33  C   LIG    1        7.207  -8.125  -4.496  0.00  0.00    +0.328 A 
ATOM     34  O   LIG    1        6.638  -8.598  -3.530  0.00  0.00    -0.247 OA
ENDBRANCH  23  24
ENDBRANCH  22  23
ENDBRANCH  21  22
ENDBRANCH   4  21
TORSDOF 7
