REMARK  Name = ZINC00004035
REMARK                            x       y       z     vdW  Elec       q    Type
REMARK                         _______ _______ _______ _____ _____    ______ ____
ROOT
ATOM      1  C   LIG    1       -1.657  -0.237   2.866  0.00  0.00    +0.080 C 
ATOM      2  C   LIG    1       -1.770   0.240   4.314  0.00  0.00    +0.019 C 
ATOM      3  C   LIG    1       -3.242   0.321   4.735  0.00  0.00    +0.055 C 
ATOM      4  C   LIG    1       -3.962   1.232   3.767  0.00  0.00    +0.030 A 
ATOM      5  C   LIG    1       -3.517   1.399   2.451  0.00  0.00    +0.046 A 
ATOM      6  C   LIG    1       -4.426   2.334   1.813  0.00  0.00    +0.011 A 
ATOM      7  C   LIG    1       -4.556   2.921   0.554  0.00  0.00    +0.011 A 
ATOM      8  C   LIG    1       -5.618   3.795   0.375  0.00  0.00    +0.001 A 
ATOM      9  C   LIG    1       -6.533   4.097   1.380  0.00  0.00    +0.006 A 
ATOM     10  C   LIG    1       -6.421   3.530   2.624  0.00  0.00    -0.023 A 
ATOM     11  C   LIG    1       -7.327   3.756   3.799  0.00  0.00    +0.039 C 
ATOM     12  C   LIG    1       -6.540   3.547   5.098  0.00  0.00    +0.026 C 
ATOM     13  C   LIG    1       -5.894   2.158   5.166  0.00  0.00    +0.122 C 
ATOM     14  C   LIG    1       -5.357   2.652   2.813  0.00  0.00    +0.053 A 
ATOM     15  N   LIG    1       -5.051   1.975   3.974  0.00  0.00    -0.343 N 
ATOM     16  C   LIG    1       -2.379   0.723   1.948  0.00  0.00    +0.170 C 
ATOM     17  O   LIG    1       -1.994   0.908   0.811  0.00  0.00    -0.292 OA
ENDROOT
BRANCH   1  18
ATOM     18  C   LIG    1       -0.181  -0.308   2.468  0.00  0.00    +0.134 C 
BRANCH  18  25
ATOM     19  C   LIG    1       -0.443  -3.335   1.860  0.00  0.00    +0.084 C 
ATOM     20  C   LIG    1       -0.172  -2.240   0.861  0.00  0.00    +0.084 A 
ATOM     21  N   LIG    1       -0.011  -2.406  -0.424  0.00  0.00    -0.350 N 
ATOM     22  H   LIG    1       -0.046  -3.256  -0.889  0.00  0.00    +0.166 HD
ATOM     23  C   LIG    1        0.212  -1.215  -0.999  0.00  0.00    +0.101 A 
ATOM     24  C   LIG    1        0.188  -0.275  -0.034  0.00  0.00    +0.104 A 
ATOM     25  N   LIG    1       -0.061  -0.925   1.145  0.00  0.00    -0.335 N 
ENDBRANCH  18  25
ENDBRANCH   1  18
TORSDOF 2
