REMARK  Name = ZINC28397515
REMARK                            x       y       z     vdW  Elec       q    Type
REMARK                         _______ _______ _______ _____ _____    ______ ____
ROOT
ATOM      1  C   LIG    1        4.164  -0.959   1.377  0.00  0.00    +0.223 C 
ATOM      2  N   LIG    1        5.323  -1.607   1.608  0.00  0.00    -0.264 N 
ATOM      3  H   LIG    1        5.866  -1.911   0.864  0.00  0.00    +0.157 HD
ATOM      4  O   LIG    1        3.486  -0.579   2.308  0.00  0.00    -0.275 OA
ENDROOT
BRANCH   2   5
ATOM      5  C   LIG    1        5.741  -1.840   2.912  0.00  0.00    +0.165 A 
ATOM      6  N   LIG    1        5.137  -1.508   4.034  0.00  0.00    -0.232 NA
ATOM      7  C   LIG    1        5.662  -1.800   5.205  0.00  0.00    +0.129 A 
ATOM      8  C   LIG    1        6.862  -2.462   5.194  0.00  0.00    +0.041 A 
ATOM      9  S   LIG    1        7.136  -2.620   3.437  0.00  0.00    -0.052 S 
BRANCH   8  10
ATOM     10  C   LIG    1        7.695  -2.923   6.325  0.00  0.00    -0.010 A 
ATOM     11  C   LIG    1        7.279  -2.701   7.638  0.00  0.00    +0.009 A 
ATOM     12  C   LIG    1        8.061  -3.135   8.689  0.00  0.00    +0.001 A 
ATOM     13  C   LIG    1        9.256  -3.788   8.443  0.00  0.00    +0.000 A 
ATOM     14  C   LIG    1        9.674  -4.011   7.143  0.00  0.00    +0.001 A 
ATOM     15  C   LIG    1        8.898  -3.588   6.083  0.00  0.00    +0.009 A 
ENDBRANCH   8  10
ENDBRANCH   2   5
BRANCH   1  16
ATOM     16  C   LIG    1        3.711  -0.707  -0.038  0.00  0.00    +0.131 C 
BRANCH  16  20
ATOM     17  C   LIG    1       -0.017   1.378   0.010  0.00  0.00    +0.000 A 
ATOM     18  C   LIG    1        1.171   2.086   0.002  0.00  0.00    +0.000 A 
ATOM     19  C   LIG    1        2.377   1.411  -0.013  0.00  0.00    +0.004 A 
ATOM     20  C   LIG    1        2.396   0.029  -0.020  0.00  0.00    -0.039 A 
ATOM     21  C   LIG    1        1.208  -0.679  -0.012  0.00  0.00    +0.004 A 
ATOM     22  C   LIG    1        0.002  -0.004   0.002  0.00  0.00    +0.000 A 
ENDBRANCH  16  20
ENDBRANCH   1  16
TORSDOF 4
