REMARK  Name = ZINC29039034
REMARK                            x       y       z     vdW  Elec       q    Type
REMARK                         _______ _______ _______ _____ _____    ______ ____
ROOT
ATOM      1  C   LIG    1       -1.306   2.116   0.025  0.00  0.00    +0.248 C 
ATOM      2  N   LIG    1       -1.320   3.464   0.027  0.00  0.00    -0.280 N 
ATOM      3  H   LIG    1       -0.376   4.024   0.104  0.00  0.00    +0.155 HD
ATOM      4  O   LIG    1       -2.352   1.497   0.023  0.00  0.00    -0.270 OA
ENDROOT
BRANCH   1   8
ATOM      5  C   LIG    1        2.395   0.032   0.016  0.00  0.00    -0.030 A 
ATOM      6  C   LIG    1        1.206  -0.675   0.019  0.00  0.00    +0.006 A 
ATOM      7  C   LIG    1        0.001  -0.005   0.024  0.00  0.00    +0.013 A 
ATOM      8  C   LIG    1       -0.018   1.391   0.026  0.00  0.00    +0.037 A 
ATOM      9  C   LIG    1        1.186   2.099   0.023  0.00  0.00    +0.013 A 
ATOM     10  C   LIG    1        2.384   1.416   0.018  0.00  0.00    +0.006 A 
BRANCH   5  11
ATOM     11  C   LIG    1        3.708  -0.707   0.011  0.00  0.00    +0.142 C 
BRANCH  11  13
ATOM     12  C   LIG    1        5.283  -1.595  -1.624  0.00  0.00    +0.400 C 
ATOM     13  N   LIG    1        4.129  -0.945  -1.373  0.00  0.00    -0.277 N 
ATOM     14  H   LIG    1        3.503  -0.593  -2.206  0.00  0.00    +0.152 HD
ATOM     15  O   LIG    1        5.974  -1.984  -0.703  0.00  0.00    -0.226 OA
BRANCH  12  17
ATOM     16  C   LIG    1        6.923  -2.520  -3.090  0.00  0.00    +0.282 C 
ATOM     17  O   LIG    1        5.670  -1.814  -2.895  0.00  0.00    -0.454 OA
ENDBRANCH  12  17
ENDBRANCH  11  13
ENDBRANCH   5  11
ENDBRANCH   1   8
BRANCH   2  18
ATOM     18  C   LIG    1       -2.537   4.152  -0.069  0.00  0.00    +0.055 A 
ATOM     19  C   LIG    1       -3.675   3.632   0.523  0.00  0.00    +0.033 A 
ATOM     20  C   LIG    1       -4.882   4.322   0.431  0.00  0.00    -0.016 A 
ATOM     21  C   LIG    1       -4.944   5.527  -0.268  0.00  0.00    +0.010 A 
ATOM     22  C   LIG    1       -3.810   6.040  -0.862  0.00  0.00    +0.025 A 
ATOM     23  C   LIG    1       -2.604   5.359  -0.767  0.00  0.00    +0.046 A 
BRANCH  20  24
ATOM     24  C   LIG    1       -6.103   3.772   1.070  0.00  0.00    -0.018 A 
ATOM     25  C   LIG    1       -6.045   2.564   1.764  0.00  0.00    +0.008 A 
ATOM     26  C   LIG    1       -7.182   2.059   2.361  0.00  0.00    +0.001 A 
ATOM     27  C   LIG    1       -8.380   2.744   2.262  0.00  0.00    +0.000 A 
ATOM     28  C   LIG    1       -8.445   3.940   1.570  0.00  0.00    +0.001 A 
ATOM     29  C   LIG    1       -7.312   4.457   0.974  0.00  0.00    +0.008 A 
ENDBRANCH  20  24
BRANCH  23  30
ATOM     30  N   LIG    1       -1.457   5.881  -1.371  0.00  0.00    -0.357 N 
ATOM     31  H   LIG    1       -0.501   5.341  -1.296  0.00  0.00    +0.142 HD
ATOM     32  H   LIG    1       -1.509   6.832  -1.921  0.00  0.00    +0.142 HD
ENDBRANCH  23  30
ENDBRANCH   2  18
TORSDOF 7
