REMARK  Name = ZINC28383479
REMARK                            x       y       z     vdW  Elec       q    Type
REMARK                         _______ _______ _______ _____ _____    ______ ____
ROOT
ATOM      1  C   LIG    1        3.886  -4.753  -0.061  0.00  0.00    +0.230 C 
ATOM      2  N   LIG    1        4.157  -6.073  -0.071  0.00  0.00    -0.313 N 
ATOM      3  H   LIG    1        3.335  -6.803  -0.068  0.00  0.00    +0.149 HD
ATOM      4  O   LIG    1        4.793  -3.948  -0.065  0.00  0.00    -0.274 OA
ENDROOT
BRANCH   2   5
ATOM      5  C   LIG    1        5.547  -6.535  -0.087  0.00  0.00    +0.055 C 
ATOM      6  C   LIG    1        6.048  -6.679  -1.542  0.00  0.00    +0.002 C 
ATOM      7  C   LIG    1        6.905  -7.970  -1.488  0.00  0.00    -0.077 C 
ATOM      8  N   LIG    1        6.146  -8.841  -0.555  0.00  0.00    +0.384 N 
ATOM      9  H   LIG    1        5.322  -9.364  -1.062  0.00  0.00    -0.081 HD
ATOM     10  C   LIG    1        5.647  -7.950   0.514  0.00  0.00    -0.056 C 
BRANCH   8  11
ATOM     11  C   LIG    1        7.008  -9.895  -0.002  0.00  0.00    -0.043 C 
BRANCH  11  12
ATOM     12  C   LIG    1        7.690 -10.629  -1.127  0.00  0.00    -0.064 A 
ATOM     13  C   LIG    1        7.093 -11.741  -1.690  0.00  0.00    +0.003 A 
ATOM     14  C   LIG    1        7.716 -12.410  -2.726  0.00  0.00    +0.020 A 
ATOM     15  C   LIG    1        8.943 -11.974  -3.193  0.00  0.00    +0.041 A 
ATOM     16 CL   LIG    1        9.729 -12.818  -4.490  0.00  0.00    -0.084 Cl
ATOM     17  C   LIG    1        9.543 -10.864  -2.625  0.00  0.00    +0.020 A 
ATOM     18  C   LIG    1        8.916 -10.192  -1.593  0.00  0.00    +0.003 A 
ENDBRANCH  11  12
ENDBRANCH   8  11
ENDBRANCH   2   5
BRANCH   1  19
ATOM     19  C   LIG    1        2.456  -4.277  -0.045  0.00  0.00    +0.200 C 
BRANCH  19  21
ATOM     20  C   LIG    1        1.250  -2.161  -0.022  0.00  0.00    +0.244 C 
ATOM     21  N   LIG    1        2.429  -2.812  -0.037  0.00  0.00    -0.303 N 
ATOM     22  H   LIG    1        3.371  -2.245  -0.042  0.00  0.00    +0.150 HD
ATOM     23  O   LIG    1        0.208  -2.788  -0.016  0.00  0.00    -0.270 OA
BRANCH  20  26
ATOM     24  C   LIG    1        2.383   1.420  -0.013  0.00  0.00    +0.001 A 
ATOM     25  C   LIG    1        2.416   0.041  -0.021  0.00  0.00    +0.013 A 
ATOM     26  C   LIG    1        1.222  -0.682  -0.013  0.00  0.00    +0.037 A 
ATOM     27  C   LIG    1        0.002  -0.004   0.002  0.00  0.00    +0.025 A 
ATOM     28  C   LIG    1       -0.017   1.375   0.010  0.00  0.00    +0.056 A 
ATOM     29  C   LIG    1        1.170   2.086   0.002  0.00  0.00    +0.012 A 
BRANCH  28  30
ATOM     30  C   LIG    1       -1.333   2.109   0.020  0.00  0.00    +0.417 C 
ATOM     31  F   LIG    1       -2.300   1.342  -0.639  0.00  0.00    -0.166 F 
ATOM     32  F   LIG    1       -1.187   3.337  -0.634  0.00  0.00    -0.166 F 
ATOM     33  F   LIG    1       -1.734   2.329   1.342  0.00  0.00    -0.166 F 
ENDBRANCH  28  30
ENDBRANCH  20  26
ENDBRANCH  19  21
ENDBRANCH   1  19
TORSDOF 7
