REMARK  Name = ZINC39047805
REMARK                            x       y       z     vdW  Elec       q    Type
REMARK                         _______ _______ _______ _____ _____    ______ ____
ROOT
ATOM      1  C   LIG    1       -0.018   1.503   0.010  0.00  0.00    +0.044 C 
ATOM      2  C   LIG    1        0.002  -0.004   0.002  0.00  0.00    -0.038 A 
ATOM      3  C   LIG    1        0.006  -0.694  -1.201  0.00  0.00    +0.004 A 
ATOM      4  C   LIG    1        0.025  -2.075  -1.216  0.00  0.00    +0.001 A 
ATOM      5  C   LIG    1        0.039  -2.792  -0.029  0.00  0.00    +0.014 A 
ATOM      6  C   LIG    1        0.036  -2.116   1.180  0.00  0.00    +0.050 A 
ATOM      7  C   LIG    1        0.047  -2.536   2.597  0.00  0.00    +0.258 C 
ATOM      8  O   LIG    1        0.064  -3.683   2.997  0.00  0.00    -0.269 OA
ATOM      9  N   LIG    1        0.053  -1.435   3.371  0.00  0.00    -0.202 N 
ATOM     10  C   LIG    1        0.031  -0.318   2.622  0.00  0.00    +0.258 C 
ATOM     11  O   LIG    1        0.019   0.820   3.047  0.00  0.00    -0.269 OA
ATOM     12  C   LIG    1        0.023  -0.706   1.196  0.00  0.00    +0.053 A 
ENDROOT
BRANCH   9  13
ATOM     13  C   LIG    1        0.067  -1.450   4.769  0.00  0.00    +0.049 A 
ATOM     14  C   LIG    1        0.052  -0.262   5.497  0.00  0.00    +0.044 A 
ATOM     15  C   LIG    1        0.066  -0.319   6.875  0.00  0.00    +0.114 A 
ATOM     16  N   LIG    1        0.094  -1.479   7.504  0.00  0.00    -0.243 NA
ATOM     17  C   LIG    1        0.109  -2.626   6.851  0.00  0.00    +0.131 A 
ATOM     18 CL   LIG    1        0.146  -4.118   7.738  0.00  0.00    -0.062 Cl
ATOM     19  C   LIG    1        0.090  -2.654   5.469  0.00  0.00    +0.064 A 
ENDBRANCH   9  13
TORSDOF 1
