REMARK  Name = ZINC20148986
REMARK                            x       y       z     vdW  Elec       q    Type
REMARK                         _______ _______ _______ _____ _____    ______ ____
ROOT
ATOM      1  C   LIG    1        1.303  -1.442  -0.182  0.00  0.00    +0.147 A 
ATOM      2  C   LIG    1       -0.006  -1.186   0.235  0.00  0.00    +0.099 A 
ATOM      3 CL   LIG    1       -0.978  -2.444   0.931  0.00  0.00    -0.078 Cl
ATOM      4  C   LIG    1       -0.508   0.092   0.079  0.00  0.00    +0.137 A 
ATOM      5  N   LIG    1        0.260   1.029  -0.457  0.00  0.00    -0.221 NA
ATOM      6  C   LIG    1        1.497   0.757  -0.843  0.00  0.00    +0.221 A 
ATOM      7  N   LIG    1        2.017  -0.454  -0.711  0.00  0.00    -0.198 NA
ENDROOT
BRANCH   1   8
ATOM      8  N   LIG    1        1.850  -2.710  -0.045  0.00  0.00    -0.298 N 
ATOM      9  H   LIG    1        1.298  -3.446   0.263  0.00  0.00    +0.154 HD
BRANCH   8  15
ATOM     10  C   LIG    1        3.591  -4.128  -0.950  0.00  0.00    +0.058 A 
ATOM     11  C   LIG    1        4.941  -4.332  -1.250  0.00  0.00    +0.015 A 
ATOM     12  C   LIG    1        5.866  -3.355  -0.955  0.00  0.00    +0.001 A 
ATOM     13  C   LIG    1        5.466  -2.169  -0.361  0.00  0.00    +0.002 A 
ATOM     14  C   LIG    1        4.136  -1.950  -0.063  0.00  0.00    +0.024 A 
ATOM     15  C   LIG    1        3.190  -2.926  -0.348  0.00  0.00    +0.045 A 
BRANCH  10  19
ATOM     16  C   LIG    1        2.010  -7.404  -2.040  0.00  0.00    +0.128 C 
ATOM     17  N   LIG    1        2.999  -6.369  -1.729  0.00  0.00    -0.314 N 
ATOM     18  H   LIG    1        3.944  -6.547  -1.858  0.00  0.00    +0.149 HD
ATOM     19  C   LIG    1        2.596  -5.170  -1.263  0.00  0.00    +0.246 C 
ATOM     20  O   LIG    1        1.412  -4.948  -1.101  0.00  0.00    -0.270 OA
ENDBRANCH  10  19
ENDBRANCH   8  15
ENDBRANCH   1   8
BRANCH   6  21
ATOM     21  N   LIG    1        2.268   1.765  -1.399  0.00  0.00    -0.281 N 
ATOM     22  H   LIG    1        3.157   1.568  -1.733  0.00  0.00    +0.155 HD
BRANCH  21  23
ATOM     23  C   LIG    1        1.762   3.072  -1.479  0.00  0.00    +0.076 A 
ATOM     24  C   LIG    1        0.827   3.511  -0.554  0.00  0.00    +0.029 A 
ATOM     25  C   LIG    1        0.329   4.798  -0.631  0.00  0.00    +0.025 A 
ATOM     26  C   LIG    1        0.765   5.654  -1.634  0.00  0.00    +0.033 A 
ATOM     27  C   LIG    1        1.701   5.218  -2.562  0.00  0.00    +0.070 A 
ATOM     28  C   LIG    1        2.205   3.930  -2.483  0.00  0.00    +0.143 A 
BRANCH  26  29
ATOM     29  N   LIG    1        0.260   6.957  -1.710  0.00  0.00    -0.325 N 
ATOM     30  C   LIG    1        1.347   7.946  -1.670  0.00  0.00    +0.133 C 
ATOM     31  C   LIG    1        0.757   9.351  -1.816  0.00  0.00    +0.178 C 
ATOM     32  O   LIG    1       -0.209   9.566  -0.783  0.00  0.00    -0.377 OA
ATOM     33  C   LIG    1       -1.282   8.621  -0.793  0.00  0.00    +0.178 C 
ATOM     34  C   LIG    1       -0.713   7.208  -0.637  0.00  0.00    +0.133 C 
ENDBRANCH  26  29
BRANCH  28  35
ATOM     35  O   LIG    1        3.127   3.502  -3.387  0.00  0.00    -0.493 OA
ATOM     36  C   LIG    1        3.534   4.436  -4.389  0.00  0.00    +0.277 C 
ENDBRANCH  28  35
ENDBRANCH  21  23
ENDBRANCH   6  21
TORSDOF 7
