REMARK  Name = ZINC34026963
REMARK                            x       y       z     vdW  Elec       q    Type
REMARK                         _______ _______ _______ _____ _____    ______ ____
ROOT
ATOM      1  C   LIG    1       -4.450  -0.064  -1.027  0.00  0.00    +0.012 C 
ATOM      2  C   LIG    1       -4.874   1.123  -0.160  0.00  0.00    -0.018 C 
ATOM      3  C   LIG    1       -5.173   0.684   1.250  0.00  0.00    +0.008 C 
ATOM      4  C   LIG    1       -6.655   0.317   1.417  0.00  0.00    +0.005 C 
ATOM      5  C   LIG    1       -7.272  -0.088   0.089  0.00  0.00    +0.004 C 
ATOM      6  C   LIG    1       -7.313   1.117  -0.857  0.00  0.00    -0.003 C 
ATOM      7  C   LIG    1       -7.693   0.650  -2.256  0.00  0.00    +0.006 C 
ATOM      8  C   LIG    1       -9.088   0.004  -2.187  0.00  0.00    +0.023 C 
ATOM      9  C   LIG    1       -9.613   0.062  -0.761  0.00  0.00    +0.083 C 
ATOM     10  N   LIG    1      -10.949  -0.526  -0.642  0.00  0.00    -0.308 N 
ATOM     11  H   LIG    1      -11.506  -0.814  -1.546  0.00  0.00    +0.149 HD
ATOM     12  C   LIG    1      -11.454  -0.693   0.603  0.00  0.00    +0.237 C 
ATOM     13  O   LIG    1      -12.636  -0.938   0.753  0.00  0.00    -0.271 OA
ATOM     14  C   LIG    1      -10.568  -0.548   1.771  0.00  0.00    +0.063 C 
ATOM     15  C   LIG    1       -9.242  -0.499   1.607  0.00  0.00    -0.013 C 
ATOM     16  C   LIG    1       -8.680  -0.653   0.220  0.00  0.00    +0.008 C 
ATOM     17  C   LIG    1       -8.636  -2.149  -0.121  0.00  0.00    +0.017 C 
ATOM     18  C   LIG    1       -3.749   2.176  -0.279  0.00  0.00    +0.081 C 
ATOM     19  C   LIG    1       -3.998   2.822  -1.665  0.00  0.00    +0.013 C 
ATOM     20  C   LIG    1       -5.442   2.426  -2.082  0.00  0.00    +0.005 C 
ATOM     21  C   LIG    1       -6.049   1.911  -0.770  0.00  0.00    -0.001 C 
ENDROOT
BRANCH  18  22
ATOM     22  C   LIG    1       -2.409   1.498  -0.242  0.00  0.00    +0.221 C 
ATOM     23  N   LIG    1       -1.350   2.065  -0.854  0.00  0.00    -0.285 N 
ATOM     24  H   LIG    1       -1.453   3.050  -1.332  0.00  0.00    +0.155 HD
ATOM     25  O   LIG    1       -2.280   0.440   0.338  0.00  0.00    -0.275 OA
BRANCH  23  26
ATOM     26  C   LIG    1       -0.119   1.400  -0.880  0.00  0.00    +0.046 A 
ATOM     27  C   LIG    1        0.183   0.455   0.093  0.00  0.00    +0.036 A 
ATOM     28  C   LIG    1        1.396  -0.203   0.061  0.00  0.00    +0.057 A 
ATOM     29  C   LIG    1        2.311   0.078  -0.938  0.00  0.00    +0.013 A 
ATOM     30  C   LIG    1        2.014   1.018  -1.907  0.00  0.00    +0.015 A 
ATOM     31  C   LIG    1        0.802   1.680  -1.881  0.00  0.00    +0.076 A 
BRANCH  28  32
ATOM     32  C   LIG    1        1.724  -1.228   1.115  0.00  0.00    +0.417 C 
ATOM     33  F   LIG    1        1.076  -0.894   2.309  0.00  0.00    -0.166 F 
ATOM     34  F   LIG    1        3.107  -1.254   1.327  0.00  0.00    -0.166 F 
ATOM     35  F   LIG    1        1.294  -2.490   0.689  0.00  0.00    -0.166 F 
ENDBRANCH  28  32
BRANCH  31  36
ATOM     36  C   LIG    1        0.479   2.704  -2.938  0.00  0.00    +0.419 C 
ATOM     37  F   LIG    1        0.253   3.944  -2.332  0.00  0.00    -0.166 F 
ATOM     38  F   LIG    1       -0.668   2.309  -3.635  0.00  0.00    -0.166 F 
ATOM     39  F   LIG    1        1.552   2.809  -3.829  0.00  0.00    -0.166 F 
ENDBRANCH  31  36
ENDBRANCH  23  26
ENDBRANCH  18  22
TORSDOF 4
