REMARK  Name = ZINC00002272
REMARK                            x       y       z     vdW  Elec       q    Type
REMARK                         _______ _______ _______ _____ _____    ______ ____
ROOT
ATOM      1  C   LIG    1        0.940  -0.861   1.048  0.00  0.00    -0.033 A 
ATOM      2  C   LIG    1        2.107  -0.213   1.414  0.00  0.00    +0.004 A 
ATOM      3  C   LIG    1        2.612  -0.354   2.694  0.00  0.00    +0.001 A 
ATOM      4  C   LIG    1        1.955  -1.142   3.615  0.00  0.00    +0.012 A 
ATOM      5  C   LIG    1        0.777  -1.799   3.253  0.00  0.00    +0.023 A 
ATOM      6  C   LIG    1        0.269  -1.648   1.961  0.00  0.00    +0.016 A 
ENDROOT
BRANCH   1   8
ATOM      7  C   LIG    1        0.106   0.776  -0.617  0.00  0.00    +0.024 C 
ATOM      8  C   LIG    1        0.397  -0.702  -0.349  0.00  0.00    +0.124 C 
BRANCH   8   9
ATOM      9  C   LIG    1        1.413  -1.202  -1.343  0.00  0.00    +0.312 C 
ATOM     10  O   LIG    1        1.863  -0.446  -2.187  0.00  0.00    -0.250 OA
BRANCH   9  11
ATOM     11  O   LIG    1        1.786  -2.362  -1.302  0.00  0.00    -0.480 OA
ATOM     12  H   LIG    1        1.440  -2.943  -0.653  0.00  0.00    +0.295 HD
ENDBRANCH   9  11
ENDBRANCH   8   9
ENDBRANCH   1   8
BRANCH   5  13
ATOM     13  C   LIG    1        0.067  -2.646   4.235  0.00  0.00    +0.193 C 
ATOM     14  O   LIG    1        0.429  -2.664   5.395  0.00  0.00    -0.287 OA
BRANCH  13  15
ATOM     15  C   LIG    1       -1.081  -3.470   3.806  0.00  0.00    +0.022 A 
ATOM     16  C   LIG    1       -1.104  -4.031   2.527  0.00  0.00    +0.012 A 
ATOM     17  C   LIG    1       -2.179  -4.800   2.133  0.00  0.00    +0.001 A 
ATOM     18  C   LIG    1       -3.235  -5.015   3.002  0.00  0.00    +0.000 A 
ATOM     19  C   LIG    1       -3.219  -4.462   4.270  0.00  0.00    +0.001 A 
ATOM     20  C   LIG    1       -2.148  -3.696   4.679  0.00  0.00    +0.012 A 
ENDBRANCH  13  15
ENDBRANCH   5  13
TORSDOF 5
