REMARK  Name = ZINC17740306
REMARK                            x       y       z     vdW  Elec       q    Type
REMARK                         _______ _______ _______ _____ _____    ______ ____
ROOT
ATOM      1  N   LIG    1        0.443  -3.321   2.417  0.00  0.00    -0.333 N 
ATOM      2  C   LIG    1       -0.880  -3.608   2.994  0.00  0.00    +0.086 C 
ATOM      3  C   LIG    1       -0.943  -2.991   4.395  0.00  0.00    -0.060 C 
ATOM      4  N   LIG    1        0.186  -3.482   5.196  0.00  0.00    +0.383 N 
ATOM      5  H   LIG    1        0.175  -4.491   5.208  0.00  0.00    -0.082 HD
ATOM      6  C   LIG    1        1.451  -3.015   4.615  0.00  0.00    -0.060 C 
ATOM      7  C   LIG    1        1.633  -3.638   3.222  0.00  0.00    +0.086 C 
ENDROOT
BRANCH   1  13
ATOM      8  C   LIG    1        0.758   0.646  -0.466  0.00  0.00    +0.044 C 
ATOM      9  C   LIG    1        0.721  -0.850  -0.288  0.00  0.00    -0.046 A 
ATOM     10  C   LIG    1        0.809  -1.679  -1.391  0.00  0.00    +0.004 A 
ATOM     11  C   LIG    1        0.775  -3.052  -1.232  0.00  0.00    +0.002 A 
ATOM     12  C   LIG    1        0.653  -3.600   0.030  0.00  0.00    +0.023 A 
ATOM     13  C   LIG    1        0.566  -2.771   1.140  0.00  0.00    +0.033 A 
ATOM     14  C   LIG    1        0.605  -1.391   0.977  0.00  0.00    -0.027 A 
ATOM     15  C   LIG    1        0.516  -0.487   2.179  0.00  0.00    +0.046 C 
ENDBRANCH   1  13
BRANCH   4  16
ATOM     16  C   LIG    1        0.065  -2.979   6.571  0.00  0.00    -0.044 C 
BRANCH  16  17
ATOM     17  C   LIG    1       -1.169  -3.595   7.232  0.00  0.00    +0.135 C 
BRANCH  17  18
ATOM     18  O   LIG    1       -1.028  -5.016   7.274  0.00  0.00    -0.390 OA
ATOM     19  H   LIG    1       -0.256  -5.320   7.771  0.00  0.00    +0.210 HD
ENDBRANCH  17  18
BRANCH  17  20
ATOM     20  C   LIG    1       -1.308  -3.054   8.657  0.00  0.00    +0.258 C 
BRANCH  20  21
ATOM     21  O   LIG    1       -2.522  -3.538   9.234  0.00  0.00    -0.489 OA
BRANCH  21  22
ATOM     22  C   LIG    1       -2.798  -3.148  10.504  0.00  0.00    +0.121 A 
ATOM     23  C   LIG    1       -1.917  -2.310  11.179  0.00  0.00    +0.046 A 
ATOM     24  C   LIG    1       -2.191  -1.913  12.463  0.00  0.00    +0.015 A 
ATOM     25  C   LIG    1       -3.361  -2.354  13.094  0.00  0.00    +0.017 A 
ATOM     26  C   LIG    1       -4.245  -3.197  12.410  0.00  0.00    +0.015 A 
ATOM     27  C   LIG    1       -3.964  -3.584  11.125  0.00  0.00    +0.046 A 
BRANCH  25  28
ATOM     28  C   LIG    1       -3.660  -1.932  14.469  0.00  0.00    +0.160 C 
ATOM     29  C   LIG    1       -4.920  -2.407  15.145  0.00  0.00    +0.091 C 
ATOM     30  O   LIG    1       -2.893  -1.202  15.059  0.00  0.00    -0.292 OA
ENDBRANCH  25  28
ENDBRANCH  21  22
ENDBRANCH  20  21
ENDBRANCH  17  20
ENDBRANCH  16  17
ENDBRANCH   4  16
TORSDOF 8
