REMARK  Name = ZINC13978659
REMARK                            x       y       z     vdW  Elec       q    Type
REMARK                         _______ _______ _______ _____ _____    ______ ____
ROOT
ATOM      1  O   LIG    1        4.011   5.077  -0.010  0.00  0.00    -0.487 OA
ENDROOT
BRANCH   1  13
ATOM      2  C   LIG    1        4.942   2.410  -0.033  0.00  0.00    +0.048 C 
ATOM      3  C   LIG    1        3.476   2.760  -0.017  0.00  0.00    -0.005 A 
ATOM      4  C   LIG    1        2.531   1.761  -0.012  0.00  0.00    -0.033 A 
ATOM      5  C   LIG    1        2.961   0.317  -0.024  0.00  0.00    +0.045 C 
ATOM      6  C   LIG    1        1.164   2.087   0.002  0.00  0.00    +0.024 A 
ATOM      7  C   LIG    1        0.778   3.429   0.012  0.00  0.00    -0.032 A 
ATOM      8  C   LIG    1       -0.729   3.522   0.026  0.00  0.00    +0.047 C 
ATOM      9  C   LIG    1       -1.249   2.077   0.018  0.00  0.00    +0.068 C 
ATOM     10  C   LIG    1        1.727   4.416   0.008  0.00  0.00    +0.050 A 
ATOM     11  C   LIG    1       -0.014   1.209   0.009  0.00  0.00    +0.167 C 
ATOM     12  O   LIG    1        0.002  -0.004   0.002  0.00  0.00    -0.292 OA
ATOM     13  C   LIG    1        3.079   4.092  -0.006  0.00  0.00    +0.124 A 
BRANCH   9  14
ATOM     14  C   LIG    1       -2.076   1.808   1.277  0.00  0.00    -0.000 C 
ATOM     15  C   LIG    1       -2.600   0.357   1.264  0.00  0.00    +0.004 C 
ATOM     16  C   LIG    1       -4.018   0.459   1.879  0.00  0.00    +0.000 C 
ATOM     17  C   LIG    1       -4.547   1.794   1.299  0.00  0.00    +0.000 C 
ATOM     18  C   LIG    1       -3.314   2.722   1.299  0.00  0.00    +0.004 C 
ENDBRANCH   9  14
ENDBRANCH   1  13
BRANCH   1  19
ATOM     19  C   LIG    1        3.533   6.424   0.001  0.00  0.00    +0.264 C 
BRANCH  19  20
ATOM     20  C   LIG    1        4.703   7.373  -0.005  0.00  0.00    -0.010 A 
ATOM     21  C   LIG    1        5.247   7.807   1.191  0.00  0.00    +0.007 A 
ATOM     22  C   LIG    1        6.325   8.673   1.193  0.00  0.00    +0.001 A 
ATOM     23  C   LIG    1        6.857   9.120   0.000  0.00  0.00    +0.008 A 
ATOM     24  C   LIG    1        6.310   8.691  -1.208  0.00  0.00    -0.018 A 
ATOM     25  C   LIG    1        5.227   7.813  -1.204  0.00  0.00    +0.015 A 
BRANCH  24  26
ATOM     26  C   LIG    1        6.878   9.166  -2.492  0.00  0.00    -0.018 A 
ATOM     27  C   LIG    1        6.332   8.730  -3.700  0.00  0.00    +0.009 A 
ATOM     28  C   LIG    1        6.854   9.175  -4.893  0.00  0.00    +0.015 A 
ATOM     29  C   LIG    1        7.940  10.055  -4.894  0.00  0.00    +0.059 A 
ATOM     30  C   LIG    1        8.490  10.487  -3.684  0.00  0.00    +0.015 A 
ATOM     31  C   LIG    1        7.961  10.045  -2.493  0.00  0.00    +0.009 A 
BRANCH  29  32
ATOM     32  C   LIG    1        8.506  10.527  -6.173  0.00  0.00    +0.337 C 
ATOM     33  O   LIG    1        9.450  11.292  -6.174  0.00  0.00    -0.245 OA
BRANCH  32  34
ATOM     34  O   LIG    1        7.976  10.111  -7.339  0.00  0.00    -0.477 OA
ATOM     35  H   LIG    1        7.248   9.521  -7.339  0.00  0.00    +0.295 HD
ENDBRANCH  32  34
ENDBRANCH  29  32
ENDBRANCH  24  26
ENDBRANCH  19  20
ENDBRANCH   1  19
TORSDOF 7
