REMARK  Name = ZINC26028676
REMARK                            x       y       z     vdW  Elec       q    Type
REMARK                         _______ _______ _______ _____ _____    ______ ____
ROOT
ATOM      1  C   LIG    1       -4.280   4.978  -1.378  0.00  0.00    -0.013 C 
ATOM      2  C   LIG    1       -3.011   4.124  -1.392  0.00  0.00    -0.071 C 
ENDROOT
BRANCH   2   3
ATOM      3  N   LIG    1       -3.291   2.842  -2.052  0.00  0.00    +0.381 N 
ATOM      4  H   LIG    1       -4.319   2.527  -1.820  0.00  0.00    -0.086 HD
ATOM      5  H   LIG    1       -2.583   2.082  -1.690  0.00  0.00    -0.086 HD
BRANCH   3   6
ATOM      6  C   LIG    1       -3.152   2.960  -3.510  0.00  0.00    -0.079 C 
BRANCH   6   7
ATOM      7  C   LIG    1       -3.450   1.608  -4.161  0.00  0.00    -0.028 C 
ATOM      8  C   LIG    1       -2.312   0.922  -4.918  0.00  0.00    +0.002 C 
ATOM      9  C   LIG    1       -3.474   1.550  -5.690  0.00  0.00    +0.002 C 
ENDBRANCH   6   7
ENDBRANCH   3   6
ENDBRANCH   2   3
BRANCH   2  10
ATOM     10  C   LIG    1       -2.553   3.869   0.045  0.00  0.00    +0.019 C 
BRANCH  10  11
ATOM     11  C   LIG    1       -1.238   3.133   0.030  0.00  0.00    -0.049 A 
ATOM     12  C   LIG    1       -1.219   1.751   0.017  0.00  0.00    +0.003 A 
ATOM     13  C   LIG    1       -0.013   1.076   0.008  0.00  0.00    +0.000 A 
ATOM     14  C   LIG    1        1.175   1.783   0.000  0.00  0.00    +0.000 A 
ATOM     15  C   LIG    1        1.156   3.165   0.008  0.00  0.00    +0.000 A 
ATOM     16  C   LIG    1       -0.050   3.840   0.022  0.00  0.00    +0.003 A 
ENDBRANCH  10  11
ENDBRANCH   2  10
TORSDOF 5
