REMARK  Name = ZINC00057478
REMARK                            x       y       z     vdW  Elec       q    Type
REMARK                         _______ _______ _______ _____ _____    ______ ____
ROOT
ATOM      1  C   LIG    1       -1.293  -0.775   0.011  0.00  0.00    +0.213 C 
ENDROOT
BRANCH   1   5
ATOM      2  C   LIG    1        1.472   2.002   1.712  0.00  0.00    +0.000 A 
ATOM      3  C   LIG    1        1.876   1.162   0.691  0.00  0.00    +0.000 A 
ATOM      4  C   LIG    1        0.981   0.263   0.141  0.00  0.00    +0.007 A 
ATOM      5  C   LIG    1       -0.317   0.205   0.611  0.00  0.00    -0.001 A 
ATOM      6  C   LIG    1       -0.722   1.046   1.630  0.00  0.00    +0.007 A 
ATOM      7  C   LIG    1        0.173   1.944   2.181  0.00  0.00    +0.000 A 
ENDBRANCH   1   5
BRANCH   1   8
ATOM      8  C   LIG    1       -1.059  -2.142   0.602  0.00  0.00    -0.001 A 
ATOM      9  C   LIG    1        0.199  -2.711   0.551  0.00  0.00    +0.007 A 
ATOM     10  C   LIG    1        0.414  -3.963   1.097  0.00  0.00    +0.000 A 
ATOM     11  C   LIG    1       -0.631  -4.649   1.685  0.00  0.00    +0.000 A 
ATOM     12  C   LIG    1       -1.891  -4.082   1.731  0.00  0.00    +0.000 A 
ATOM     13  C   LIG    1       -2.105  -2.828   1.190  0.00  0.00    +0.007 A 
ENDBRANCH   1   8
BRANCH   1  14
ATOM     14  O   LIG    1       -2.628  -0.354   0.297  0.00  0.00    -0.370 OA
ATOM     15  H   LIG    1       -3.310  -0.940  -0.060  0.00  0.00    +0.212 HD
ENDBRANCH   1  14
BRANCH   1  16
ATOM     16  C   LIG    1       -1.093  -0.833  -1.482  0.00  0.00    +0.349 C 
ATOM     17  O   LIG    1       -0.385  -1.684  -1.964  0.00  0.00    -0.247 OA
BRANCH  16  18
ATOM     18  O   LIG    1       -1.702   0.062  -2.275  0.00  0.00    -0.460 OA
BRANCH  18  19
ATOM     19  C   LIG    1       -1.465  -0.053  -3.703  0.00  0.00    +0.163 C 
ATOM     20  C   LIG    1       -2.528  -0.960  -4.329  0.00  0.00    -0.033 C 
ATOM     21  N   LIG    1       -3.299  -0.222  -5.352  0.00  0.00    +0.382 N 
ATOM     22  H   LIG    1       -4.004  -0.850  -5.756  0.00  0.00    -0.082 HD
ATOM     23  C   LIG    1       -2.397   0.242  -6.428  0.00  0.00    -0.078 C 
ATOM     24  C   LIG    1       -1.329   1.182  -5.862  0.00  0.00    -0.012 C 
ATOM     25  C   LIG    1       -3.983   0.934  -4.734  0.00  0.00    -0.078 C 
ATOM     26  C   LIG    1       -2.961   1.894  -4.120  0.00  0.00    -0.012 C 
ATOM     27  C   LIG    1       -1.553   1.334  -4.352  0.00  0.00    +0.024 C 
ENDBRANCH  18  19
ENDBRANCH  16  18
ENDBRANCH   1  16
TORSDOF 6
