REMARK  Name = ZINC49538664
REMARK                            x       y       z     vdW  Elec       q    Type
REMARK                         _______ _______ _______ _____ _____    ______ ____
ROOT
ATOM      1  C   LIG    1        3.696  -0.685  -0.037  0.00  0.00    +0.014 A 
ATOM      2  C   LIG    1        4.553  -0.573  -1.136  0.00  0.00    +0.081 A 
ATOM      3  C   LIG    1        5.792  -1.255  -1.163  0.00  0.00    +0.045 A 
ATOM      4  C   LIG    1        6.194  -2.042  -0.129  0.00  0.00    +0.051 A 
ATOM      5  C   LIG    1        5.370  -2.195   1.009  0.00  0.00    +0.068 A 
ATOM      6  N   LIG    1        5.479  -2.870   2.138  0.00  0.00    -0.298 N 
ATOM      7  H   LIG    1        6.231  -3.430   2.388  0.00  0.00    +0.187 HD
ATOM      8  N   LIG    1        4.347  -2.636   2.926  0.00  0.00    -0.286 N 
ATOM      9  H   LIG    1        4.192  -3.018   3.804  0.00  0.00    +0.188 HD
ATOM     10  C   LIG    1        3.501  -1.815   2.281  0.00  0.00    +0.118 A 
ATOM     11  C   LIG    1        4.081  -1.488   1.059  0.00  0.00    +0.048 A 
ENDROOT
BRANCH   1  15
ATOM     12  C   LIG    1       -0.017   1.379   0.010  0.00  0.00    +0.000 A 
ATOM     13  C   LIG    1        1.168   2.094   0.002  0.00  0.00    +0.001 A 
ATOM     14  C   LIG    1        2.377   1.429  -0.013  0.00  0.00    +0.008 A 
ATOM     15  C   LIG    1        2.404   0.034  -0.021  0.00  0.00    -0.016 A 
ATOM     16  C   LIG    1        1.204  -0.680  -0.013  0.00  0.00    +0.008 A 
ATOM     17  C   LIG    1        0.002  -0.004   0.002  0.00  0.00    +0.001 A 
ENDBRANCH   1  15
BRANCH   3  18
ATOM     18  N   LIG    1        6.619  -1.118  -2.276  0.00  0.00    -0.357 N 
ATOM     19  H   LIG    1        7.471  -1.581  -2.307  0.00  0.00    +0.142 HD
ATOM     20  H   LIG    1        6.343  -0.560  -3.019  0.00  0.00    +0.142 HD
ENDBRANCH   3  18
BRANCH  10  21
ATOM     21  N   LIG    1        2.275  -1.375   2.748  0.00  0.00    -0.343 N 
ATOM     22  H   LIG    1        1.956  -1.661   3.619  0.00  0.00    +0.144 HD
ATOM     23  H   LIG    1        1.734  -0.780   2.205  0.00  0.00    +0.144 HD
ENDBRANCH  10  21
BRANCH   2  24
ATOM     24  C   LIG    1        4.172   0.244  -2.248  0.00  0.00    +0.102 C 
ATOM     25  N   LIG    1        3.870   0.892  -3.131  0.00  0.00    -0.191 NA
ENDBRANCH   2  24
TORSDOF 4
