REMARK  Name = ZINC22000022
REMARK                            x       y       z     vdW  Elec       q    Type
REMARK                         _______ _______ _______ _____ _____    ______ ____
ROOT
ATOM      1  C   LIG    1       -2.114   2.537   8.374  0.00  0.00    +0.121 A 
ATOM      2  C   LIG    1       -0.975   1.746   8.415  0.00  0.00    +0.046 A 
ATOM      3  C   LIG    1       -0.432   1.382   9.632  0.00  0.00    +0.007 A 
ATOM      4  C   LIG    1       -1.031   1.794  10.808  0.00  0.00    -0.046 A 
ATOM      5  C   LIG    1       -2.170   2.577  10.770  0.00  0.00    +0.007 A 
ATOM      6  C   LIG    1       -2.713   2.949   9.556  0.00  0.00    +0.046 A 
ENDROOT
BRANCH   1   7
ATOM      7  O   LIG    1       -2.647   2.902   7.178  0.00  0.00    -0.492 OA
BRANCH   7   8
ATOM      8  C   LIG    1       -1.978   2.441   6.002  0.00  0.00    +0.233 C 
BRANCH   8   9
ATOM      9  C   LIG    1       -2.717   2.949   4.763  0.00  0.00    +0.076 C 
BRANCH   9  13
ATOM     10  C   LIG    1       -0.718   1.572   1.248  0.00  0.00    -0.048 A 
ATOM     11  C   LIG    1       -0.360   2.779   1.819  0.00  0.00    +0.004 A 
ATOM     12  C   LIG    1       -1.010   3.227   2.953  0.00  0.00    +0.004 A 
ATOM     13  C   LIG    1       -2.012   2.463   3.523  0.00  0.00    -0.044 A 
ATOM     14  C   LIG    1       -2.366   1.254   2.955  0.00  0.00    +0.004 A 
ATOM     15  C   LIG    1       -1.719   0.808   1.818  0.00  0.00    +0.004 A 
BRANCH  10  17
ATOM     16  C   LIG    1       -0.753   1.593  -1.232  0.00  0.00    +0.009 C 
ATOM     17  C   LIG    1       -0.013   1.086   0.008  0.00  0.00    +0.032 C 
ENDBRANCH  10  17
ENDBRANCH   9  13
ENDBRANCH   8   9
ENDBRANCH   7   8
ENDBRANCH   1   7
BRANCH   4  18
ATOM     18  C   LIG    1       -0.441   1.389  12.135  0.00  0.00    +0.059 C 
BRANCH  18  19
ATOM     19  C   LIG    1       -1.058   0.063  12.584  0.00  0.00    +0.146 C 
ATOM     20  C   LIG    1       -0.404  -0.448  13.860  0.00  0.00    +0.234 C 
ATOM     21  N   LIG    1       -1.206  -0.554  14.906  0.00  0.00    -0.246 N 
ATOM     22  H   LIG    1       -0.812  -0.916  15.867  0.00  0.00    +0.158 HD
ATOM     23  C   LIG    1       -2.514  -0.237  14.869  0.00  0.00    +0.279 C 
ATOM     24  O   LIG    1       -3.326  -0.301  15.772  0.00  0.00    -0.263 OA
ATOM     25  O   LIG    1        0.772  -0.739  13.913  0.00  0.00    -0.274 OA
ATOM     26  S   LIG    1       -2.779   0.297  13.185  0.00  0.00    -0.054 S 
ENDBRANCH  18  19
ENDBRANCH   4  18
TORSDOF 7
