REMARK  Name = ZINC00006892
REMARK                            x       y       z     vdW  Elec       q    Type
REMARK                         _______ _______ _______ _____ _____    ______ ____
ROOT
ATOM      1  C   LIG    1       -0.017   1.369   0.010  0.00  0.00    +0.001 A 
ATOM      2  C   LIG    1        1.147   2.120   0.003  0.00  0.00    +0.002 A 
ATOM      3  C   LIG    1        2.403   1.539  -0.012  0.00  0.00    +0.026 A 
ATOM      4  C   LIG    1        2.455   0.146  -0.019  0.00  0.00    +0.047 A 
ATOM      5  C   LIG    1        1.260  -0.619  -0.013  0.00  0.00    +0.004 A 
ATOM      6  C   LIG    1        1.667  -2.006  -0.025  0.00  0.00    -0.004 A 
ATOM      7  C   LIG    1        3.031  -2.023  -0.033  0.00  0.00    +0.053 A 
ATOM      8  C   LIG    1        3.852  -3.253  -0.039  0.00  0.00    +0.012 A 
ATOM      9  C   LIG    1        5.184  -3.209   0.368  0.00  0.00    +0.011 A 
ATOM     10  C   LIG    1        5.941  -4.363   0.370  0.00  0.00    +0.001 A 
ATOM     11  C   LIG    1        5.382  -5.566  -0.029  0.00  0.00    +0.001 A 
ATOM     12  C   LIG    1        4.063  -5.623  -0.438  0.00  0.00    +0.015 A 
ATOM     13  C   LIG    1        3.291  -4.470  -0.451  0.00  0.00    +0.017 A 
ATOM     14  S   LIG    1        1.615  -4.535  -0.995  0.00  0.00    -0.120 S 
ATOM     15  C   LIG    1        0.792  -3.234  -0.031  0.00  0.00    +0.112 C 
ATOM     16  N   LIG    1        3.504  -0.728  -0.032  0.00  0.00    -0.354 N 
ATOM     17  H   LIG    1        4.441  -0.475  -0.039  0.00  0.00    +0.166 HD
ATOM     18  C   LIG    1        0.002  -0.004   0.002  0.00  0.00    +0.010 A 
ENDROOT
TORSDOF 0
