REMARK  Name = ZINC58661275
REMARK                            x       y       z     vdW  Elec       q    Type
REMARK                         _______ _______ _______ _____ _____    ______ ____
ROOT
ATOM      1  C   LIG    1       -4.204  -4.849  -4.508  0.00  0.00    +0.075 A 
ATOM      2  C   LIG    1       -5.527  -4.708  -4.051  0.00  0.00    +0.130 A 
ATOM      3  N   LIG    1       -6.074  -4.315  -2.876  0.00  0.00    -0.224 NA
ATOM      4  C   LIG    1       -7.381  -4.359  -2.965  0.00  0.00    +0.140 A 
ATOM      5  N   LIG    1       -7.744  -4.774  -4.220  0.00  0.00    -0.323 N 
ATOM      6  H   LIG    1       -8.649  -4.892  -4.547  0.00  0.00    +0.169 HD
ATOM      7  C   LIG    1       -6.583  -5.009  -4.927  0.00  0.00    +0.160 A 
ATOM      8  N   LIG    1       -6.334  -5.429  -6.159  0.00  0.00    -0.235 NA
ATOM      9  C   LIG    1       -5.102  -5.575  -6.607  0.00  0.00    +0.130 A 
ATOM     10  C   LIG    1       -4.006  -5.294  -5.810  0.00  0.00    +0.059 A 
ATOM     11 BR   LIG    1       -2.254  -5.514  -6.487  0.00  0.00    -0.047 Br
ENDROOT
BRANCH   1  16
ATOM     12  N   LIG    1       -1.692  -3.770  -1.412  0.00  0.00    +0.385 N 
ATOM     13  H   LIG    1       -0.792  -3.912  -1.846  0.00  0.00    -0.081 HD
ATOM     14  C   LIG    1       -2.446  -2.765  -2.173  0.00  0.00    -0.059 C 
ATOM     15  C   LIG    1       -2.547  -3.205  -3.637  0.00  0.00    +0.086 C 
ATOM     16  N   LIG    1       -3.126  -4.557  -3.679  0.00  0.00    -0.331 N 
ATOM     17  C   LIG    1       -2.531  -5.592  -2.818  0.00  0.00    +0.086 C 
ATOM     18  C   LIG    1       -2.430  -5.039  -1.393  0.00  0.00    -0.059 C 
BRANCH  12  19
ATOM     19  C   LIG    1       -1.500  -3.296  -0.035  0.00  0.00    -0.019 C 
BRANCH  19  23
ATOM     20  C   LIG    1       -0.063   1.591  -0.057  0.00  0.00    +0.089 C 
ATOM     21  C   LIG    1       -0.029   0.085  -0.054  0.00  0.00    +0.134 A 
ATOM     22  C   LIG    1       -1.100  -0.731  -0.044  0.00  0.00    +0.068 A 
ATOM     23  C   LIG    1       -0.638  -2.059  -0.045  0.00  0.00    +0.067 A 
ATOM     24  N   LIG    1        0.664  -2.035  -0.055  0.00  0.00    -0.085 NA
ATOM     25  O   LIG    1        1.074  -0.679  -0.066  0.00  0.00    -0.360 OA
ENDBRANCH  19  23
ENDBRANCH  12  19
ENDBRANCH   1  16
BRANCH   4  26
ATOM     26  C   LIG    1       -8.320  -4.002  -1.882  0.00  0.00    +0.017 A 
ATOM     27  C   LIG    1       -9.698  -4.094  -2.092  0.00  0.00    +0.013 A 
ATOM     28  C   LIG    1      -10.571  -3.761  -1.080  0.00  0.00    +0.024 A 
ATOM     29  C   LIG    1      -10.082  -3.333   0.150  0.00  0.00    +0.030 A 
ATOM     30  C   LIG    1       -8.710  -3.240   0.362  0.00  0.00    +0.024 A 
ATOM     31  C   LIG    1       -7.832  -3.578  -0.644  0.00  0.00    +0.013 A 
BRANCH  29  32
ATOM     32  N   LIG    1      -10.968  -2.996   1.172  0.00  0.00    -0.333 N 
ATOM     33  C   LIG    1      -10.478  -2.655   2.516  0.00  0.00    +0.086 C 
ATOM     34  C   LIG    1      -11.120  -1.332   2.946  0.00  0.00    -0.060 C 
ATOM     35  N   LIG    1      -12.581  -1.443   2.844  0.00  0.00    +0.380 N 
ATOM     36  H   LIG    1      -12.896  -2.231   3.389  0.00  0.00    -0.082 HD
ATOM     37  C   LIG    1      -13.200  -0.215   3.360  0.00  0.00    -0.096 C 
ATOM     38  C   LIG    1      -12.971  -1.633   1.441  0.00  0.00    -0.060 C 
ATOM     39  C   LIG    1      -12.419  -2.966   0.935  0.00  0.00    +0.086 C 
ENDBRANCH  29  32
ENDBRANCH   4  26
TORSDOF 5
