REMARK  Name = ZINC13980453
REMARK                            x       y       z     vdW  Elec       q    Type
REMARK                         _______ _______ _______ _____ _____    ______ ____
ROOT
ATOM      1  N   LIG    1       -1.203  -0.718   0.015  0.00  0.00    -0.280 N 
ATOM      2  C   LIG    1       -1.838  -0.972  -1.162  0.00  0.00    +0.028 A 
ATOM      3  C   LIG    1       -1.238  -0.477  -2.453  0.00  0.00    +0.064 C 
ATOM      4  C   LIG    1       -2.996  -1.666  -1.189  0.00  0.00    +0.068 A 
ATOM      5  C   LIG    1       -3.564  -2.127   0.015  0.00  0.00    +0.142 A 
ATOM      6  C   LIG    1       -2.916  -1.861   1.208  0.00  0.00    +0.124 A 
ATOM      7 BR   LIG    1       -3.643  -2.459   2.848  0.00  0.00    -0.041 Br
ATOM      8  C   LIG    1       -1.715  -1.142   1.185  0.00  0.00    +0.274 A 
ATOM      9  O   LIG    1       -1.131  -0.898   2.230  0.00  0.00    -0.266 OA
ENDROOT
BRANCH   1  16
ATOM     10  C   LIG    1       -1.334   2.114   0.218  0.00  0.00    +0.046 C 
ATOM     11  C   LIG    1       -0.019   1.386   0.109  0.00  0.00    -0.026 A 
ATOM     12  C   LIG    1        1.165   2.100   0.104  0.00  0.00    +0.006 A 
ATOM     13  C   LIG    1        2.373   1.441  -0.002  0.00  0.00    +0.013 A 
ATOM     14  C   LIG    1        2.402   0.048  -0.103  0.00  0.00    +0.039 A 
ATOM     15  C   LIG    1        1.208  -0.671  -0.098  0.00  0.00    +0.039 A 
ATOM     16  C   LIG    1       -0.001   0.000   0.008  0.00  0.00    +0.053 A 
BRANCH  14  17
ATOM     17  C   LIG    1        3.695  -0.660  -0.216  0.00  0.00    +0.244 C 
ATOM     18  N   LIG    1        4.848   0.037  -0.221  0.00  0.00    -0.314 N 
ATOM     19  H   LIG    1        4.830   1.004  -0.151  0.00  0.00    +0.149 HD
ATOM     20  C   LIG    1        6.128  -0.665  -0.333  0.00  0.00    +0.128 C 
ATOM     21  O   LIG    1        3.717  -1.873  -0.304  0.00  0.00    -0.270 OA
ENDBRANCH  14  17
ENDBRANCH   1  16
BRANCH   5  22
ATOM     22  O   LIG    1       -4.729  -2.819   0.005  0.00  0.00    -0.486 OA
BRANCH  22  23
ATOM     23  C   LIG    1       -5.898  -2.118  -0.423  0.00  0.00    +0.267 C 
BRANCH  23  24
ATOM     24  C   LIG    1       -7.106  -3.002  -0.251  0.00  0.00    +0.025 A 
ATOM     25  C   LIG    1       -6.960  -4.279   0.257  0.00  0.00    +0.012 A 
ATOM     26  C   LIG    1       -8.067  -5.091   0.416  0.00  0.00    +0.039 A 
ATOM     27  C   LIG    1       -9.324  -4.625   0.067  0.00  0.00    +0.126 A 
ATOM     28  F   LIG    1      -10.406  -5.419   0.222  0.00  0.00    -0.205 F 
ATOM     29  C   LIG    1       -9.471  -3.347  -0.442  0.00  0.00    +0.077 A 
ATOM     30  C   LIG    1       -8.362  -2.532  -0.596  0.00  0.00    +0.132 A 
ATOM     31  F   LIG    1       -8.504  -1.282  -1.087  0.00  0.00    -0.205 F 
ENDBRANCH  23  24
ENDBRANCH  22  23
ENDBRANCH   5  22
TORSDOF 5
