REMARK  Name = ZINC27522407
REMARK                            x       y       z     vdW  Elec       q    Type
REMARK                         _______ _______ _______ _____ _____    ______ ____
ROOT
ATOM      1  C   LIG    1        1.423   5.556   0.537  0.00  0.00    +0.129 C 
ATOM      2  N   LIG    1        0.031   5.326   0.129  0.00  0.00    -0.326 N 
ATOM      3  C   LIG    1       -0.318   3.989   0.280  0.00  0.00    +0.039 A 
ATOM      4  C   LIG    1        0.652   3.002   0.366  0.00  0.00    +0.024 A 
ATOM      5  C   LIG    1        0.277   1.685   0.545  0.00  0.00    +0.002 A 
ATOM      6  C   LIG    1       -1.061   1.342   0.646  0.00  0.00    +0.001 A 
ATOM      7  C   LIG    1       -2.039   2.312   0.555  0.00  0.00    +0.012 A 
ATOM      8  C   LIG    1       -1.674   3.643   0.368  0.00  0.00    +0.020 A 
ATOM      9  C   LIG    1       -2.696   4.702   0.240  0.00  0.00    +0.054 C 
ATOM     10  N   LIG    1       -2.609   5.542  -0.758  0.00  0.00    -0.382 N 
ATOM     11  H   LIG    1       -3.321   6.377  -0.839  0.00  0.00    +0.160 HD
ATOM     12  C   LIG    1       -1.557   5.356  -1.759  0.00  0.00    +0.136 C 
ATOM     13  C   LIG    1       -0.203   5.810  -1.231  0.00  0.00    +0.110 C 
ENDROOT
BRANCH   9  14
ATOM     14  C   LIG    1       -3.798   4.810   1.223  0.00  0.00    +0.034 A 
ATOM     15  C   LIG    1       -3.881   3.908   2.285  0.00  0.00    +0.013 A 
ATOM     16  C   LIG    1       -4.909   4.014   3.198  0.00  0.00    +0.001 A 
ATOM     17  C   LIG    1       -5.859   5.013   3.064  0.00  0.00    +0.003 A 
ATOM     18  C   LIG    1       -5.784   5.910   2.016  0.00  0.00    +0.039 A 
ATOM     19  C   LIG    1       -4.755   5.819   1.096  0.00  0.00    +0.132 A 
ATOM     20  F   LIG    1       -4.680   6.700   0.074  0.00  0.00    -0.205 F 
ENDBRANCH   9  14
BRANCH  13  21
ATOM     21  C   LIG    1        0.897   5.273  -2.149  0.00  0.00    +0.141 C 
BRANCH  21  22
ATOM     22  N   LIG    1        0.740   5.848  -3.488  0.00  0.00    -0.232 N 
ATOM     23  C   LIG    1        0.100   5.244  -4.505  0.00  0.00    +0.254 C 
ATOM     24  C   LIG    1        0.149   6.132  -5.686  0.00  0.00    +0.049 A 
ATOM     25  C   LIG    1       -0.329   6.044  -6.983  0.00  0.00    +0.014 A 
ATOM     26  C   LIG    1       -0.100   7.082  -7.872  0.00  0.00    +0.001 A 
ATOM     27  C   LIG    1        0.601   8.205  -7.472  0.00  0.00    +0.001 A 
ATOM     28  C   LIG    1        1.085   8.306  -6.178  0.00  0.00    +0.014 A 
ATOM     29  C   LIG    1        0.864   7.276  -5.278  0.00  0.00    +0.049 A 
ATOM     30  O   LIG    1       -0.432   4.152  -4.460  0.00  0.00    -0.270 OA
ATOM     31  C   LIG    1        1.221   7.046  -3.862  0.00  0.00    +0.254 C 
ATOM     32  O   LIG    1        1.845   7.812  -3.156  0.00  0.00    -0.270 OA
ENDBRANCH  21  22
ENDBRANCH  13  21
TORSDOF 3
