REMARK  Name = ZINC40422630
REMARK                            x       y       z     vdW  Elec       q    Type
REMARK                         _______ _______ _______ _____ _____    ______ ____
ROOT
ATOM      1  C   LIG    1        1.248  -2.358  -2.578  0.00  0.00    +0.061 C 
ATOM      2  C   LIG    1        1.603  -3.654  -2.567  0.00  0.00    +0.013 C 
ATOM      3  C   LIG    1        1.116  -4.543  -1.452  0.00  0.00    +0.061 C 
ATOM      4  N   LIG    1        2.396  -4.181  -3.545  0.00  0.00    -0.331 N 
ATOM      5  H   LIG    1        2.850  -5.025  -3.397  0.00  0.00    +0.147 HD
ATOM      6  C   LIG    1        2.555  -3.509  -4.755  0.00  0.00    +0.144 C 
ATOM      7  C   LIG    1        2.223  -2.166  -4.845  0.00  0.00    +0.053 C 
ATOM      8  C   LIG    1        2.382  -1.517  -6.063  0.00  0.00    +0.062 C 
ATOM      9  C   LIG    1        2.877  -2.242  -7.156  0.00  0.00    +0.023 C 
ATOM     10  C   LIG    1        3.192  -3.567  -6.991  0.00  0.00    +0.060 C 
ATOM     11  C   LIG    1        3.747  -4.409  -8.112  0.00  0.00    +0.019 C 
ATOM     12  C   LIG    1        3.478  -3.750  -9.463  0.00  0.00    +0.002 C 
ATOM     13  C   LIG    1        3.964  -2.297  -9.399  0.00  0.00    +0.000 C 
ATOM     14  C   LIG    1        3.034  -1.521  -8.467  0.00  0.00    +0.006 C 
ATOM     15  N   LIG    1        3.021  -4.154  -5.812  0.00  0.00    -0.295 NA
ATOM     16  H   LIG    1        3.247  -5.093  -5.722  0.00  0.00    +0.124 HD
ATOM     17  C   LIG    1        1.700  -1.416  -3.655  0.00  0.00    +0.065 C 
ENDROOT
BRANCH  17  18
ATOM     18  C   LIG    1        2.794  -0.533  -3.113  0.00  0.00    -0.039 A 
ATOM     19  C   LIG    1        3.968  -1.098  -2.647  0.00  0.00    +0.005 A 
ATOM     20  C   LIG    1        4.973  -0.295  -2.149  0.00  0.00    +0.009 A 
ATOM     21  C   LIG    1        4.805   1.088  -2.117  0.00  0.00    -0.018 A 
ATOM     22  C   LIG    1        3.621   1.652  -2.588  0.00  0.00    +0.009 A 
ATOM     23  C   LIG    1        2.624   0.839  -3.088  0.00  0.00    +0.005 A 
BRANCH  21  24
ATOM     24  C   LIG    1        5.882   1.957  -1.583  0.00  0.00    -0.018 A 
ATOM     25  C   LIG    1        7.069   1.394  -1.117  0.00  0.00    +0.008 A 
ATOM     26  C   LIG    1        8.068   2.207  -0.621  0.00  0.00    +0.001 A 
ATOM     27  C   LIG    1        7.893   3.579  -0.586  0.00  0.00    +0.000 A 
ATOM     28  C   LIG    1        6.717   4.143  -1.047  0.00  0.00    +0.001 A 
ATOM     29  C   LIG    1        5.714   3.340  -1.550  0.00  0.00    +0.008 A 
ENDBRANCH  21  24
ENDBRANCH  17  18
BRANCH   8  30
ATOM     30  N   LIG    1        2.055  -0.170  -6.196  0.00  0.00    -0.327 NA
ATOM     31  H   LIG    1        2.170   0.274  -7.051  0.00  0.00    +0.118 HD
ATOM     32  H   LIG    1        1.713   0.323  -5.434  0.00  0.00    +0.118 HD
ENDBRANCH   8  30
BRANCH   1  33
ATOM     33  C   LIG    1        0.417  -1.869  -1.546  0.00  0.00    +0.337 C 
ATOM     34  O   LIG    1       -0.778  -1.737  -1.737  0.00  0.00    -0.245 OA
BRANCH  33  35
ATOM     35  O   LIG    1        0.949  -1.547  -0.348  0.00  0.00    -0.462 OA
BRANCH  35  37
ATOM     36  C   LIG    1        0.829  -0.748   1.930  0.00  0.00    +0.048 C 
ATOM     37  C   LIG    1        0.050  -1.057   0.650  0.00  0.00    +0.229 C 
ENDBRANCH  35  37
ENDBRANCH  33  35
ENDBRANCH   1  33
TORSDOF 6
