REMARK  Name = ZINC19815469
REMARK                            x       y       z     vdW  Elec       q    Type
REMARK                         _______ _______ _______ _____ _____    ______ ____
ROOT
ATOM      1  C   LIG    1       -4.934  -3.974  -0.916  0.00  0.00    +0.186 C 
ATOM      2  C   LIG    1       -5.741  -4.106  -2.027  0.00  0.00    +0.110 C 
ATOM      3  N   LIG    1       -7.040  -4.304  -1.901  0.00  0.00    -0.314 NA
ATOM      4  H   LIG    1       -7.582  -4.393  -2.700  0.00  0.00    +0.122 HD
ATOM      5  C   LIG    1       -7.622  -4.385  -0.718  0.00  0.00    +0.082 C 
ATOM      6  C   LIG    1       -6.886  -4.263   0.441  0.00  0.00    +0.036 C 
ATOM      7  C   LIG    1       -5.509  -4.058   0.352  0.00  0.00    +0.082 C 
ENDROOT
BRANCH   1   8
ATOM      8  S   LIG    1       -3.202  -3.711  -1.096  0.00  0.00    +0.079 S 
ATOM      9  O   LIG    1       -2.558  -4.647  -0.244  0.00  0.00    -0.151 OA
ATOM     10  O   LIG    1       -2.943  -3.648  -2.492  0.00  0.00    -0.151 OA
BRANCH   8  12
ATOM     11  C   LIG    1       -1.648  -1.758  -0.494  0.00  0.00    +0.298 C 
ATOM     12  N   LIG    1       -2.869  -2.208  -0.485  0.00  0.00    -0.080 NA
BRANCH  11  13
ATOM     13  N   LIG    1       -1.372  -0.511   0.012  0.00  0.00    -0.296 N 
ATOM     14  H   LIG    1       -2.087   0.033   0.377  0.00  0.00    +0.151 HD
BRANCH  13  16
ATOM     15  C   LIG    1       -0.019   1.526   0.010  0.00  0.00    +0.027 C 
ATOM     16  C   LIG    1        0.002  -0.004   0.002  0.00  0.00    +0.068 C 
ATOM     17  C   LIG    1        0.742  -0.511   1.242  0.00  0.00    +0.027 C 
ENDBRANCH  13  16
ENDBRANCH  11  13
BRANCH  11  18
ATOM     18  O   LIG    1       -0.652  -2.516  -1.002  0.00  0.00    -0.481 OA
ATOM     19  H   LIG    1        0.227  -2.191  -1.009  0.00  0.00    +0.295 HD
ENDBRANCH  11  18
ENDBRANCH   8  12
ENDBRANCH   1   8
BRANCH   7  20
ATOM     20  N   LIG    1       -4.729  -3.936   1.498  0.00  0.00    -0.308 NA
ATOM     21  H   LIG    1       -3.773  -3.791   1.422  0.00  0.00    +0.123 HD
BRANCH  20  22
ATOM     22  C   LIG    1       -5.353  -4.027   2.821  0.00  0.00    +0.057 C 
ATOM     23  C   LIG    1       -5.845  -2.636   3.282  0.00  0.00    +0.022 C 
ATOM     24  C   LIG    1       -5.042  -2.347   4.587  0.00  0.00    -0.009 C 
ATOM     25  C   LIG    1       -5.644  -3.325   5.641  0.00  0.00    +0.004 C 
ATOM     26  C   LIG    1       -5.167  -4.725   5.191  0.00  0.00    +0.005 C 
ATOM     27  C   LIG    1       -3.679  -3.051   4.252  0.00  0.00    +0.008 C 
ATOM     28  C   LIG    1       -4.299  -4.450   3.890  0.00  0.00    +0.006 C 
ENDBRANCH  20  22
ENDBRANCH   7  20
TORSDOF 7
