REMARK  Name = ZINC29047753
REMARK                            x       y       z     vdW  Elec       q    Type
REMARK                         _______ _______ _______ _____ _____    ______ ____
ROOT
ATOM      1  C   LIG    1       -4.758   0.155   1.938  0.00  0.00    +0.032 A 
ATOM      2  C   LIG    1       -5.804  -0.606   2.297  0.00  0.00    +0.085 A 
ATOM      3  N   LIG    1       -6.948  -0.131   1.708  0.00  0.00    -0.346 N 
ATOM      4  C   LIG    1       -6.660   0.966   0.943  0.00  0.00    +0.143 A 
ATOM      5  N   LIG    1       -7.384   1.784   0.181  0.00  0.00    -0.218 NA
ATOM      6  C   LIG    1       -6.816   2.785  -0.457  0.00  0.00    +0.225 A 
ATOM      7  N   LIG    1       -5.523   3.040  -0.379  0.00  0.00    -0.220 NA
ATOM      8  C   LIG    1       -4.716   2.276   0.352  0.00  0.00    +0.134 A 
ATOM      9  H   LIG    1       -7.910  -0.633   1.890  0.00  0.00    +0.167 HD
ATOM     10  C   LIG    1       -5.276   1.195   1.051  0.00  0.00    +0.059 A 
ENDROOT
BRANCH   8  11
ATOM     11  N   LIG    1       -3.361   2.543   0.427  0.00  0.00    -0.308 N 
ATOM     12  C   LIG    1       -3.013   3.724  -0.375  0.00  0.00    +0.113 C 
ATOM     13  C   LIG    1       -1.617   4.225   0.031  0.00  0.00    +0.074 C 
ATOM     14  C   LIG    1       -0.682   3.041   0.022  0.00  0.00    +0.042 A 
ATOM     15  C   LIG    1       -1.115   1.759   0.016  0.00  0.00    +0.079 A 
ATOM     16  N   LIG    1       -0.011   0.966   0.007  0.00  0.00    -0.239 NA
ATOM     17  C   LIG    1        1.066   1.786   0.002  0.00  0.00    +0.197 A 
ATOM     18  N   LIG    1        0.651   3.027   0.011  0.00  0.00    -0.348 N 
ATOM     19  H   LIG    1        1.211   3.973   0.010  0.00  0.00    +0.166 HD
ATOM     20  C   LIG    1       -2.569   1.367   0.025  0.00  0.00    +0.163 C 
ENDBRANCH   8  11
TORSDOF 1
