REMARK  Name = ZINC16052804
REMARK                            x       y       z     vdW  Elec       q    Type
REMARK                         _______ _______ _______ _____ _____    ______ ____
ROOT
ATOM      1  C   LIG    1        0.142  -2.640   2.520  0.00  0.00    +0.093 A 
ATOM      2  C   LIG    1        0.749  -2.131   3.662  0.00  0.00    +0.047 A 
ATOM      3  C   LIG    1        0.824  -3.180   4.597  0.00  0.00    +0.144 A 
ATOM      4  N   LIG    1        0.301  -4.251   4.062  0.00  0.00    -0.181 NA
ATOM      5  N   LIG    1       -0.140  -3.949   2.769  0.00  0.00    -0.275 N 
ATOM      6  H   LIG    1       -0.570  -4.565   2.156  0.00  0.00    +0.189 HD
ENDROOT
BRANCH   2   7
ATOM      7  C   LIG    1        1.228  -0.744   3.858  0.00  0.00    +0.075 A 
ATOM      8  C   LIG    1        0.904  -0.066   5.046  0.00  0.00    +0.030 A 
ATOM      9  C   LIG    1        1.338   1.210   5.239  0.00  0.00    +0.032 A 
ATOM     10  C   LIG    1        2.110   1.817   4.225  0.00  0.00    +0.089 A 
ATOM     11  C   LIG    1        2.401   1.078   3.052  0.00  0.00    +0.090 A 
ATOM     12  C   LIG    1        3.172   1.688   2.042  0.00  0.00    +0.031 A 
ATOM     13  C   LIG    1        3.604   2.967   2.242  0.00  0.00    +0.022 A 
ATOM     14  C   LIG    1        3.281   3.635   3.421  0.00  0.00    +0.111 A 
ATOM     15  N   LIG    1        2.563   3.065   4.360  0.00  0.00    -0.253 NA
ATOM     16  N   LIG    1        1.954  -0.172   2.916  0.00  0.00    -0.245 NA
ENDBRANCH   2   7
BRANCH   1  22
ATOM     17  C   LIG    1       -0.757   1.605   0.325  0.00  0.00    +0.065 C 
ATOM     18  C   LIG    1       -0.576   0.113   0.227  0.00  0.00    +0.039 A 
ATOM     19  C   LIG    1       -0.685  -0.508  -1.004  0.00  0.00    +0.023 A 
ATOM     20  C   LIG    1       -0.517  -1.883  -1.092  0.00  0.00    +0.004 A 
ATOM     21  C   LIG    1       -0.244  -2.591   0.066  0.00  0.00    +0.030 A 
ATOM     22  C   LIG    1       -0.148  -1.900   1.275  0.00  0.00    +0.089 A 
ATOM     23  N   LIG    1       -0.311  -0.582   1.314  0.00  0.00    -0.250 NA
ENDBRANCH   1  22
TORSDOF 2
