REMARK  Name = ZINC00043990
REMARK                            x       y       z     vdW  Elec       q    Type
REMARK                         _______ _______ _______ _____ _____    ______ ____
ROOT
ATOM      1  C   LIG    1        4.885   1.638  -3.024  0.00  0.00    +0.061 C 
ATOM      2  C   LIG    1        4.273   1.604  -1.647  0.00  0.00    +0.021 C 
ATOM      3  C   LIG    1        3.045   1.068  -1.479  0.00  0.00    +0.078 C 
ATOM      4  C   LIG    1        2.468   1.055  -0.078  0.00  0.00    +0.143 C 
ATOM      5  N   LIG    1        3.299   1.632   0.992  0.00  0.00    -0.288 N 
ATOM      6  H   LIG    1        2.983   1.653   1.909  0.00  0.00    +0.151 HD
ATOM      7  C   LIG    1        4.508   2.131   0.667  0.00  0.00    +0.304 C 
ATOM      8  O   LIG    1        5.201   2.609   1.543  0.00  0.00    -0.252 OA
ATOM      9  N   LIG    1        4.970   2.117  -0.590  0.00  0.00    -0.273 N 
ATOM     10  H   LIG    1        5.848   2.491  -0.759  0.00  0.00    +0.156 HD
ENDROOT
BRANCH   4  11
ATOM     11  C   LIG    1        1.161   1.805  -0.107  0.00  0.00    -0.022 A 
ATOM     12  C   LIG    1       -0.033   1.111  -0.162  0.00  0.00    +0.007 A 
ATOM     13  C   LIG    1       -1.232   1.798  -0.194  0.00  0.00    +0.020 A 
ATOM     14  C   LIG    1       -1.236   3.182  -0.160  0.00  0.00    +0.041 A 
ATOM     15 CL   LIG    1       -2.742   4.046  -0.193  0.00  0.00    -0.084 Cl
ATOM     16  C   LIG    1       -0.041   3.876  -0.106  0.00  0.00    +0.020 A 
ATOM     17  C   LIG    1        1.157   3.187  -0.079  0.00  0.00    +0.007 A 
ENDBRANCH   4  11
BRANCH   3  18
ATOM     18  C   LIG    1        2.323   0.536  -2.573  0.00  0.00    +0.339 C 
ATOM     19  O   LIG    1        2.758   0.652  -3.703  0.00  0.00    -0.245 OA
BRANCH  18  20
ATOM     20  O   LIG    1        1.152  -0.101  -2.363  0.00  0.00    -0.458 OA
BRANCH  20  21
ATOM     21  C   LIG    1        0.477  -0.613  -3.513  0.00  0.00    +0.177 C 
ATOM     22  C   LIG    1       -0.520   0.435  -4.051  0.00  0.00    +0.044 C 
ATOM     23  C   LIG    1       -1.734  -0.404  -4.524  0.00  0.00    +0.004 C 
ATOM     24  C   LIG    1       -1.823  -1.515  -3.448  0.00  0.00    +0.004 C 
ATOM     25  C   LIG    1       -0.351  -1.852  -3.130  0.00  0.00    +0.044 C 
ENDBRANCH  20  21
ENDBRANCH  18  20
ENDBRANCH   3  18
TORSDOF 4
