REMARK  Name = ZINC00045266
REMARK                            x       y       z     vdW  Elec       q    Type
REMARK                         _______ _______ _______ _____ _____    ______ ____
ROOT
ATOM      1  C   LIG    1       -1.325  -0.722   0.040  0.00  0.00    +0.044 C 
ATOM      2  C   LIG    1       -0.033   0.055   0.029  0.00  0.00    -0.037 A 
ATOM      3  C   LIG    1        1.175  -0.601   0.052  0.00  0.00    +0.027 A 
ATOM      4  C   LIG    1        2.362   0.116   0.043  0.00  0.00    +0.040 A 
ATOM      5  C   LIG    1        3.679  -0.616   0.069  0.00  0.00    +0.065 C 
ATOM      6  N   LIG    1        2.347   1.434   0.011  0.00  0.00    -0.245 NA
ATOM      7  C   LIG    1        1.216   2.107  -0.013  0.00  0.00    +0.111 A 
ATOM      8  S   LIG    1        0.822   3.838  -0.057  0.00  0.00    -0.062 S 
ATOM      9  C   LIG    1       -0.956   3.726  -0.065  0.00  0.00    +0.097 A 
ATOM     10  C   LIG    1       -1.190   2.369  -0.040  0.00  0.00    +0.054 A 
ATOM     11  C   LIG    1       -0.046   1.471  -0.005  0.00  0.00    +0.032 A 
ENDROOT
BRANCH   9  12
ATOM     12  C   LIG    1       -1.903   4.780  -0.096  0.00  0.00    +0.250 C 
ATOM     13  N   LIG    1       -1.484   6.061  -0.124  0.00  0.00    -0.325 N 
ATOM     14  H   LIG    1       -2.131   6.783  -0.145  0.00  0.00    +0.145 HD
ATOM     15  H   LIG    1       -0.535   6.261  -0.123  0.00  0.00    +0.145 HD
ATOM     16  O   LIG    1       -3.094   4.529  -0.098  0.00  0.00    -0.270 OA
ENDBRANCH   9  12
BRANCH  10  17
ATOM     17  N   LIG    1       -2.486   1.871  -0.043  0.00  0.00    -0.356 N 
ATOM     18  H   LIG    1       -2.662   0.980  -0.385  0.00  0.00    +0.142 HD
ATOM     19  H   LIG    1       -3.215   2.413   0.297  0.00  0.00    +0.142 HD
ENDBRANCH  10  17
TORSDOF 2
