REMARK  Name = ZINC45254830
REMARK                            x       y       z     vdW  Elec       q    Type
REMARK                         _______ _______ _______ _____ _____    ______ ____
ROOT
ATOM      1  N   LIG    1       -0.460   1.635   1.493  0.00  0.00    -0.309 N 
ATOM      2  C   LIG    1       -0.329   2.942   0.836  0.00  0.00    +0.141 C 
ATOM      3  C   LIG    1        0.972   3.602   1.312  0.00  0.00    +0.206 C 
ATOM      4  N   LIG    1        1.020   3.539   2.779  0.00  0.00    -0.218 N 
ATOM      5  C   LIG    1        0.889   2.231   3.437  0.00  0.00    +0.153 C 
ATOM      6  C   LIG    1        0.847   2.422   4.955  0.00  0.00    +0.047 C 
ATOM      7  C   LIG    1       -0.417   1.572   2.961  0.00  0.00    +0.144 C 
ENDROOT
BRANCH   1  16
ATOM      8  C   LIG    1       -3.657   1.871   1.185  0.00  0.00    +0.046 C 
ATOM      9  C   LIG    1       -3.255   0.617   0.452  0.00  0.00    -0.021 A 
ATOM     10  C   LIG    1       -4.072  -0.225  -0.203  0.00  0.00    +0.088 A 
ATOM     11  N   LIG    1       -3.343  -1.253  -0.744  0.00  0.00    -0.345 N 
ATOM     12  C   LIG    1       -2.018  -1.095  -0.446  0.00  0.00    +0.143 A 
ATOM     13  N   LIG    1       -0.914  -1.788  -0.719  0.00  0.00    -0.218 NA
ATOM     14  C   LIG    1        0.262  -1.373  -0.298  0.00  0.00    +0.225 A 
ATOM     15  N   LIG    1        0.416  -0.273   0.417  0.00  0.00    -0.220 NA
ATOM     16  C   LIG    1       -0.627   0.484   0.745  0.00  0.00    +0.134 A 
ATOM     17  H   LIG    1       -3.713  -1.984  -1.262  0.00  0.00    +0.167 HD
ATOM     18  C   LIG    1       -1.900   0.086   0.311  0.00  0.00    +0.061 A 
ENDBRANCH   1  16
BRANCH   4  19
ATOM     19  C   LIG    1        1.186   4.681   3.522  0.00  0.00    +0.387 C 
ATOM     20  N   LIG    1        2.388   5.170   3.714  0.00  0.00    -0.076 NA
BRANCH  20  21
ATOM     21  C   LIG    1        3.466   4.604   3.087  0.00  0.00    +0.143 A 
ATOM     22  C   LIG    1        3.776   3.260   3.305  0.00  0.00    +0.046 A 
ATOM     23  C   LIG    1        4.864   2.695   2.671  0.00  0.00    +0.005 A 
ATOM     24  C   LIG    1        5.646   3.456   1.821  0.00  0.00    +0.015 A 
ATOM     25  C   LIG    1        5.345   4.789   1.601  0.00  0.00    +0.021 A 
ATOM     26 BR   LIG    1        6.421   5.821   0.439  0.00  0.00    -0.050 Br
ATOM     27  C   LIG    1        4.256   5.365   2.225  0.00  0.00    +0.061 A 
ENDBRANCH  20  21
BRANCH  19  28
ATOM     28  N   LIG    1        0.090   5.313   4.067  0.00  0.00    -0.140 N 
ATOM     29  H   LIG    1       -0.790   4.913   3.987  0.00  0.00    +0.264 HD
BRANCH  28  30
ATOM     30  C   LIG    1        0.241   6.494   4.714  0.00  0.00    +0.245 C 
ATOM     31  N   LIG    1        0.368   7.484   5.256  0.00  0.00    -0.156 NA
ENDBRANCH  28  30
ENDBRANCH  19  28
ENDBRANCH   4  19
TORSDOF 5
