REMARK  Name = ZINC26817456
REMARK                            x       y       z     vdW  Elec       q    Type
REMARK                         _______ _______ _______ _____ _____    ______ ____
ROOT
ATOM      1  C   LIG    1        5.869  -3.635  -0.081  0.00  0.00    +0.139 C 
ENDROOT
BRANCH   1   4
ATOM      2  C   LIG    1        3.696  -0.685  -0.037  0.00  0.00    +0.138 A 
ATOM      3  N   LIG    1        3.856  -2.040  -0.051  0.00  0.00    -0.341 N 
ATOM      4  C   LIG    1        5.203  -2.284  -0.064  0.00  0.00    +0.050 A 
ATOM      5  C   LIG    1        5.821  -1.085  -0.057  0.00  0.00    +0.135 A 
ATOM      6  H   LIG    1        3.150  -2.705  -0.053  0.00  0.00    +0.167 HD
ATOM      7  N   LIG    1        4.886  -0.128  -0.046  0.00  0.00    -0.236 NA
BRANCH   2  11
ATOM      8  C   LIG    1       -0.017   1.379   0.010  0.00  0.00    +0.000 A 
ATOM      9  C   LIG    1        1.168   2.093   0.002  0.00  0.00    +0.001 A 
ATOM     10  C   LIG    1        2.377   1.429  -0.013  0.00  0.00    +0.011 A 
ATOM     11  C   LIG    1        2.403   0.034  -0.021  0.00  0.00    +0.017 A 
ATOM     12  C   LIG    1        1.204  -0.680  -0.013  0.00  0.00    +0.011 A 
ATOM     13  C   LIG    1        0.002  -0.004   0.002  0.00  0.00    +0.001 A 
ENDBRANCH   2  11
ENDBRANCH   1   4
BRANCH   1  14
ATOM     14  N   LIG    1        5.967  -4.115  -1.466  0.00  0.00    -0.294 NA
ATOM     15  C   LIG    1        4.635  -4.367  -2.031  0.00  0.00    +0.104 C 
ATOM     16  C   LIG    1        4.769  -4.689  -3.523  0.00  0.00    +0.123 C 
ATOM     17  N   LIG    1        5.729  -5.793  -3.678  0.00  0.00    -0.297 N 
ATOM     18  C   LIG    1        7.040  -5.672  -3.022  0.00  0.00    +0.123 C 
ATOM     19  C   LIG    1        6.816  -5.311  -1.550  0.00  0.00    +0.104 C 
BRANCH  17  20
ATOM     20  C   LIG    1        5.407  -6.915  -4.422  0.00  0.00    +0.218 A 
ATOM     21  N   LIG    1        4.219  -6.987  -5.003  0.00  0.00    -0.223 NA
ATOM     22  C   LIG    1        3.880  -8.045  -5.721  0.00  0.00    +0.116 A 
ATOM     23  C   LIG    1        4.785  -9.085  -5.861  0.00  0.00    +0.039 A 
ATOM     24  C   LIG    1        6.019  -8.978  -5.239  0.00  0.00    +0.116 A 
ATOM     25  N   LIG    1        6.297  -7.890  -4.540  0.00  0.00    -0.223 NA
ENDBRANCH  17  20
ENDBRANCH   1  14
TORSDOF 4
