REMARK  Name = ZINC71294766
REMARK                            x       y       z     vdW  Elec       q    Type
REMARK                         _______ _______ _______ _____ _____    ______ ____
ROOT
ATOM      1  C   LIG    1        3.625   0.673   0.090  0.00  0.00    +0.251 C 
ATOM      2  N   LIG    1        3.958  -0.013  -0.990  0.00  0.00    -0.291 N 
ATOM      3  H   LIG    1        4.891  -0.094  -1.244  0.00  0.00    +0.301 HD
ATOM      4  H   LIG    1        3.270  -0.435  -1.527  0.00  0.00    +0.301 HD
ENDROOT
BRANCH   1   7
ATOM      5  C   LIG    1       -0.070   1.259  -0.093  0.00  0.00    +0.017 C 
ATOM      6  C   LIG    1        1.384   1.772  -0.207  0.00  0.00    +0.032 C 
ATOM      7  C   LIG    1        2.193   0.694   0.557  0.00  0.00    +0.165 C 
ATOM      8  N   LIG    1        1.501  -0.570   0.195  0.00  0.00    -0.304 NA
ATOM      9  H   LIG    1        1.804  -0.902  -0.708  0.00  0.00    +0.123 HD
ATOM     10  C   LIG    1        0.057  -0.250   0.184  0.00  0.00    +0.082 C 
ENDBRANCH   1   7
BRANCH   1  11
ATOM     11  N   LIG    1        4.549   1.340   0.760  0.00  0.00    -0.253 N 
ATOM     12  H   LIG    1        5.471   1.326   0.460  0.00  0.00    +0.288 HD
ATOM     13  H   LIG    1        4.304   1.843   1.553  0.00  0.00    +0.288 HD
ENDBRANCH   1  11
TORSDOF 2
