REMARK  Name = ZINC17858403
REMARK                            x       y       z     vdW  Elec       q    Type
REMARK                         _______ _______ _______ _____ _____    ______ ____
ROOT
ATOM      1  C   LIG    1        0.086   1.138   1.478  0.00  0.00    +0.001 A 
ATOM      2  C   LIG    1        1.278   1.841   1.529  0.00  0.00    +0.002 A 
ATOM      3  C   LIG    1        2.465   1.243   1.155  0.00  0.00    +0.024 A 
ATOM      4  C   LIG    1        2.475  -0.078   0.722  0.00  0.00    +0.043 A 
ATOM      5  C   LIG    1        1.267  -0.787   0.672  0.00  0.00    +0.027 A 
ATOM      6  C   LIG    1        1.597  -2.143   0.180  0.00  0.00    +0.135 C 
ATOM      7  C   LIG    1        3.065  -2.124  -0.035  0.00  0.00    +0.267 C 
ATOM      8  O   LIG    1        3.742  -3.050  -0.439  0.00  0.00    -0.268 OA
ATOM      9  N   LIG    1        0.771  -3.141  -0.022  0.00  0.00    -0.242 NA
ATOM     10  N   LIG    1        3.513  -0.901   0.297  0.00  0.00    -0.280 N 
ATOM     11  H   LIG    1        4.442  -0.628   0.247  0.00  0.00    +0.155 HD
ATOM     12  C   LIG    1        0.076  -0.175   1.051  0.00  0.00    +0.012 A 
ENDROOT
BRANCH   9  13
ATOM     13  C   LIG    1       -0.569  -2.950   0.094  0.00  0.00    +0.065 A 
ATOM     14  C   LIG    1       -1.241  -2.110  -0.803  0.00  0.00    +0.029 A 
ATOM     15  C   LIG    1       -2.600  -1.921  -0.678  0.00  0.00    +0.022 A 
ATOM     16  C   LIG    1       -3.302  -2.559   0.332  0.00  0.00    +0.041 A 
ATOM     17 CL   LIG    1       -5.014  -2.314   0.481  0.00  0.00    -0.084 Cl
ATOM     18  C   LIG    1       -2.645  -3.392   1.224  0.00  0.00    +0.022 A 
ATOM     19  C   LIG    1       -1.287  -3.596   1.109  0.00  0.00    +0.029 A 
ENDBRANCH   9  13
TORSDOF 1
