REMARK  Name = ZINC20029531
REMARK                            x       y       z     vdW  Elec       q    Type
REMARK                         _______ _______ _______ _____ _____    ______ ____
ROOT
ATOM      1  C   LIG    1       -0.018   1.503   0.010  0.00  0.00    +0.046 C 
ATOM      2  C   LIG    1        0.002  -0.004   0.002  0.00  0.00    -0.014 A 
ATOM      3  C   LIG    1        0.006  -0.720  -1.205  0.00  0.00    +0.095 A 
ATOM      4  C   LIG    1        0.026  -2.128  -1.142  0.00  0.00    +0.135 A 
ATOM      5  N   LIG    1        0.039  -2.769   0.003  0.00  0.00    -0.230 NA
ATOM      6  C   LIG    1        0.036  -2.132   1.199  0.00  0.00    +0.086 A 
ATOM      7  C   LIG    1        0.047  -2.729   2.475  0.00  0.00    +0.019 A 
ATOM      8  C   LIG    1        0.038  -4.238   2.707  0.00  0.00    +0.066 C 
ATOM      9  C   LIG    1        0.765  -4.519   4.023  0.00  0.00    +0.108 C 
ATOM     10  C   LIG    1        0.347  -3.566   5.106  0.00  0.00    +0.189 C 
ATOM     11  N   LIG    1        0.086  -2.317   4.855  0.00  0.00    -0.210 NA
ATOM     12  C   LIG    1        0.071  -1.900   3.573  0.00  0.00    +0.111 A 
ATOM     13  S   LIG    1        0.034  -0.268   2.893  0.00  0.00    -0.067 S 
ATOM     14  C   LIG    1        0.023  -0.716   1.174  0.00  0.00    +0.044 A 
ENDROOT
BRANCH   8  15
ATOM     15  C   LIG    1        0.749  -4.931   1.573  0.00  0.00    +0.002 A 
ATOM     16  C   LIG    1        2.077  -4.651   1.315  0.00  0.00    +0.008 A 
ATOM     17  C   LIG    1        2.730  -5.286   0.275  0.00  0.00    +0.001 A 
ATOM     18  C   LIG    1        2.056  -6.204  -0.509  0.00  0.00    +0.004 A 
ATOM     19  C   LIG    1        0.728  -6.489  -0.255  0.00  0.00    +0.046 A 
ATOM     20  C   LIG    1        0.072  -5.856   0.792  0.00  0.00    +0.124 A 
BRANCH  20  21
ATOM     21  O   LIG    1       -1.232  -6.139   1.048  0.00  0.00    -0.495 OA
ATOM     22  C   LIG    1       -1.865  -7.102   0.202  0.00  0.00    +0.277 C 
ENDBRANCH  20  21
ENDBRANCH   8  15
BRANCH   4  23
ATOM     23  N   LIG    1        0.030  -2.856  -2.321  0.00  0.00    -0.342 N 
ATOM     24  H   LIG    1        0.043  -3.825  -2.293  0.00  0.00    +0.144 HD
ATOM     25  H   LIG    1        0.020  -2.396  -3.175  0.00  0.00    +0.144 HD
ENDBRANCH   4  23
BRANCH   3  26
ATOM     26  C   LIG    1       -0.009  -0.039  -2.465  0.00  0.00    +0.103 C 
ATOM     27  N   LIG    1       -0.021   0.500  -3.465  0.00  0.00    -0.191 NA
ENDBRANCH   3  26
BRANCH  10  28
ATOM     28  O   LIG    1        0.264  -4.014   6.374  0.00  0.00    -0.495 OA
ATOM     29  H   LIG    1       -0.011  -3.341   7.011  0.00  0.00    +0.293 HD
ENDBRANCH  10  28
TORSDOF 5
