REMARK  Name = ZINC13816309
REMARK                            x       y       z     vdW  Elec       q    Type
REMARK                         _______ _______ _______ _____ _____    ______ ____
ROOT
ATOM      1  N   LIG    1        0.047  -2.755  -2.443  0.00  0.00    -0.296 N 
ATOM      2  H   LIG    1        0.149  -3.720  -2.446  0.00  0.00    +0.151 HD
ATOM      3  C   LIG    1       -0.084  -2.089  -3.607  0.00  0.00    +0.304 C 
ATOM      4  N   LIG    1       -0.188  -2.770  -4.766  0.00  0.00    -0.266 N 
ATOM      5  H   LIG    1       -0.251  -3.738  -4.755  0.00  0.00    +0.156 HD
ATOM      6  O   LIG    1       -0.110  -0.873  -3.612  0.00  0.00    -0.252 OA
ENDROOT
BRANCH   1  10
ATOM      7  C   LIG    1       -1.262   1.183   0.187  0.00  0.00    +0.024 C 
ATOM      8  C   LIG    1       -0.581  -0.158   0.086  0.00  0.00    +0.053 C 
ATOM      9  C   LIG    1       -0.586  -0.828  -1.131  0.00  0.00    +0.041 C 
ATOM     10  C   LIG    1        0.036  -2.060  -1.239  0.00  0.00    +0.080 C 
ATOM     11  C   LIG    1        0.660  -2.589  -0.085  0.00  0.00    +0.026 C 
ATOM     12  C   LIG    1        1.312  -3.830  -0.112  0.00  0.00    +0.007 C 
ATOM     13  C   LIG    1        1.902  -4.306   1.020  0.00  0.00    +0.000 C 
ATOM     14  C   LIG    1        1.866  -3.575   2.205  0.00  0.00    +0.002 C 
ATOM     15  C   LIG    1        1.241  -2.368   2.266  0.00  0.00    +0.019 C 
ATOM     16  C   LIG    1        0.622  -1.844   1.118  0.00  0.00    +0.059 C 
ATOM     17  N   LIG    1        0.006  -0.656   1.148  0.00  0.00    -0.310 NA
ATOM     18  H   LIG    1       -0.010  -0.153   1.977  0.00  0.00    +0.122 HD
ENDBRANCH   1  10
BRANCH   4  19
ATOM     19  C   LIG    1       -0.204  -2.079  -5.986  0.00  0.00    +0.078 A 
ATOM     20  C   LIG    1        0.378  -0.824  -6.082  0.00  0.00    +0.047 A 
ATOM     21  C   LIG    1        0.361  -0.145  -7.286  0.00  0.00    +0.043 A 
ATOM     22 CL   LIG    1        1.089   1.426  -7.406  0.00  0.00    -0.083 Cl
ATOM     23  C   LIG    1       -0.236  -0.715  -8.397  0.00  0.00    +0.024 A 
ATOM     24  C   LIG    1       -0.818  -1.966  -8.307  0.00  0.00    +0.049 A 
ATOM     25  C   LIG    1       -0.799  -2.655  -7.105  0.00  0.00    +0.141 A 
BRANCH  25  26
ATOM     26  O   LIG    1       -1.367  -3.888  -7.018  0.00  0.00    -0.493 OA
ATOM     27  C   LIG    1       -1.959  -4.416  -8.206  0.00  0.00    +0.277 C 
ENDBRANCH  25  26
ENDBRANCH   4  19
TORSDOF 3
