REMARK  Name = ZINC19118270
REMARK                            x       y       z     vdW  Elec       q    Type
REMARK                         _______ _______ _______ _____ _____    ______ ____
ROOT
ATOM      1  C   LIG    1       -0.013   1.086   0.008  0.00  0.00    +0.068 C 
ATOM      2  C   LIG    1       -0.718   1.572   1.248  0.00  0.00    +0.062 A 
ATOM      3  C   LIG    1       -2.091   1.789   1.220  0.00  0.00    +0.069 A 
ATOM      4  C   LIG    1       -2.723   2.238   2.392  0.00  0.00    +0.014 A 
ATOM      5  C   LIG    1       -1.948   2.457   3.530  0.00  0.00    -0.020 A 
ATOM      6  C   LIG    1       -0.591   2.220   3.464  0.00  0.00    +0.115 A 
ATOM      7  C   LIG    1       -4.153   2.371   2.074  0.00  0.00    +0.008 A 
ATOM      8  C   LIG    1       -5.268   2.771   2.807  0.00  0.00    +0.010 A 
ATOM      9  C   LIG    1       -6.510   2.790   2.210  0.00  0.00    +0.001 A 
ATOM     10  C   LIG    1       -6.654   2.413   0.884  0.00  0.00    +0.002 A 
ATOM     11  C   LIG    1       -5.560   2.015   0.146  0.00  0.00    +0.026 A 
ATOM     12  C   LIG    1       -4.297   1.989   0.731  0.00  0.00    +0.048 A 
ATOM     13  N   LIG    1       -3.052   1.641   0.238  0.00  0.00    -0.353 N 
ATOM     14  H   LIG    1       -2.878   1.340  -0.667  0.00  0.00    +0.166 HD
ATOM     15  N   LIG    1       -0.028   1.793   2.348  0.00  0.00    -0.258 NA
ENDROOT
BRANCH   5  16
ATOM     16  C   LIG    1       -2.581   2.943   4.809  0.00  0.00    +0.037 C 
BRANCH  16  17
ATOM     17  C   LIG    1       -3.125   1.749   5.595  0.00  0.00    +0.003 C 
BRANCH  17  18
ATOM     18  C   LIG    1       -3.768   2.243   6.892  0.00  0.00    -0.018 C 
BRANCH  18  19
ATOM     19  C   LIG    1       -4.313   1.049   7.678  0.00  0.00    -0.080 C 
BRANCH  19  20
ATOM     20  N   LIG    1       -4.949   1.544   8.918  0.00  0.00    +0.376 N 
ATOM     21  H   LIG    1       -5.619   2.283   8.676  0.00  0.00    -0.083 HD
ATOM     22  C   LIG    1       -3.923   2.103   9.823  0.00  0.00    -0.097 C 
ATOM     23  C   LIG    1       -5.670   0.443   9.590  0.00  0.00    -0.097 C 
ENDBRANCH  19  20
ENDBRANCH  18  19
ENDBRANCH  17  18
ENDBRANCH  16  17
ENDBRANCH   5  16
TORSDOF 5
