REMARK  Name = ZINC29134844
REMARK                            x       y       z     vdW  Elec       q    Type
REMARK                         _______ _______ _______ _____ _____    ______ ____
ROOT
ATOM      1  C   LIG    1       -1.333   3.367   1.435  0.00  0.00    +0.058 C 
ATOM      2  C   LIG    1       -1.048   2.545   0.176  0.00  0.00    +0.130 C 
ATOM      3  C   LIG    1       -2.361   2.231  -0.545  0.00  0.00    +0.058 C 
ATOM      4  C   LIG    1       -0.118   3.331  -0.758  0.00  0.00    +0.148 C 
ATOM      5  C   LIG    1        1.145   3.691   0.027  0.00  0.00    -0.000 C 
ATOM      6  C   LIG    1        1.667   2.472   0.749  0.00  0.00    +0.034 C 
ATOM      7  C   LIG    1        0.890   1.393   0.966  0.00  0.00    +0.174 C 
ATOM      8  C   LIG    1        1.427   0.214   1.696  0.00  0.00    +0.228 C 
ATOM      9  C   LIG    1        2.821   0.215   2.180  0.00  0.00    +0.036 A 
ATOM     10  C   LIG    1        3.344  -0.878   2.862  0.00  0.00    +0.012 A 
ATOM     11  C   LIG    1        4.657  -0.849   3.306  0.00  0.00    +0.001 A 
ATOM     12  C   LIG    1        5.449   0.259   3.075  0.00  0.00    +0.001 A 
ATOM     13  C   LIG    1        4.941   1.357   2.397  0.00  0.00    +0.012 A 
ATOM     14  C   LIG    1        3.628   1.342   1.945  0.00  0.00    +0.033 A 
ATOM     15  O   LIG    1        0.718  -0.752   1.893  0.00  0.00    -0.283 OA
ATOM     16  C   LIG    1        3.060   2.498   1.219  0.00  0.00    +0.192 C 
ATOM     17  O   LIG    1        3.751   3.476   1.008  0.00  0.00    -0.287 OA
ATOM     18  O   LIG    1       -0.392   1.329   0.533  0.00  0.00    -0.480 OA
ENDROOT
BRANCH   5  19
ATOM     19  N   LIG    1        2.171   4.185  -0.901  0.00  0.00    +0.388 N 
ATOM     20  H   LIG    1        1.780   4.157  -1.929  0.00  0.00    -0.084 HD
ATOM     21  H   LIG    1        3.065   3.548  -0.832  0.00  0.00    -0.084 HD
BRANCH  19  22
ATOM     22  C   LIG    1        2.551   5.567  -0.579  0.00  0.00    -0.046 C 
BRANCH  22  23
ATOM     23  C   LIG    1        3.508   6.081  -1.623  0.00  0.00    -0.064 A 
ATOM     24  C   LIG    1        4.870   5.918  -1.452  0.00  0.00    +0.002 A 
ATOM     25  C   LIG    1        5.748   6.386  -2.411  0.00  0.00    +0.000 A 
ATOM     26  C   LIG    1        5.264   7.025  -3.538  0.00  0.00    +0.000 A 
ATOM     27  C   LIG    1        3.903   7.193  -3.706  0.00  0.00    +0.000 A 
ATOM     28  C   LIG    1        3.025   6.722  -2.749  0.00  0.00    +0.002 A 
ENDBRANCH  22  23
ENDBRANCH  19  22
ENDBRANCH   5  19
BRANCH   4  29
ATOM     29  O   LIG    1        0.227   2.527  -1.887  0.00  0.00    -0.389 OA
ATOM     30  H   LIG    1        0.890   2.929  -2.667  0.00  0.00    +0.210 HD
ENDBRANCH   4  29
TORSDOF 4
