REMARK  Name = ZINC19390700
REMARK                            x       y       z     vdW  Elec       q    Type
REMARK                         _______ _______ _______ _____ _____    ______ ____
ROOT
ATOM      1  N   LIG    1       -0.339   1.701   5.069  0.00  0.00    -0.261 N 
ATOM      2  H   LIG    1        0.697   1.422   5.313  0.00  0.00    +0.157 HD
ATOM      3  C   LIG    1       -1.027   2.521   5.887  0.00  0.00    +0.252 C 
ATOM      4  O   LIG    1       -2.172   2.829   5.617  0.00  0.00    -0.270 OA
ENDROOT
BRANCH   3   5
ATOM      5  C   LIG    1       -0.393   3.043   7.111  0.00  0.00    +0.059 A 
ATOM      6  C   LIG    1        0.960   2.795   7.363  0.00  0.00    +0.035 A 
ATOM      7  C   LIG    1        1.547   3.287   8.508  0.00  0.00    +0.042 A 
ATOM      8 CL   LIG    1        3.227   2.977   8.819  0.00  0.00    -0.084 Cl
ATOM      9  C   LIG    1        0.803   4.028   9.414  0.00  0.00    +0.022 A 
ATOM     10  C   LIG    1       -0.533   4.282   9.179  0.00  0.00    +0.025 A 
ATOM     11  C   LIG    1       -1.141   3.799   8.027  0.00  0.00    +0.037 A 
BRANCH  11  12
ATOM     12  N   LIG    1       -2.484   4.058   7.785  0.00  0.00    -0.357 N 
ATOM     13  H   LIG    1       -2.964   3.670   6.874  0.00  0.00    +0.142 HD
ATOM     14  H   LIG    1       -3.068   4.650   8.505  0.00  0.00    +0.142 HD
ENDBRANCH  11  12
ENDBRANCH   3   5
BRANCH   1  19
ATOM     15  C   LIG    1       -0.559  -0.892   0.914  0.00  0.00    +0.066 C 
ATOM     16  C   LIG    1       -1.144   0.028   1.955  0.00  0.00    +0.047 A 
ATOM     17  C   LIG    1       -2.412   0.492   1.836  0.00  0.00    +0.071 A 
ATOM     18  S   LIG    1       -2.539   1.493   3.311  0.00  0.00    -0.060 S 
ATOM     19  C   LIG    1       -0.936   1.208   3.916  0.00  0.00    +0.165 A 
ATOM     20  N   LIG    1       -0.433   0.404   3.000  0.00  0.00    -0.230 NA
ENDBRANCH   1  19
TORSDOF 3
