REMARK  Name = ZINC14387786
REMARK                            x       y       z     vdW  Elec       q    Type
REMARK                         _______ _______ _______ _____ _____    ______ ____
ROOT
ATOM      1  N   LIG    1        0.401  -5.328   0.167  0.00  0.00    -0.177 NA
ATOM      2  C   LIG    1        1.079  -5.802  -1.047  0.00  0.00    +0.110 C 
ATOM      3  C   LIG    1        1.215  -7.326  -0.973  0.00  0.00    +0.030 C 
ATOM      4  C   LIG    1        1.920  -7.708   0.331  0.00  0.00    +0.077 C 
ATOM      5  C   LIG    1        1.082  -7.239   1.522  0.00  0.00    +0.030 C 
ATOM      6  C   LIG    1        0.948  -5.709   1.476  0.00  0.00    +0.110 C 
ENDROOT
BRANCH   4   7
ATOM      7  C   LIG    1        2.087  -9.204   0.392  0.00  0.00    +0.217 C 
ATOM      8  N   LIG    1        2.686  -9.773   1.457  0.00  0.00    -0.309 N 
ATOM      9  H   LIG    1        3.010  -9.218   2.184  0.00  0.00    +0.149 HD
ATOM     10  O   LIG    1        1.681  -9.897  -0.517  0.00  0.00    -0.275 OA
BRANCH   8  11
ATOM     11  C   LIG    1        2.848 -11.227   1.517  0.00  0.00    +0.100 C 
ATOM     12  C   LIG    1        4.121 -11.630   0.770  0.00  0.00    +0.033 C 
BRANCH  11  13
ATOM     13  C   LIG    1        2.950 -11.663   2.956  0.00  0.00    -0.027 A 
ATOM     14  C   LIG    1        3.671 -10.904   3.858  0.00  0.00    +0.007 A 
ATOM     15  C   LIG    1        3.765 -11.303   5.178  0.00  0.00    +0.020 A 
ATOM     16  C   LIG    1        3.137 -12.462   5.596  0.00  0.00    +0.041 A 
ATOM     17 CL   LIG    1        3.256 -12.964   7.254  0.00  0.00    -0.084 Cl
ATOM     18  C   LIG    1        2.416 -13.222   4.693  0.00  0.00    +0.020 A 
ATOM     19  C   LIG    1        2.317 -12.819   3.374  0.00  0.00    +0.007 A 
ENDBRANCH  11  13
ENDBRANCH   8  11
ENDBRANCH   4   7
BRANCH   1  20
ATOM     20  S   LIG    1       -0.950  -4.376   0.061  0.00  0.00    +0.061 S 
ATOM     21  O   LIG    1       -1.536  -4.641  -1.206  0.00  0.00    -0.153 OA
ATOM     22  O   LIG    1       -1.662  -4.544   1.280  0.00  0.00    -0.153 OA
BRANCH  20  28
ATOM     23  C   LIG    1        0.919   1.360  -0.067  0.00  0.00    +0.044 C 
ATOM     24  C   LIG    1        0.452  -0.073  -0.035  0.00  0.00    -0.050 A 
ATOM     25  C   LIG    1        0.175  -0.682   1.174  0.00  0.00    +0.008 A 
ATOM     26  C   LIG    1       -0.254  -1.996   1.204  0.00  0.00    -0.024 A 
ATOM     27  C   LIG    1       -0.554  -2.662   2.522  0.00  0.00    +0.046 C 
ATOM     28  C   LIG    1       -0.405  -2.700   0.024  0.00  0.00    +0.111 A 
ATOM     29  C   LIG    1       -0.129  -2.090  -1.185  0.00  0.00    -0.024 A 
ATOM     30  C   LIG    1       -0.294  -2.858  -2.472  0.00  0.00    +0.046 C 
ATOM     31  C   LIG    1        0.295  -0.775  -1.215  0.00  0.00    +0.008 A 
ENDBRANCH  20  28
ENDBRANCH   1  20
TORSDOF 5
