REMARK  Name = ZINC36269777
REMARK                            x       y       z     vdW  Elec       q    Type
REMARK                         _______ _______ _______ _____ _____    ______ ____
ROOT
ATOM      1  C   LIG    1        2.469  -6.912  -0.484  0.00  0.00    +0.163 C 
ENDROOT
BRANCH   1   2
ATOM      2  C   LIG    1        1.243  -7.367  -1.232  0.00  0.00    +0.236 C 
ATOM      3  N   LIG    1        0.767  -8.614  -1.050  0.00  0.00    -0.300 N 
ATOM      4  C   LIG    1        1.363  -9.504  -0.044  0.00  0.00    +0.108 C 
ATOM      5  C   LIG    1        0.254 -10.017   0.880  0.00  0.00    +0.028 C 
ATOM      6  C   LIG    1       -0.845 -10.668   0.038  0.00  0.00    -0.004 C 
ATOM      7  C   LIG    1       -1.448  -9.629  -0.909  0.00  0.00    +0.028 C 
ATOM      8  C   LIG    1       -0.363  -9.109  -1.849  0.00  0.00    +0.108 C 
ATOM      9  O   LIG    1        0.684  -6.610  -1.998  0.00  0.00    -0.274 OA
BRANCH   6  10
ATOM     10  C   LIG    1       -1.938 -11.213   0.960  0.00  0.00    -0.003 C 
ATOM     11  C   LIG    1       -1.304 -12.091   2.041  0.00  0.00    +0.004 C 
ATOM     12  C   LIG    1       -2.397 -12.635   2.962  0.00  0.00    +0.000 C 
ATOM     13  C   LIG    1       -3.385 -13.468   2.144  0.00  0.00    +0.000 C 
ATOM     14  C   LIG    1       -4.020 -12.591   1.064  0.00  0.00    +0.000 C 
ATOM     15  C   LIG    1       -2.927 -12.046   0.142  0.00  0.00    +0.004 C 
ENDBRANCH   6  10
BRANCH   6  16
ATOM     16  C   LIG    1       -0.249 -11.816  -0.779  0.00  0.00    +0.152 C 
BRANCH  16  17
ATOM     17  N   LIG    1        0.450 -12.741   0.117  0.00  0.00    -0.251 N 
ATOM     18  C   LIG    1        0.246 -14.065   0.228  0.00  0.00    +0.219 A 
ATOM     19  N   LIG    1        1.068 -14.529   1.134  0.00  0.00    -0.223 NA
ATOM     20  C   LIG    1        1.809 -13.535   1.622  0.00  0.00    +0.244 A 
ATOM     21  N   LIG    1        1.472 -12.421   1.026  0.00  0.00    -0.158 NA
ENDBRANCH  16  17
ENDBRANCH   6  16
ENDBRANCH   1   2
BRANCH   1  23
ATOM     22  C   LIG    1        3.125  -4.846   0.630  0.00  0.00    +0.231 C 
ATOM     23  N   LIG    1        2.461  -5.451  -0.375  0.00  0.00    -0.302 N 
ATOM     24  H   LIG    1        1.977  -4.919  -1.026  0.00  0.00    +0.150 HD
ATOM     25  O   LIG    1        3.729  -5.511   1.444  0.00  0.00    -0.274 OA
BRANCH  22  32
ATOM     26  C   LIG    1        0.734   0.611   2.292  0.00  0.00    +0.000 A 
ATOM     27  C   LIG    1        1.943   1.278   2.354  0.00  0.00    +0.000 A 
ATOM     28  C   LIG    1        3.117   0.600   2.096  0.00  0.00    +0.005 A 
ATOM     29  C   LIG    1        3.091  -0.750   1.775  0.00  0.00    -0.030 A 
ATOM     30  C   LIG    1        1.885  -1.415   1.717  0.00  0.00    -0.041 A 
ATOM     31  C   LIG    1        1.807  -2.883   1.384  0.00  0.00    +0.063 C 
ATOM     32  C   LIG    1        3.116  -3.343   0.741  0.00  0.00    +0.145 C 
ATOM     33  N   LIG    1        4.234  -2.900   1.590  0.00  0.00    -0.301 NA
ATOM     34  H   LIG    1        4.098  -3.188   2.547  0.00  0.00    +0.123 HD
ATOM     35  C   LIG    1        4.397  -1.446   1.496  0.00  0.00    +0.117 C 
ATOM     36  C   LIG    1        0.706  -0.732   1.974  0.00  0.00    +0.004 A 
ENDBRANCH  22  32
ENDBRANCH   1  23
BRANCH   1  37
ATOM     37  C   LIG    1        3.723  -7.360  -1.238  0.00  0.00    +0.067 C 
BRANCH  37  38
ATOM     38  C   LIG    1        4.949  -6.946  -0.466  0.00  0.00    -0.045 A 
ATOM     39  C   LIG    1        5.526  -5.711  -0.697  0.00  0.00    +0.005 A 
ATOM     40  C   LIG    1        6.651  -5.330   0.011  0.00  0.00    +0.020 A 
ATOM     41  C   LIG    1        7.199  -6.185   0.950  0.00  0.00    +0.041 A 
ATOM     42 CL   LIG    1        8.611  -5.708   1.839  0.00  0.00    -0.084 Cl
ATOM     43  C   LIG    1        6.620  -7.421   1.180  0.00  0.00    +0.020 A 
ATOM     44  C   LIG    1        5.492  -7.798   0.476  0.00  0.00    +0.005 A 
ENDBRANCH  37  38
ENDBRANCH   1  37
TORSDOF 8
