REMARK  Name = ZINC19322689
REMARK                            x       y       z     vdW  Elec       q    Type
REMARK                         _______ _______ _______ _____ _____    ______ ____
ROOT
ATOM      1  N   LIG    1       -1.698   0.889   3.002  0.00  0.00    +0.395 N 
ATOM      2  H   LIG    1       -1.750   1.556   2.247  0.00  0.00    -0.079 HD
ATOM      3  C   LIG    1       -3.035   0.699   3.580  0.00  0.00    -0.074 C 
ATOM      4  C   LIG    1       -3.558   2.042   4.098  0.00  0.00    -0.003 C 
ATOM      5  C   LIG    1       -2.571   2.601   5.126  0.00  0.00    +0.081 C 
ATOM      6  N   LIG    1       -1.240   2.701   4.510  0.00  0.00    -0.307 NA
ATOM      7  C   LIG    1       -0.781   1.390   4.033  0.00  0.00    +0.034 C 
ENDROOT
BRANCH   7   8
ATOM      8  C   LIG    1        0.603   1.524   3.452  0.00  0.00    -0.044 A 
ATOM      9  C   LIG    1        0.867   2.450   2.454  0.00  0.00    +0.023 A 
ATOM     10  C   LIG    1        2.148   2.544   1.944  0.00  0.00    +0.111 A 
ATOM     11  N   LIG    1        3.112   1.766   2.396  0.00  0.00    -0.263 NA
ATOM     12  C   LIG    1        2.898   0.875   3.344  0.00  0.00    +0.111 A 
ATOM     13  C   LIG    1        1.643   0.728   3.906  0.00  0.00    +0.023 A 
ENDBRANCH   7   8
BRANCH   1  14
ATOM     14  C   LIG    1       -1.201  -0.394   2.487  0.00  0.00    -0.038 C 
BRANCH  14  20
ATOM     15  C   LIG    1       -1.884  -0.304   0.075  0.00  0.00    +0.031 A 
ATOM     16  C   LIG    1       -2.682  -0.727  -0.981  0.00  0.00    +0.023 A 
ATOM     17  C   LIG    1       -3.659  -1.679  -0.768  0.00  0.00    +0.002 A 
ATOM     18  C   LIG    1       -3.843  -2.212   0.495  0.00  0.00    +0.000 A 
ATOM     19  C   LIG    1       -3.051  -1.793   1.548  0.00  0.00    +0.003 A 
ATOM     20  C   LIG    1       -2.068  -0.845   1.341  0.00  0.00    -0.043 A 
BRANCH  15  22
ATOM     21  C   LIG    1       -1.249   2.080  -0.160  0.00  0.00    +0.129 C 
ATOM     22  N   LIG    1       -0.895   0.659  -0.138  0.00  0.00    -0.336 N 
ATOM     23  C   LIG    1        0.497   0.248  -0.338  0.00  0.00    +0.129 C 
ENDBRANCH  15  22
ENDBRANCH  14  20
ENDBRANCH   1  14
BRANCH   6  24
ATOM     24  C   LIG    1       -0.271   3.291   5.443  0.00  0.00    +0.120 C 
BRANCH  24  25
ATOM     25  C   LIG    1       -0.499   4.777   5.532  0.00  0.00    -0.012 A 
ATOM     26  C   LIG    1       -1.415   5.387   4.698  0.00  0.00    +0.007 A 
ATOM     27  C   LIG    1       -1.625   6.752   4.779  0.00  0.00    +0.000 A 
ATOM     28  C   LIG    1       -0.920   7.510   5.695  0.00  0.00    +0.002 A 
ATOM     29  C   LIG    1       -0.003   6.907   6.533  0.00  0.00    +0.023 A 
ATOM     30  C   LIG    1        0.207   5.535   6.458  0.00  0.00    +0.034 A 
BRANCH  30  31
ATOM     31  N   LIG    1        1.129   4.921   7.308  0.00  0.00    -0.336 N 
ATOM     32  C   LIG    1        2.547   4.877   6.941  0.00  0.00    +0.129 C 
ATOM     33  C   LIG    1        0.680   4.320   8.566  0.00  0.00    +0.129 C 
ENDBRANCH  30  31
ENDBRANCH  24  25
ENDBRANCH   6  24
TORSDOF 7
