REMARK  Name = ZINC32686273
REMARK                            x       y       z     vdW  Elec       q    Type
REMARK                         _______ _______ _______ _____ _____    ______ ____
ROOT
ATOM      1  N   LIG    1       -2.667   2.915   4.675  0.00  0.00    -0.269 N 
ATOM      2  H   LIG    1       -2.696   3.990   4.906  0.00  0.00    +0.157 HD
ENDROOT
BRANCH   1   3
ATOM      3  C   LIG    1       -3.260   2.011   5.530  0.00  0.00    +0.293 A 
ATOM      4  N   LIG    1       -3.974   2.328   6.579  0.00  0.00    -0.195 NA
ATOM      5  C   LIG    1       -4.396   1.183   7.182  0.00  0.00    +0.111 A 
ATOM      6  C   LIG    1       -5.172   0.918   8.312  0.00  0.00    +0.031 A 
ATOM      7  C   LIG    1       -5.431  -0.386   8.672  0.00  0.00    +0.002 A 
ATOM      8  C   LIG    1       -4.927  -1.435   7.919  0.00  0.00    +0.004 A 
ATOM      9  C   LIG    1       -4.159  -1.187   6.800  0.00  0.00    +0.048 A 
ATOM     10  C   LIG    1       -3.888   0.118   6.423  0.00  0.00    +0.157 A 
ATOM     11  O   LIG    1       -3.193   0.673   5.403  0.00  0.00    -0.424 OA
ENDBRANCH   1   3
BRANCH   1  15
ATOM     12  C   LIG    1       -0.764   1.576   1.220  0.00  0.00    -0.048 A 
ATOM     13  C   LIG    1       -0.312   2.716   1.859  0.00  0.00    +0.005 A 
ATOM     14  C   LIG    1       -0.944   3.166   3.002  0.00  0.00    +0.023 A 
ATOM     15  C   LIG    1       -2.029   2.465   3.515  0.00  0.00    +0.035 A 
ATOM     16  C   LIG    1       -2.477   1.318   2.874  0.00  0.00    +0.023 A 
ATOM     17  C   LIG    1       -1.843   0.876   1.729  0.00  0.00    +0.005 A 
BRANCH  12  19
ATOM     18  C   LIG    1       -0.738   1.725  -1.255  0.00  0.00    +0.009 C 
ATOM     19  C   LIG    1       -0.076   1.092  -0.030  0.00  0.00    +0.032 C 
ENDBRANCH  12  19
ENDBRANCH   1  15
TORSDOF 3
