REMARK  Name = ZINC28345987
REMARK                            x       y       z     vdW  Elec       q    Type
REMARK                         _______ _______ _______ _____ _____    ______ ____
ROOT
ATOM      1  C   LIG    1       -2.434   0.950   0.019  0.00  0.00    +0.033 C 
ATOM      2  C   LIG    1       -3.621   1.657   0.028  0.00  0.00    +0.083 C 
ATOM      3  N   LIG    1       -3.626   2.973   0.035  0.00  0.00    -0.306 NA
ATOM      4  H   LIG    1       -4.581   3.520   0.042  0.00  0.00    +0.123 HD
ATOM      5  C   LIG    1       -2.500   3.678   0.033  0.00  0.00    +0.144 C 
ATOM      6  C   LIG    1       -1.265   3.039   0.030  0.00  0.00    +0.046 C 
ATOM      7  C   LIG    1       -1.226   1.645   0.017  0.00  0.00    +0.054 C 
ENDROOT
BRANCH   7   8
ATOM      8  N   LIG    1       -0.011   0.966   0.007  0.00  0.00    -0.327 NA
ATOM      9  H   LIG    1        0.004  -0.134   0.001  0.00  0.00    +0.118 HD
ATOM     10  H   LIG    1        0.934   1.529   0.006  0.00  0.00    +0.118 HD
ENDBRANCH   7   8
BRANCH   5  11
ATOM     11  C   LIG    1       -2.560   5.158   0.042  0.00  0.00    +0.255 C 
ATOM     12  O   LIG    1       -1.534   5.808   0.040  0.00  0.00    -0.272 OA
BRANCH  11  13
ATOM     13  N   LIG    1       -3.754   5.784   0.051  0.00  0.00    -0.155 NA
ATOM     14  C   LIG    1       -3.811   7.171   0.058  0.00  0.00    +0.163 A 
ATOM     15  N   LIG    1       -2.820   8.041   0.064  0.00  0.00    -0.342 N 
ATOM     16  H   LIG    1       -1.778   7.688   0.067  0.00  0.00    +0.167 HD
ATOM     17  C   LIG    1       -3.050   9.339   0.067  0.00  0.00    +0.092 A 
ATOM     18  C   LIG    1       -4.336   9.767   0.076  0.00  0.00    +0.066 A 
ATOM     19  S   LIG    1       -5.205   8.206   0.071  0.00  0.00    -0.061 S 
ENDBRANCH  11  13
ENDBRANCH   5  11
TORSDOF 3
