REMARK  Name = ZINC26481517
REMARK                            x       y       z     vdW  Elec       q    Type
REMARK                         _______ _______ _______ _____ _____    ______ ____
ROOT
ATOM      1  C   LIG    1        1.167   2.440   0.004  0.00  0.00    +0.023 A 
ATOM      2  C   LIG    1        1.146   3.820   0.014  0.00  0.00    +0.047 A 
ATOM      3  C   LIG    1       -0.065   4.502   0.032  0.00  0.00    +0.126 A 
ATOM      4  C   LIG    1       -1.254   3.791   0.034  0.00  0.00    +0.028 A 
ATOM      5  C   LIG    1       -2.581   4.498   0.043  0.00  0.00    +0.144 C 
ATOM      6  C   LIG    1       -3.552   3.786   0.955  0.00  0.00    +0.249 C 
ATOM      7  N   LIG    1       -4.570   3.393   0.162  0.00  0.00    -0.238 N 
ATOM      8  H   LIG    1       -5.421   2.844   0.590  0.00  0.00    +0.159 HD
ATOM      9  C   LIG    1       -4.371   3.757  -1.111  0.00  0.00    +0.307 C 
ATOM     10  O   LIG    1       -5.150   3.515  -2.013  0.00  0.00    -0.252 OA
ATOM     11  O   LIG    1       -3.441   3.607   2.149  0.00  0.00    -0.273 OA
ATOM     12  C   LIG    1       -2.414   5.953   0.470  0.00  0.00    +0.081 C 
ATOM     13  C   LIG    1       -1.240   6.555  -0.313  0.00  0.00    +0.232 C 
ATOM     14  N   LIG    1       -3.212   4.421  -1.281  0.00  0.00    -0.281 N 
ATOM     15  H   LIG    1       -2.714   4.867  -2.155  0.00  0.00    +0.152 HD
ATOM     16  C   LIG    1       -1.228   2.407   0.021  0.00  0.00    +0.029 A 
ATOM     17  O   LIG    1       -0.048   5.860   0.053  0.00  0.00    -0.492 OA
ATOM     18  C   LIG    1       -0.021   1.732   0.012  0.00  0.00    +0.042 A 
ATOM     19 CL   LIG    1        0.002  -0.004   0.002  0.00  0.00    -0.084 Cl
ENDROOT
TORSDOF 0
