REMARK  Name = ZINC27196434
REMARK                            x       y       z     vdW  Elec       q    Type
REMARK                         _______ _______ _______ _____ _____    ______ ____
ROOT
ATOM      1  C   LIG    1       -2.143   4.563   2.184  0.00  0.00    +0.038 C 
ATOM      2  C   LIG    1       -2.753   4.221   3.345  0.00  0.00    +0.048 C 
ATOM      3  C   LIG    1       -3.306   4.947   4.547  0.00  0.00    +0.179 C 
ATOM      4  N   LIG    1       -3.764   3.629   5.047  0.00  0.00    -0.244 N 
ATOM      5  C   LIG    1       -5.139   3.495   5.194  0.00  0.00    +0.129 C 
ATOM      6  C   LIG    1       -5.988   4.479   4.821  0.00  0.00    +0.073 C 
ATOM      7  S   LIG    1       -4.909   5.775   4.235  0.00  0.00    -0.103 S 
ATOM      8  C   LIG    1       -3.165   3.017   3.981  0.00  0.00    +0.251 C 
ATOM      9  O   LIG    1       -3.028   1.844   3.680  0.00  0.00    -0.270 OA
ENDROOT
BRANCH   1  11
ATOM     10  C   LIG    1       -2.259   7.025   2.643  0.00  0.00    +0.138 A 
ATOM     11  C   LIG    1       -1.969   5.930   1.849  0.00  0.00    +0.062 A 
ATOM     12  N   LIG    1       -1.472   6.437   0.675  0.00  0.00    -0.324 N 
ATOM     13  C   LIG    1       -1.481   7.787   0.779  0.00  0.00    +0.136 A 
ATOM     14  C   LIG    1       -1.004   8.696  -0.330  0.00  0.00    +0.234 C 
ATOM     15  O   LIG    1       -0.273   7.897  -1.270  0.00  0.00    -0.370 OA
ATOM     16  C   LIG    1       -0.958   6.712  -1.685  0.00  0.00    +0.182 C 
ATOM     17  C   LIG    1       -1.018   5.716  -0.518  0.00  0.00    +0.151 C 
ATOM     18  N   LIG    1       -1.946   8.122   1.948  0.00  0.00    -0.238 NA
ENDBRANCH   1  11
BRANCH   5  19
ATOM     19  C   LIG    1       -5.663   2.304   5.750  0.00  0.00    +0.352 C 
ATOM     20  O   LIG    1       -4.911   1.409   6.091  0.00  0.00    -0.244 OA
BRANCH  19  21
ATOM     21  O   LIG    1       -6.997   2.160   5.904  0.00  0.00    -0.476 OA
ATOM     22  H   LIG    1       -7.575   2.849   5.642  0.00  0.00    +0.295 HD
ENDBRANCH  19  21
ENDBRANCH   5  19
TORSDOF 3
