REMARK  Name = ZINC40464616
REMARK                            x       y       z     vdW  Elec       q    Type
REMARK                         _______ _______ _______ _____ _____    ______ ____
ROOT
ATOM      1  N   LIG    1        1.228  -4.036  -0.035  0.00  0.00    -0.306 N 
ATOM      2  H   LIG    1        0.498  -4.467  -0.508  0.00  0.00    +0.149 HD
ATOM      3  C   LIG    1        2.142  -4.783   0.615  0.00  0.00    +0.280 C 
ATOM      4  O   LIG    1        3.058  -4.243   1.208  0.00  0.00    -0.267 OA
ENDROOT
BRANCH   1  10
ATOM      5  C   LIG    1       -0.018   1.465   0.010  0.00  0.00    -0.096 C 
ATOM      6  N   LIG    1        0.002  -0.004   0.002  0.00  0.00    +0.378 N 
ATOM      7  H   LIG    1       -0.945  -0.352   0.012  0.00  0.00    -0.082 HD
ATOM      8  C   LIG    1        0.681  -0.476  -1.210  0.00  0.00    -0.077 C 
ATOM      9  C   LIG    1        0.634  -2.005  -1.264  0.00  0.00    +0.003 C 
ATOM     10  C   LIG    1        1.336  -2.575  -0.029  0.00  0.00    +0.070 C 
ATOM     11  C   LIG    1        0.666  -2.018   1.230  0.00  0.00    +0.003 C 
ATOM     12  C   LIG    1        0.712  -0.489   1.192  0.00  0.00    -0.077 C 
ENDBRANCH   1  10
BRANCH   3  13
ATOM     13  C   LIG    1        2.034  -6.244   0.609  0.00  0.00    +0.190 A 
ATOM     14  C   LIG    1        2.893  -7.121   1.234  0.00  0.00    +0.055 A 
ATOM     15  C   LIG    1        2.417  -8.409   0.970  0.00  0.00    +0.050 A 
ATOM     16  C   LIG    1        1.297  -8.273   0.200  0.00  0.00    +0.136 A 
ATOM     17  O   LIG    1        1.073  -6.965  -0.006  0.00  0.00    -0.450 OA
BRANCH  16  18
ATOM     18  C   LIG    1        0.466  -9.380  -0.315  0.00  0.00    +0.017 A 
ATOM     19  C   LIG    1        0.801 -10.704  -0.020  0.00  0.00    +0.013 A 
ATOM     20  C   LIG    1        0.021 -11.733  -0.504  0.00  0.00    +0.021 A 
ATOM     21  C   LIG    1       -1.091 -11.457  -1.281  0.00  0.00    +0.041 A 
ATOM     22 CL   LIG    1       -2.068 -12.759  -1.886  0.00  0.00    -0.084 Cl
ATOM     23  C   LIG    1       -1.428 -10.147  -1.578  0.00  0.00    +0.021 A 
ATOM     24  C   LIG    1       -0.660  -9.108  -1.095  0.00  0.00    +0.013 A 
ENDBRANCH  16  18
ENDBRANCH   3  13
TORSDOF 3
