REMARK  Name = ZINC19015156
REMARK                            x       y       z     vdW  Elec       q    Type
REMARK                         _______ _______ _______ _____ _____    ______ ____
ROOT
ATOM      1  C   LIG    1       -2.033   3.679   2.124  0.00  0.00    +0.045 A 
ATOM      2  C   LIG    1       -2.141   2.865   3.245  0.00  0.00    +0.061 A 
ATOM      3 CL   LIG    1       -3.024   3.404   4.639  0.00  0.00    -0.082 Cl
ATOM      4  C   LIG    1       -1.538   1.623   3.239  0.00  0.00    +0.133 A 
ATOM      5  N   LIG    1       -0.863   1.203   2.184  0.00  0.00    -0.237 NA
ATOM      6  C   LIG    1       -0.738   1.948   1.098  0.00  0.00    +0.140 A 
ATOM      7  C   LIG    1       -1.315   3.214   1.036  0.00  0.00    +0.082 A 
ATOM      8 CL   LIG    1       -1.143   4.191  -0.388  0.00  0.00    -0.080 Cl
ENDROOT
BRANCH   6   9
ATOM      9  N   LIG    1       -0.018   1.465   0.010  0.00  0.00    -0.318 N 
ATOM     10  C   LIG    1        1.412   1.778   0.144  0.00  0.00    +0.087 C 
ATOM     11  C   LIG    1        2.155   1.302  -1.106  0.00  0.00    -0.063 C 
ATOM     12  N   LIG    1        1.956  -0.150  -1.275  0.00  0.00    +0.381 N 
ATOM     13  H   LIG    1        2.450  -0.464  -2.119  0.00  0.00    -0.086 HD
ATOM     14  H   LIG    1        2.333  -0.641  -0.456  0.00  0.00    -0.086 HD
ATOM     15  C   LIG    1        0.519  -0.456  -1.409  0.00  0.00    -0.063 C 
ATOM     16  C   LIG    1       -0.224   0.020  -0.158  0.00  0.00    +0.087 C 
ENDBRANCH   6   9
TORSDOF 1
