REMARK  Name = ZINC13755447
REMARK                            x       y       z     vdW  Elec       q    Type
REMARK                         _______ _______ _______ _____ _____    ______ ____
ROOT
ATOM      1  C   LIG    1        0.055   5.228  -0.755  0.00  0.00    +0.165 A 
ATOM      2  N   LIG    1        1.203   5.079  -0.058  0.00  0.00    -0.337 N 
ATOM      3  C   LIG    1        1.415   3.729   0.101  0.00  0.00    +0.074 A 
ATOM      4  C   LIG    1        0.361   3.096  -0.532  0.00  0.00    +0.097 A 
ATOM      5  H   LIG    1        1.790   5.815   0.279  0.00  0.00    +0.167 HD
ATOM      6  N   LIG    1       -0.441   4.055  -1.034  0.00  0.00    -0.227 NA
ENDROOT
BRANCH   1  10
ATOM      7  C   LIG    1       -2.309   8.697  -0.528  0.00  0.00    +0.017 C 
ATOM      8  C   LIG    1       -2.660   7.621  -1.560  0.00  0.00    +0.172 C 
ATOM      9  O   LIG    1       -1.980   6.410  -1.219  0.00  0.00    -0.344 OA
ATOM     10  C   LIG    1       -0.559   6.547  -1.149  0.00  0.00    +0.318 C 
ATOM     11  O   LIG    1       -0.223   7.538  -0.175  0.00  0.00    -0.344 OA
ATOM     12  C   LIG    1       -0.784   8.826  -0.447  0.00  0.00    +0.172 C 
BRANCH   7  14
ATOM     13  C   LIG    1       -2.351  10.437  -2.321  0.00  0.00    +0.004 C 
ATOM     14  C   LIG    1       -2.914  10.036  -0.956  0.00  0.00    +0.008 C 
ENDBRANCH   7  14
BRANCH   7  15
ATOM     15  C   LIG    1       -2.863   8.296   0.841  0.00  0.00    +0.008 C 
ATOM     16  C   LIG    1       -2.625   9.429   1.840  0.00  0.00    +0.004 C 
ENDBRANCH   7  15
ENDBRANCH   1  10
BRANCH   3  17
ATOM     17  C   LIG    1        2.542   3.086   0.804  0.00  0.00    +0.000 A 
ATOM     18  C   LIG    1        2.308   2.029   1.686  0.00  0.00    +0.010 A 
ATOM     19  C   LIG    1        3.367   1.428   2.334  0.00  0.00    +0.001 A 
ATOM     20  C   LIG    1        4.658   1.878   2.121  0.00  0.00    +0.000 A 
ATOM     21  C   LIG    1        4.897   2.928   1.253  0.00  0.00    +0.001 A 
ATOM     22  C   LIG    1        3.848   3.534   0.593  0.00  0.00    +0.010 A 
ENDBRANCH   3  17
BRANCH   4  23
ATOM     23  C   LIG    1        0.149   1.634  -0.634  0.00  0.00    +0.002 A 
ATOM     24  C   LIG    1       -1.143   1.109  -0.598  0.00  0.00    +0.010 A 
ATOM     25  C   LIG    1       -1.333  -0.254  -0.694  0.00  0.00    +0.001 A 
ATOM     26  C   LIG    1       -0.246  -1.100  -0.826  0.00  0.00    +0.000 A 
ATOM     27  C   LIG    1        1.037  -0.586  -0.862  0.00  0.00    +0.001 A 
ATOM     28  C   LIG    1        1.241   0.776  -0.767  0.00  0.00    +0.010 A 
ENDBRANCH   4  23
TORSDOF 5
