REMARK  Name = ZINC43120733
REMARK                            x       y       z     vdW  Elec       q    Type
REMARK                         _______ _______ _______ _____ _____    ______ ____
ROOT
ATOM      1  C   LIG    1        2.506  -3.850   4.336  0.00  0.00    +0.201 A 
ATOM      2  N   LIG    1        1.994  -4.657   3.441  0.00  0.00    -0.214 NA
ATOM      3  C   LIG    1        2.138  -5.944   3.854  0.00  0.00    +0.092 A 
ATOM      4  C   LIG    1        1.781  -7.173   3.301  0.00  0.00    +0.043 A 
ATOM      5  C   LIG    1        2.075  -8.347   3.989  0.00  0.00    +0.039 A 
ATOM      6  C   LIG    1        2.723  -8.292   5.230  0.00  0.00    +0.015 A 
ATOM      7  C   LIG    1        3.074  -7.090   5.774  0.00  0.00    +0.029 A 
ATOM      8  C   LIG    1        2.789  -5.908   5.101  0.00  0.00    +0.070 A 
ATOM      9  N   LIG    1        3.014  -4.574   5.378  0.00  0.00    -0.307 N 
ENDROOT
BRANCH   5  10
ATOM     10  C   LIG    1        1.701  -9.653   3.411  0.00  0.00    +0.242 C 
ATOM     11  N   LIG    1        1.984 -10.790   4.076  0.00  0.00    -0.325 N 
ATOM     12  H   LIG    1        1.738 -11.648   3.696  0.00  0.00    +0.145 HD
ATOM     13  H   LIG    1        2.433 -10.751   4.935  0.00  0.00    +0.145 HD
ATOM     14  O   LIG    1        1.137  -9.702   2.335  0.00  0.00    -0.270 OA
ENDBRANCH   5  10
BRANCH   1  15
ATOM     15  N   LIG    1        2.532  -2.474   4.240  0.00  0.00    -0.285 N 
ATOM     16  H   LIG    1        3.007  -1.950   4.903  0.00  0.00    +0.155 HD
BRANCH  15  20
ATOM     17  C   LIG    1        0.569  -0.567   1.095  0.00  0.00    +0.120 A 
ATOM     18  C   LIG    1        0.145  -1.818   1.520  0.00  0.00    +0.047 A 
ATOM     19  C   LIG    1        0.795  -2.450   2.561  0.00  0.00    +0.027 A 
ATOM     20  C   LIG    1        1.873  -1.834   3.183  0.00  0.00    +0.034 A 
ATOM     21  C   LIG    1        2.296  -0.582   2.757  0.00  0.00    +0.027 A 
ATOM     22  C   LIG    1        1.649   0.047   1.712  0.00  0.00    +0.047 A 
BRANCH  17  24
ATOM     23  C   LIG    1       -1.176  -0.635  -0.520  0.00  0.00    +0.277 C 
ATOM     24  O   LIG    1       -0.072   0.055   0.069  0.00  0.00    -0.495 OA
ENDBRANCH  17  24
ENDBRANCH  15  20
ENDBRANCH   1  15
BRANCH   9  25
ATOM     25  C   LIG    1        3.674  -4.034   6.570  0.00  0.00    +0.160 C 
BRANCH  25  26
ATOM     26  C   LIG    1        2.665  -3.892   7.681  0.00  0.00    -0.016 A 
ATOM     27  C   LIG    1        1.330  -4.158   7.440  0.00  0.00    +0.006 A 
ATOM     28  C   LIG    1        0.405  -4.028   8.459  0.00  0.00    +0.000 A 
ATOM     29  C   LIG    1        0.815  -3.632   9.719  0.00  0.00    +0.001 A 
ATOM     30  C   LIG    1        2.150  -3.368   9.959  0.00  0.00    +0.013 A 
ATOM     31  C   LIG    1        3.076  -3.502   8.941  0.00  0.00    +0.060 A 
BRANCH  31  32
ATOM     32  C   LIG    1        4.532  -3.218   9.205  0.00  0.00    +0.418 C 
ATOM     33  F   LIG    1        4.936  -2.111   8.450  0.00  0.00    -0.166 F 
ATOM     34  F   LIG    1        5.297  -4.332   8.844  0.00  0.00    -0.166 F 
ATOM     35  F   LIG    1        4.716  -2.947  10.565  0.00  0.00    -0.166 F 
ENDBRANCH  31  32
ENDBRANCH  25  26
ENDBRANCH   9  25
TORSDOF 7
