REMARK  Name = ZINC00023994
REMARK                            x       y       z     vdW  Elec       q    Type
REMARK                         _______ _______ _______ _____ _____    ______ ____
ROOT
ATOM      1  C   LIG    1       -0.804   1.986  -1.115  0.00  0.00    +0.013 C 
ENDROOT
BRANCH   1   5
ATOM      2  C   LIG    1        2.133   0.035   1.302  0.00  0.00    -0.010 C 
ATOM      3  C   LIG    1        0.704  -0.513   1.263  0.00  0.00    -0.015 C 
ATOM      4  C   LIG    1        0.002  -0.004   0.002  0.00  0.00    -0.077 C 
ATOM      5  N   LIG    1       -0.032   1.474   0.035  0.00  0.00    +0.387 N 
ATOM      6  H   LIG    1       -0.487   1.777   0.904  0.00  0.00    -0.080 HD
ATOM      7  C   LIG    1        1.344   2.014   0.000  0.00  0.00    -0.077 C 
ATOM      8  C   LIG    1        2.086   1.565   1.261  0.00  0.00    -0.015 C 
BRANCH   2   9
ATOM      9  C   LIG    1        2.821  -0.422   2.591  0.00  0.00    +0.038 C 
BRANCH   9  13
ATOM     10  C   LIG    1        6.910   0.813   2.538  0.00  0.00    +0.000 A 
ATOM     11  C   LIG    1        5.944   1.644   3.074  0.00  0.00    +0.000 A 
ATOM     12  C   LIG    1        4.620   1.244   3.091  0.00  0.00    +0.003 A 
ATOM     13  C   LIG    1        4.263   0.014   2.572  0.00  0.00    -0.047 A 
ATOM     14  C   LIG    1        5.230  -0.819   2.040  0.00  0.00    +0.003 A 
ATOM     15  C   LIG    1        6.553  -0.417   2.019  0.00  0.00    +0.000 A 
ENDBRANCH   9  13
ENDBRANCH   2   9
ENDBRANCH   1   5
BRANCH   1  16
ATOM     16  C   LIG    1       -1.004   3.435  -0.944  0.00  0.00    -0.116 C 
ATOM     17  C   LIG    1       -1.164   4.590  -0.808  0.00  0.00    -0.068 C 
BRANCH  17  18
ATOM     18  C   LIG    1       -1.358   5.999  -0.641  0.00  0.00    +0.027 A 
ATOM     19  C   LIG    1       -2.083   6.721  -1.593  0.00  0.00    +0.019 A 
ATOM     20  C   LIG    1       -2.271   8.077  -1.436  0.00  0.00    +0.029 A 
ATOM     21  C   LIG    1       -1.742   8.729  -0.330  0.00  0.00    +0.067 A 
ATOM     22  C   LIG    1       -1.018   8.011   0.626  0.00  0.00    +0.068 A 
ATOM     23  N   LIG    1       -0.622   8.925   1.601  0.00  0.00    -0.306 N 
ATOM     24  C   LIG    1       -1.085  10.141   1.254  0.00  0.00    +0.325 A 
ATOM     25  O   LIG    1       -0.916  11.163   1.892  0.00  0.00    -0.247 OA
ATOM     26  H   LIG    1       -0.103   8.721   2.394  0.00  0.00    +0.170 HD
ATOM     27  N   LIG    1       -1.764  10.055   0.095  0.00  0.00    -0.306 N 
ATOM     28  H   LIG    1       -2.195  10.791  -0.367  0.00  0.00    +0.170 HD
ATOM     29  C   LIG    1       -0.830   6.649   0.473  0.00  0.00    +0.044 A 
ENDBRANCH  17  18
ENDBRANCH   1  16
TORSDOF 5
