REMARK  Name = ZINC16155529
REMARK                            x       y       z     vdW  Elec       q    Type
REMARK                         _______ _______ _______ _____ _____    ______ ____
ROOT
ATOM      1  C   LIG    1       -0.017   1.375   0.010  0.00  0.00    +0.001 A 
ATOM      2  C   LIG    1        1.172   2.089   0.002  0.00  0.00    +0.002 A 
ATOM      3  C   LIG    1        2.385   1.434  -0.013  0.00  0.00    +0.026 A 
ATOM      4  C   LIG    1        2.424   0.044  -0.021  0.00  0.00    +0.051 A 
ATOM      5  C   LIG    1        1.221  -0.677  -0.013  0.00  0.00    +0.031 A 
ATOM      6  C   LIG    1        1.598  -2.104  -0.025  0.00  0.00    +0.152 A 
ATOM      7  C   LIG    1        2.991  -2.137  -0.038  0.00  0.00    +0.219 A 
ATOM      8  N   LIG    1        3.467  -0.867  -0.036  0.00  0.00    -0.324 N 
ATOM      9  H   LIG    1        4.407  -0.629  -0.045  0.00  0.00    +0.169 HD
ATOM     10  C   LIG    1        0.002  -0.004   0.002  0.00  0.00    +0.012 A 
ENDROOT
BRANCH   6  11
ATOM     11  N   LIG    1        0.767  -3.158  -0.021  0.00  0.00    -0.166 NA
ATOM     12  N   LIG    1        1.244  -4.356  -0.033  0.00  0.00    -0.255 N 
ATOM     13  H   LIG    1        2.204  -4.495  -0.043  0.00  0.00    +0.191 HD
BRANCH  12  14
ATOM     14  C   LIG    1        0.402  -5.424  -0.030  0.00  0.00    +0.172 C 
ATOM     15  N   LIG    1       -0.892  -5.236  -0.015  0.00  0.00    -0.277 NA
ATOM     16  H   LIG    1       -1.493  -5.997  -0.013  0.00  0.00    +0.189 HD
BRANCH  14  17
ATOM     17  S   LIG    1        1.054  -7.061  -0.045  0.00  0.00    -0.105 S 
ATOM     18  H   LIG    1        2.413  -7.007  -0.059  0.00  0.00    +0.110 HD
ENDBRANCH  14  17
ENDBRANCH  12  14
ENDBRANCH   6  11
BRANCH   7  19
ATOM     19  O   LIG    1        3.747  -3.256  -0.051  0.00  0.00    -0.492 OA
ATOM     20  H   LIG    1        3.958  -3.578  -0.939  0.00  0.00    +0.294 HD
ENDBRANCH   7  19
TORSDOF 4
