REMARK  Name = ZINC13813812
REMARK                            x       y       z     vdW  Elec       q    Type
REMARK                         _______ _______ _______ _____ _____    ______ ____
ROOT
ATOM      1  C   LIG    1        0.626  -0.618   1.042  0.00  0.00    +0.120 A 
ATOM      2  C   LIG    1        1.202   0.138   2.051  0.00  0.00    +0.047 A 
ATOM      3  C   LIG    1        1.835  -0.488   3.107  0.00  0.00    +0.032 A 
ATOM      4  C   LIG    1        1.895  -1.869   3.158  0.00  0.00    +0.108 A 
ATOM      5  C   LIG    1        1.322  -2.625   2.152  0.00  0.00    +0.032 A 
ATOM      6  C   LIG    1        0.682  -2.003   1.098  0.00  0.00    +0.047 A 
ENDROOT
BRANCH   4   7
ATOM      7  S   LIG    1        2.704  -2.665   4.505  0.00  0.00    +0.080 S 
ATOM      8  O   LIG    1        3.632  -1.728   5.033  0.00  0.00    -0.151 OA
ATOM      9  O   LIG    1        3.098  -3.949   4.041  0.00  0.00    -0.151 OA
BRANCH   7  10
ATOM     10  N   LIG    1        1.565  -2.916   5.681  0.00  0.00    -0.071 NA
ATOM     11  H   LIG    1        1.640  -2.462   6.535  0.00  0.00    +0.181 HD
BRANCH  10  12
ATOM     12  O   LIG    1        0.480  -3.794   5.439  0.00  0.00    -0.295 OA
ATOM     13  H   LIG    1       -0.133  -3.876   6.183  0.00  0.00    +0.238 HD
ENDBRANCH  10  12
ENDBRANCH   7  10
ENDBRANCH   4   7
BRANCH   1  15
ATOM     14  C   LIG    1       -0.017   1.425   0.010  0.00  0.00    +0.277 C 
ATOM     15  O   LIG    1        0.002  -0.004   0.002  0.00  0.00    -0.495 OA
ENDBRANCH   1  15
TORSDOF 4
