REMARK  Name = ZINC64470290
REMARK                            x       y       z     vdW  Elec       q    Type
REMARK                         _______ _______ _______ _____ _____    ______ ____
ROOT
ATOM      1  C   LIG    1        1.238  -2.581   2.465  0.00  0.00    -0.043 A 
ATOM      2  C   LIG    1        2.558  -2.978   2.360  0.00  0.00    +0.007 A 
ATOM      3  C   LIG    1        3.225  -3.471   3.465  0.00  0.00    +0.049 A 
ATOM      4  C   LIG    1        2.571  -3.568   4.683  0.00  0.00    +0.161 A 
ATOM      5  C   LIG    1        1.242  -3.167   4.789  0.00  0.00    +0.162 A 
ATOM      6  C   LIG    1        0.581  -2.669   3.678  0.00  0.00    +0.053 A 
ENDROOT
BRANCH   4   7
ATOM      7  O   LIG    1        3.225  -4.053   5.772  0.00  0.00    -0.491 OA
ATOM      8  C   LIG    1        4.587  -4.446   5.588  0.00  0.00    +0.277 C 
ENDBRANCH   4   7
BRANCH   5   9
ATOM      9  O   LIG    1        0.596  -3.260   5.982  0.00  0.00    -0.491 OA
ATOM     10  C   LIG    1       -0.766  -2.830   6.017  0.00  0.00    +0.277 C 
ENDBRANCH   5   9
BRANCH   1  11
ATOM     11  C   LIG    1        0.516  -2.044   1.256  0.00  0.00    +0.049 C 
BRANCH  11  12
ATOM     12  C   LIG    1        0.706  -0.527   1.180  0.00  0.00    +0.070 C 
BRANCH  12  14
ATOM     13  C   LIG    1       -0.018   1.465   0.010  0.00  0.00    +0.084 C 
ATOM     14  N   LIG    1        0.002  -0.004   0.002  0.00  0.00    -0.358 NA
BRANCH  14  15
ATOM     15  N   LIG    1        0.594  -0.510  -1.226  0.00  0.00    +0.389 N 
ATOM     16  H   LIG    1        0.093  -0.137  -2.019  0.00  0.00    -0.065 HD
ATOM     17  H   LIG    1        0.537  -1.518  -1.236  0.00  0.00    -0.065 HD
ATOM     18  H   LIG    1        1.561  -0.228  -1.275  0.00  0.00    -0.065 HD
ENDBRANCH  14  15
ENDBRANCH  12  14
ENDBRANCH  11  12
ENDBRANCH   1  11
TORSDOF 6
