REMARK  Name = ZINC15118974
REMARK                            x       y       z     vdW  Elec       q    Type
REMARK                         _______ _______ _______ _____ _____    ______ ____
ROOT
ATOM      1  C   LIG    1       -0.013   1.076   0.008  0.00  0.00    +0.004 A 
ATOM      2  C   LIG    1        1.173   1.779   0.000  0.00  0.00    +0.015 A 
ATOM      3  C   LIG    1        1.150   3.174   0.008  0.00  0.00    +0.068 A 
ATOM      4  C   LIG    1        2.406   3.952   0.000  0.00  0.00    +0.204 A 
ATOM      5  C   LIG    1        2.278   5.420   0.009  0.00  0.00    +0.106 A 
ATOM      6  C   LIG    1        3.413   6.241   0.003  0.00  0.00    +0.131 A 
ATOM      7  C   LIG    1        3.258   7.617   0.011  0.00  0.00    +0.046 A 
ATOM      8  C   LIG    1        1.990   8.173   0.026  0.00  0.00    +0.007 A 
ATOM      9  C   LIG    1        0.867   7.372   0.032  0.00  0.00    +0.047 A 
ATOM     10  C   LIG    1        0.994   5.988   0.024  0.00  0.00    +0.143 A 
ATOM     11  O   LIG    1       -0.109   5.211   0.030  0.00  0.00    -0.451 OA
ATOM     12  O   LIG    1        3.495   3.406  -0.012  0.00  0.00    -0.286 OA
ATOM     13  C   LIG    1       -0.071   3.863   0.023  0.00  0.00    +0.180 A 
ATOM     14  C   LIG    1       -1.260   3.132   0.029  0.00  0.00    +0.160 A 
ATOM     15  C   LIG    1       -1.224   1.750   0.017  0.00  0.00    +0.049 A 
ENDROOT
BRANCH   6  16
ATOM     16  O   LIG    1        4.653   5.692  -0.011  0.00  0.00    -0.506 OA
ATOM     17  H   LIG    1        5.005   5.537  -0.898  0.00  0.00    +0.292 HD
ENDBRANCH   6  16
BRANCH  14  18
ATOM     18  O   LIG    1       -2.456   3.780   0.044  0.00  0.00    -0.503 OA
ATOM     19  H   LIG    1       -2.810   3.973  -0.835  0.00  0.00    +0.292 HD
ENDBRANCH  14  18
TORSDOF 2
