REMARK  Name = ZINC29045652
REMARK                            x       y       z     vdW  Elec       q    Type
REMARK                         _______ _______ _______ _____ _____    ______ ____
ROOT
ATOM      1  C   LIG    1        3.824  -2.097  -0.157  0.00  0.00    -0.040 C 
ENDROOT
BRANCH   1   2
ATOM      2  N   LIG    1        4.047  -1.532  -1.494  0.00  0.00    +0.382 N 
ATOM      3  H   LIG    1        3.141  -0.980  -1.785  0.00  0.00    -0.081 HD
ATOM      4  C   LIG    1        4.262  -2.593  -2.485  0.00  0.00    -0.078 C 
ATOM      5  C   LIG    1        4.346  -1.978  -3.884  0.00  0.00    -0.015 C 
ATOM      6  C   LIG    1        5.500  -0.973  -3.926  0.00  0.00    -0.010 C 
ATOM      7  C   LIG    1        5.276   0.095  -2.852  0.00  0.00    -0.015 C 
ATOM      8  C   LIG    1        5.166  -0.580  -1.483  0.00  0.00    -0.078 C 
BRANCH   6   9
ATOM      9  C   LIG    1        5.552  -0.309  -5.304  0.00  0.00    +0.038 C 
BRANCH   9  10
ATOM     10  C   LIG    1        5.894  -1.343  -6.346  0.00  0.00    -0.047 A 
ATOM     11  C   LIG    1        7.215  -1.583  -6.674  0.00  0.00    +0.003 A 
ATOM     12  C   LIG    1        7.529  -2.533  -7.627  0.00  0.00    +0.000 A 
ATOM     13  C   LIG    1        6.522  -3.237  -8.260  0.00  0.00    +0.000 A 
ATOM     14  C   LIG    1        5.200  -2.994  -7.935  0.00  0.00    +0.000 A 
ATOM     15  C   LIG    1        4.886  -2.046  -6.979  0.00  0.00    +0.003 A 
ENDBRANCH   9  10
ENDBRANCH   6   9
ENDBRANCH   1   2
BRANCH   1  17
ATOM     16  C   LIG    1        2.538  -4.182  -0.380  0.00  0.00    +0.014 C 
ATOM     17  C   LIG    1        2.531  -2.871  -0.148  0.00  0.00    -0.024 C 
BRANCH  17  18
ATOM     18  C   LIG    1        1.262  -2.178   0.117  0.00  0.00    +0.187 C 
ATOM     19  O   LIG    1        0.222  -2.807   0.152  0.00  0.00    -0.287 OA
BRANCH  18  20
ATOM     20  C   LIG    1        1.250  -0.717   0.341  0.00  0.00    +0.022 A 
ATOM     21  C   LIG    1        0.474  -0.171   1.366  0.00  0.00    +0.014 A 
ATOM     22  C   LIG    1        0.468   1.193   1.569  0.00  0.00    +0.033 A 
ATOM     23  C   LIG    1        1.229   2.020   0.761  0.00  0.00    +0.122 A 
ATOM     24  C   LIG    1        2.000   1.486  -0.256  0.00  0.00    +0.033 A 
ATOM     25  C   LIG    1        2.015   0.123  -0.470  0.00  0.00    +0.014 A 
BRANCH  23  26
ATOM     26  N   LIG    1        1.217   3.483   0.986  0.00  0.00    +0.006 N 
ATOM     27  O   LIG    1        0.539   3.957   1.881  0.00  0.00    -0.130 OA
BRANCH  26  28
ATOM     28  O   LIG    1        1.885   4.214   0.277  0.00  0.00    -0.396 OA
ATOM     29  H   LIG    1        2.407   3.849  -0.411  0.00  0.00    +0.329 HD
ENDBRANCH  26  28
ENDBRANCH  23  26
ENDBRANCH  18  20
ENDBRANCH  17  18
ENDBRANCH   1  17
TORSDOF 8
