REMARK  Name = ZINC32785912
REMARK                            x       y       z     vdW  Elec       q    Type
REMARK                         _______ _______ _______ _____ _____    ______ ____
ROOT
ATOM      1  C   LIG    1       -2.234   1.016  -1.020  0.00  0.00    +0.125 C 
ENDROOT
BRANCH   1   2
ATOM      2  O   LIG    1       -2.236  -0.412  -1.060  0.00  0.00    -0.389 OA
ATOM      3  H   LIG    1       -1.827  -0.939  -1.934  0.00  0.00    +0.210 HD
ENDBRANCH   1   2
BRANCH   1   5
ATOM      4  C   LIG    1       -3.915   2.240   0.260  0.00  0.00    -0.029 C 
ATOM      5  C   LIG    1       -2.845   1.484   0.275  0.00  0.00    -0.002 C 
BRANCH   4   6
ATOM      6  C   LIG    1       -4.526   2.707   1.556  0.00  0.00    +0.027 C 
BRANCH   6   7
ATOM      7  C   LIG    1       -4.638   4.233   1.545  0.00  0.00    +0.004 C 
BRANCH   7   8
ATOM      8  C   LIG    1       -5.258   4.708   2.861  0.00  0.00    +0.000 C 
BRANCH   8   9
ATOM      9  C   LIG    1       -5.370   6.234   2.850  0.00  0.00    +0.000 C 
BRANCH   9  10
ATOM     10  C   LIG    1       -5.990   6.709   4.166  0.00  0.00    +0.000 C 
BRANCH  10  11
ATOM     11  C   LIG    1       -6.101   8.235   4.156  0.00  0.00    +0.000 C 
BRANCH  11  12
ATOM     12  C   LIG    1       -6.722   8.710   5.471  0.00  0.00    -0.000 C 
BRANCH  12  13
ATOM     13  C   LIG    1       -6.833  10.236   5.461  0.00  0.00    -0.000 C 
BRANCH  13  14
ATOM     14  C   LIG    1       -7.454  10.711   6.776  0.00  0.00    -0.000 C 
BRANCH  14  15
ATOM     15  C   LIG    1       -7.565  12.237   6.766  0.00  0.00    -0.000 C 
BRANCH  15  16
ATOM     16  C   LIG    1       -8.185  12.712   8.081  0.00  0.00    -0.000 C 
BRANCH  16  18
ATOM     17  C   LIG    1       -8.917  14.713   9.386  0.00  0.00    +0.004 C 
ATOM     18  C   LIG    1       -8.297  14.238   8.071  0.00  0.00    -0.003 C 
ENDBRANCH  16  18
ENDBRANCH  15  16
ENDBRANCH  14  15
ENDBRANCH  13  14
ENDBRANCH  12  13
ENDBRANCH  11  12
ENDBRANCH  10  11
ENDBRANCH   9  10
ENDBRANCH   8   9
ENDBRANCH   7   8
ENDBRANCH   6   7
ENDBRANCH   4   6
ENDBRANCH   1   5
BRANCH   1  19
ATOM     19  C   LIG    1       -0.795   1.527  -1.120  0.00  0.00    -0.015 C 
BRANCH  19  20
ATOM     20  N   LIG    1       -0.012   1.005   0.008  0.00  0.00    +0.383 N 
ATOM     21  H   LIG    1       -0.457   1.346   0.954  0.00  0.00    -0.089 HD
ATOM     22  H   LIG    1       -0.013  -0.095  -0.023  0.00  0.00    -0.089 HD
ATOM     23  H   LIG    1        1.023   1.372  -0.064  0.00  0.00    -0.089 HD
ENDBRANCH  19  20
BRANCH  19  24
ATOM     24  C   LIG    1       -0.175   1.052  -2.435  0.00  0.00    +0.159 C 
BRANCH  24  25
ATOM     25  O   LIG    1        1.126   1.624  -2.583  0.00  0.00    -0.288 OA
BRANCH  25  26
ATOM     26  P   LIG    1        2.070   1.339  -3.855  0.00  0.00    +0.472 P 
ATOM     27  O   LIG    1        1.339   1.677  -5.097  0.00  0.00    -0.228 OA
BRANCH  26  28
ATOM     28  O   LIG    1        3.398   2.244  -3.752  0.00  0.00    -0.303 OA
ATOM     29  H   LIG    1        3.150   3.181  -3.736  0.00  0.00    +0.222 HD
ENDBRANCH  26  28
BRANCH  26  30
ATOM     30  O   LIG    1        2.481  -0.217  -3.881  0.00  0.00    -0.303 OA
ATOM     31  H   LIG    1        1.681  -0.762  -3.943  0.00  0.00    +0.222 HD
ENDBRANCH  26  30
ENDBRANCH  25  26
ENDBRANCH  24  25
ENDBRANCH  19  24
ENDBRANCH   1  19
TORSDOF 21
