REMARK  Name = ZINC32500347
REMARK                            x       y       z     vdW  Elec       q    Type
REMARK                         _______ _______ _______ _____ _____    ______ ____
ROOT
ATOM      1  C   LIG    1        4.118  -2.379  -6.606  0.00  0.00    +0.022 A 
ATOM      2  C   LIG    1        3.995  -1.697  -5.416  0.00  0.00    +0.027 A 
ATOM      3  C   LIG    1        2.824  -1.808  -4.673  0.00  0.00    +0.047 A 
ATOM      4  C   LIG    1        1.776  -2.620  -5.149  0.00  0.00    +0.002 A 
ATOM      5  C   LIG    1        0.731  -2.546  -4.196  0.00  0.00    +0.041 A 
ATOM      6  C   LIG    1        1.137  -1.717  -3.199  0.00  0.00    +0.103 A 
ATOM      7  C   LIG    1        1.925  -3.304  -6.362  0.00  0.00    +0.030 A 
ATOM      8  N   LIG    1        2.413  -1.265  -3.478  0.00  0.00    -0.351 N 
ATOM      9  H   LIG    1        3.080  -0.590  -2.922  0.00  0.00    +0.166 HD
ATOM     10  C   LIG    1        3.083  -3.179  -7.074  0.00  0.00    +0.042 A 
ATOM     11 CL   LIG    1        3.264  -4.028  -8.578  0.00  0.00    -0.084 Cl
ENDROOT
BRANCH   6  12
ATOM     12  C   LIG    1        0.348  -1.363  -2.010  0.00  0.00    +0.263 C 
ATOM     13  N   LIG    1        0.544  -0.177  -1.400  0.00  0.00    -0.300 N 
ATOM     14  C   LIG    1       -0.238   0.200  -0.213  0.00  0.00    +0.089 C 
ATOM     15  C   LIG    1       -0.838   1.591  -0.446  0.00  0.00    -0.063 C 
ATOM     16  N   LIG    1        0.234   2.528  -0.807  0.00  0.00    +0.381 N 
ATOM     17  H   LIG    1        0.998   2.535  -0.015  0.00  0.00    -0.086 HD
ATOM     18  H   LIG    1       -0.185   3.539  -0.920  0.00  0.00    -0.086 HD
ATOM     19  C   LIG    1        0.875   2.143  -2.071  0.00  0.00    -0.063 C 
ATOM     20  C   LIG    1        1.545   0.775  -1.905  0.00  0.00    +0.089 C 
ATOM     21  O   LIG    1       -0.482  -2.139  -1.577  0.00  0.00    -0.268 OA
ENDBRANCH   6  12
TORSDOF 1
