REMARK  Name = ZINC19685795
REMARK                            x       y       z     vdW  Elec       q    Type
REMARK                         _______ _______ _______ _____ _____    ______ ____
ROOT
ATOM      1  C   LIG    1       -0.115  -3.644  -0.577  0.00  0.00    +0.337 C 
ATOM      2  O   LIG    1        1.039  -3.983  -0.760  0.00  0.00    -0.245 OA
ENDROOT
BRANCH   1   7
ATOM      3  C   LIG    1       -2.111   1.558   0.433  0.00  0.00    +0.061 C 
ATOM      4  C   LIG    1       -1.392   0.254   0.205  0.00  0.00    +0.016 C 
ATOM      5  C   LIG    1       -0.944  -0.451   1.259  0.00  0.00    +0.065 C 
ATOM      6  C   LIG    1       -0.214  -1.751   1.079  0.00  0.00    +0.096 C 
ATOM      7  C   LIG    1       -0.420  -2.290  -0.308  0.00  0.00    +0.065 C 
ATOM      8  C   LIG    1       -0.889  -1.512  -1.299  0.00  0.00    +0.016 C 
ATOM      9  C   LIG    1       -1.071  -2.093  -2.678  0.00  0.00    +0.061 C 
ATOM     10  N   LIG    1       -1.207  -0.202  -1.072  0.00  0.00    -0.321 N 
ATOM     11  H   LIG    1       -1.298   0.408  -1.820  0.00  0.00    +0.152 HD
BRANCH   6  12
ATOM     12  C   LIG    1        1.258  -1.530   1.311  0.00  0.00    -0.033 A 
ATOM     13  C   LIG    1        1.955  -0.634   0.521  0.00  0.00    +0.005 A 
ATOM     14  C   LIG    1        3.306  -0.431   0.733  0.00  0.00    +0.003 A 
ATOM     15  C   LIG    1        3.960  -1.123   1.736  0.00  0.00    +0.032 A 
ATOM     16  C   LIG    1        3.263  -2.018   2.526  0.00  0.00    +0.122 A 
ATOM     17  C   LIG    1        1.911  -2.218   2.316  0.00  0.00    +0.037 A 
BRANCH  16  18
ATOM     18  N   LIG    1        3.963  -2.759   3.598  0.00  0.00    +0.006 N 
ATOM     19  O   LIG    1        5.145  -2.582   3.783  0.00  0.00    -0.130 OA
BRANCH  18  20
ATOM     20  O   LIG    1        3.354  -3.542   4.289  0.00  0.00    -0.396 OA
ATOM     21  H   LIG    1        2.438  -3.679   4.146  0.00  0.00    +0.329 HD
ENDBRANCH  18  20
ENDBRANCH  16  18
ENDBRANCH   6  12
BRANCH   5  22
ATOM     22  C   LIG    1       -1.166   0.044   2.565  0.00  0.00    +0.337 C 
ATOM     23  O   LIG    1       -1.755   1.096   2.726  0.00  0.00    -0.245 OA
BRANCH  22  24
ATOM     24  O   LIG    1       -0.723  -0.652   3.634  0.00  0.00    -0.465 OA
ATOM     25  C   LIG    1       -0.981  -0.093   4.924  0.00  0.00    +0.280 C 
ENDBRANCH  22  24
ENDBRANCH   5  22
ENDBRANCH   1   7
BRANCH   1  26
ATOM     26  O   LIG    1       -1.104  -4.561  -0.630  0.00  0.00    -0.463 OA
BRANCH  26  27
ATOM     27  C   LIG    1       -0.723  -5.910  -0.906  0.00  0.00    +0.214 C 
BRANCH  27  28
ATOM     28  C   LIG    1       -1.969  -6.798  -0.927  0.00  0.00    -0.037 C 
BRANCH  28  29
ATOM     29  N   LIG    1       -2.848  -6.383  -2.029  0.00  0.00    +0.384 N 
ATOM     30  H   LIG    1       -3.037  -5.395  -1.954  0.00  0.00    -0.082 HD
ATOM     31  C   LIG    1       -4.110  -7.130  -1.955  0.00  0.00    -0.063 C 
ATOM     32  C   LIG    1       -5.033  -6.685  -3.092  0.00  0.00    +0.067 C 
ATOM     33  N   LIG    1       -4.372  -6.932  -4.381  0.00  0.00    -0.295 NA
ATOM     34  C   LIG    1       -3.094  -6.210  -4.459  0.00  0.00    +0.067 C 
ATOM     35  C   LIG    1       -2.187  -6.659  -3.311  0.00  0.00    -0.063 C 
BRANCH  33  36
ATOM     36  C   LIG    1       -5.251  -6.569  -5.501  0.00  0.00    +0.117 C 
BRANCH  36  37
ATOM     37  C   LIG    1       -6.511  -7.394  -5.438  0.00  0.00    -0.026 A 
ATOM     38  C   LIG    1       -6.447  -8.728  -5.084  0.00  0.00    +0.005 A 
ATOM     39  C   LIG    1       -7.603  -9.485  -5.027  0.00  0.00    +0.000 A 
ATOM     40  C   LIG    1       -8.822  -8.906  -5.323  0.00  0.00    +0.000 A 
ATOM     41  C   LIG    1       -8.887  -7.571  -5.676  0.00  0.00    +0.000 A 
ATOM     42  C   LIG    1       -7.731  -6.814  -5.729  0.00  0.00    +0.005 A 
ENDBRANCH  36  37
BRANCH  36  43
ATOM     43  C   LIG    1       -4.541  -6.836  -6.803  0.00  0.00    -0.026 A 
ATOM     44  C   LIG    1       -3.769  -7.973  -6.950  0.00  0.00    +0.005 A 
ATOM     45  C   LIG    1       -3.118  -8.217  -8.144  0.00  0.00    +0.000 A 
ATOM     46  C   LIG    1       -3.238  -7.324  -9.192  0.00  0.00    +0.000 A 
ATOM     47  C   LIG    1       -4.011  -6.188  -9.046  0.00  0.00    +0.000 A 
ATOM     48  C   LIG    1       -4.665  -5.945  -7.853  0.00  0.00    +0.005 A 
ENDBRANCH  36  43
ENDBRANCH  33  36
ENDBRANCH  28  29
ENDBRANCH  27  28
ENDBRANCH  26  27
ENDBRANCH   1  26
TORSDOF 13
