REMARK  Name = ZINC36176941
REMARK                            x       y       z     vdW  Elec       q    Type
REMARK                         _______ _______ _______ _____ _____    ______ ____
ROOT
ATOM      1  C   LIG    1        5.191  -4.038  -0.030  0.00  0.00    +0.035 A 
ATOM      2  C   LIG    1        3.995  -4.732  -0.170  0.00  0.00    +0.024 A 
ATOM      3  C   LIG    1        3.992  -6.110  -0.166  0.00  0.00    +0.010 A 
ATOM      4  C   LIG    1        5.191  -6.809  -0.024  0.00  0.00    -0.017 A 
ATOM      5  C   LIG    1        6.390  -6.109   0.115  0.00  0.00    +0.010 A 
ATOM      6  C   LIG    1        6.388  -4.731   0.107  0.00  0.00    +0.024 A 
ENDROOT
BRANCH   4   7
ATOM      7  C   LIG    1        5.191  -8.290  -0.019  0.00  0.00    -0.005 A 
ATOM      8  C   LIG    1        4.652  -8.993  -1.088  0.00  0.00    +0.009 A 
ATOM      9  C   LIG    1        4.652 -10.379  -1.085  0.00  0.00    +0.003 A 
ATOM     10  C   LIG    1        5.184 -11.082  -0.027  0.00  0.00    +0.028 A 
ATOM     11  C   LIG    1        5.732 -10.403   1.060  0.00  0.00    +0.068 A 
ATOM     12  N   LIG    1        6.320 -10.810   2.230  0.00  0.00    -0.275 N 
ATOM     13  H   LIG    1        6.455 -11.731   2.501  0.00  0.00    +0.189 HD
ATOM     14  N   LIG    1        6.710  -9.684   2.963  0.00  0.00    -0.158 NA
ATOM     15  C   LIG    1        6.382  -8.595   2.318  0.00  0.00    +0.146 A 
ATOM     16  C   LIG    1        5.744  -8.997   1.066  0.00  0.00    +0.049 A 
BRANCH  15  17
ATOM     17  N   LIG    1        6.603  -7.284   2.747  0.00  0.00    -0.341 N 
ATOM     18  H   LIG    1        7.148  -7.116   3.532  0.00  0.00    +0.144 HD
ATOM     19  H   LIG    1        6.212  -6.541   2.261  0.00  0.00    +0.144 HD
ENDBRANCH  15  17
ENDBRANCH   4   7
BRANCH   1  23
ATOM     20  N   LIG    1        4.101  -0.621   0.398  0.00  0.00    -0.269 N 
ATOM     21  H   LIG    1        4.776  -0.145  -0.111  0.00  0.00    +0.156 HD
ATOM     22  C   LIG    1        4.150  -1.964   0.492  0.00  0.00    +0.308 C 
ATOM     23  N   LIG    1        5.191  -2.639  -0.034  0.00  0.00    -0.269 N 
ATOM     24  H   LIG    1        5.940  -2.155  -0.415  0.00  0.00    +0.156 HD
ATOM     25  O   LIG    1        3.255  -2.567   1.052  0.00  0.00    -0.252 OA
BRANCH  20  29
ATOM     26  C   LIG    1        1.053   1.492   2.296  0.00  0.00    +0.000 A 
ATOM     27  C   LIG    1        1.549   0.334   2.866  0.00  0.00    +0.002 A 
ATOM     28  C   LIG    1        2.559  -0.368   2.240  0.00  0.00    +0.023 A 
ATOM     29  C   LIG    1        3.077   0.089   1.035  0.00  0.00    +0.035 A 
ATOM     30  C   LIG    1        2.577   1.252   0.465  0.00  0.00    +0.023 A 
ATOM     31  C   LIG    1        1.567   1.950   1.096  0.00  0.00    +0.002 A 
ENDBRANCH  20  29
ENDBRANCH   1  23
TORSDOF 4
