REMARK  Name = ZINC14962105
REMARK                            x       y       z     vdW  Elec       q    Type
REMARK                         _______ _______ _______ _____ _____    ______ ____
ROOT
ATOM      1  C   LIG    1        3.513  -0.881   0.026  0.00  0.00    +0.050 A 
ATOM      2  C   LIG    1        4.648  -0.171  -0.241  0.00  0.00    +0.028 A 
ATOM      3  C   LIG    1        5.708  -1.080  -0.323  0.00  0.00    +0.028 A 
ATOM      4  C   LIG    1        5.199  -2.328  -0.104  0.00  0.00    +0.050 A 
ATOM      5  N   LIG    1        3.851  -2.207   0.116  0.00  0.00    -0.329 N 
ENDROOT
BRANCH   1   9
ATOM      6  C   LIG    1       -0.383   0.738   0.511  0.00  0.00    +0.000 A 
ATOM      7  C   LIG    1       -0.227  -0.602   0.203  0.00  0.00    +0.001 A 
ATOM      8  C   LIG    1        1.035  -1.134   0.044  0.00  0.00    +0.010 A 
ATOM      9  C   LIG    1        2.158  -0.318   0.194  0.00  0.00    -0.001 A 
ATOM     10  C   LIG    1        1.993   1.034   0.505  0.00  0.00    +0.010 A 
ATOM     11  C   LIG    1        0.725   1.553   0.661  0.00  0.00    +0.001 A 
ENDBRANCH   1   9
BRANCH   4  12
ATOM     12  C   LIG    1        5.969  -3.589  -0.100  0.00  0.00    -0.001 A 
ATOM     13  C   LIG    1        5.321  -4.806  -0.321  0.00  0.00    +0.010 A 
ATOM     14  C   LIG    1        6.046  -5.980  -0.315  0.00  0.00    +0.001 A 
ATOM     15  C   LIG    1        7.411  -5.954  -0.091  0.00  0.00    +0.000 A 
ATOM     16  C   LIG    1        8.059  -4.751   0.129  0.00  0.00    +0.001 A 
ATOM     17  C   LIG    1        7.347  -3.569   0.120  0.00  0.00    +0.010 A 
ENDBRANCH   4  12
BRANCH   5  18
ATOM     18  C   LIG    1        2.927  -3.308   0.398  0.00  0.00    +0.239 C 
BRANCH  18  19
ATOM     19  C   LIG    1        2.349  -3.823  -0.895  0.00  0.00    +0.329 C 
ATOM     20  O   LIG    1        2.678  -3.318  -1.951  0.00  0.00    -0.252 OA
BRANCH  19  21
ATOM     21  N   LIG    1        1.479  -4.830  -0.882  0.00  0.00    -0.003 NA
ATOM     22  C   LIG    1        1.690  -5.899  -1.640  0.00  0.00    +0.375 C 
BRANCH  22  23
ATOM     23  N   LIG    1        0.748  -6.881  -1.709  0.00  0.00    -0.291 N 
ATOM     24  H   LIG    1        0.902  -7.662  -2.263  0.00  0.00    +0.254 HD
ATOM     25  H   LIG    1       -0.076  -6.799  -1.205  0.00  0.00    +0.254 HD
ENDBRANCH  22  23
BRANCH  22  26
ATOM     26  N   LIG    1        2.848  -6.015  -2.348  0.00  0.00    -0.291 N 
ATOM     27  H   LIG    1        2.970  -6.756  -2.961  0.00  0.00    +0.254 HD
ATOM     28  H   LIG    1        3.551  -5.355  -2.239  0.00  0.00    +0.254 HD
ENDBRANCH  22  26
ENDBRANCH  19  21
ENDBRANCH  18  19
ENDBRANCH   5  18
TORSDOF 7
