REMARK  Name = ZINC26579302
REMARK                            x       y       z     vdW  Elec       q    Type
REMARK                         _______ _______ _______ _____ _____    ______ ____
ROOT
ATOM      1  C   LIG    1        2.410   3.937   0.001  0.00  0.00    +0.042 C 
ATOM      2  C   LIG    1        2.861   4.758  -0.988  0.00  0.00    +0.076 C 
ATOM      3  C   LIG    1        4.158   5.314  -0.591  0.00  0.00    +0.343 C 
ATOM      4  O   LIG    1        4.510   4.849   0.622  0.00  0.00    -0.427 OA
ATOM      5  O   LIG    1        4.821   6.082  -1.260  0.00  0.00    -0.245 OA
ATOM      6  C   LIG    1        3.455   3.964   1.092  0.00  0.00    +0.342 C 
ENDROOT
BRANCH   1  10
ATOM      7  C   LIG    1       -1.222   1.750   0.017  0.00  0.00    +0.088 A 
ATOM      8  C   LIG    1       -0.013   1.076   0.008  0.00  0.00    +0.027 A 
ATOM      9  C   LIG    1        1.173   1.779   0.000  0.00  0.00    +0.010 A 
ATOM     10  C   LIG    1        1.152   3.179   0.008  0.00  0.00    -0.015 A 
ATOM     11  C   LIG    1       -0.075   3.852   0.024  0.00  0.00    +0.010 A 
ATOM     12  C   LIG    1       -1.252   3.134   0.031  0.00  0.00    +0.027 A 
BRANCH   7  14
ATOM     13  C   LIG    1       -3.123   0.590   1.772  0.00  0.00    +0.200 C 
ATOM     14  S   LIG    1       -2.731   0.841   0.019  0.00  0.00    -0.006 S 
ATOM     15  O   LIG    1       -2.408  -0.401  -0.593  0.00  0.00    -0.170 OA
ATOM     16  O   LIG    1       -3.681   1.715  -0.575  0.00  0.00    -0.170 OA
ENDBRANCH   7  14
ENDBRANCH   1  10
BRANCH   2  17
ATOM     17  C   LIG    1        2.155   5.042  -2.259  0.00  0.00    -0.011 A 
ATOM     18  C   LIG    1        1.954   4.024  -3.191  0.00  0.00    +0.009 A 
ATOM     19  C   LIG    1        1.291   4.293  -4.371  0.00  0.00    +0.001 A 
ATOM     20  C   LIG    1        0.836   5.573  -4.635  0.00  0.00    +0.000 A 
ATOM     21  C   LIG    1        1.038   6.588  -3.717  0.00  0.00    +0.001 A 
ATOM     22  C   LIG    1        1.695   6.330  -2.531  0.00  0.00    +0.009 A 
ENDBRANCH   2  17
BRANCH   6  23
ATOM     23  O   LIG    1        2.889   4.470   2.302  0.00  0.00    -0.354 OA
ATOM     24  H   LIG    1        3.511   4.559   3.205  0.00  0.00    +0.214 HD
ENDBRANCH   6  23
TORSDOF 4
