REMARK  Name = ZINC35308313
REMARK                            x       y       z     vdW  Elec       q    Type
REMARK                         _______ _______ _______ _____ _____    ______ ____
ROOT
ATOM      1  C   LIG    1        4.282   0.149  -2.206  0.00  0.00    +0.105 A 
ATOM      2  C   LIG    1        4.641   1.111  -1.266  0.00  0.00    +0.148 A 
ATOM      3  F   LIG    1        3.707   1.624  -0.434  0.00  0.00    -0.203 F 
ATOM      4  C   LIG    1        5.948   1.542  -1.182  0.00  0.00    +0.053 A 
ATOM      5  C   LIG    1        6.913   1.011  -2.042  0.00  0.00    +0.043 A 
ATOM      6  C   LIG    1        6.550   0.045  -2.985  0.00  0.00    +0.053 A 
ATOM      7  C   LIG    1        5.242  -0.385  -3.061  0.00  0.00    +0.148 A 
ATOM      8  F   LIG    1        4.891  -1.323  -3.968  0.00  0.00    -0.203 F 
ENDROOT
BRANCH   1  10
ATOM      9  C   LIG    1        2.537  -1.317  -1.530  0.00  0.00    +0.218 C 
ATOM     10  N   LIG    1        2.957  -0.285  -2.288  0.00  0.00    -0.281 N 
ATOM     11  H   LIG    1        2.338   0.157  -2.891  0.00  0.00    +0.155 HD
ATOM     12  O   LIG    1        3.330  -1.927  -0.844  0.00  0.00    -0.275 OA
BRANCH   9  13
ATOM     13  C   LIG    1        1.084  -1.714  -1.535  0.00  0.00    +0.102 C 
BRANCH  13  15
ATOM     14  C   LIG    1        1.294  -2.515   0.823  0.00  0.00    +0.011 C 
ATOM     15  C   LIG    1        0.877  -2.905  -0.597  0.00  0.00    -0.029 C 
ATOM     16  C   LIG    1       -0.599  -3.308  -0.602  0.00  0.00    +0.011 C 
ATOM     17  C   LIG    1        1.729  -4.083  -1.073  0.00  0.00    +0.011 C 
ENDBRANCH  13  15
ENDBRANCH   9  13
ENDBRANCH   1  10
BRANCH   5  18
ATOM     18  C   LIG    1        8.313   1.470  -1.956  0.00  0.00    +0.250 C 
ATOM     19  N   LIG    1        9.243   0.957  -2.786  0.00  0.00    -0.261 N 
ATOM     20  H   LIG    1        8.992   0.286  -3.440  0.00  0.00    +0.157 HD
ATOM     21  O   LIG    1        8.628   2.310  -1.136  0.00  0.00    -0.270 OA
BRANCH  19  22
ATOM     22  C   LIG    1       10.560   1.389  -2.705  0.00  0.00    +0.165 A 
ATOM     23  N   LIG    1       11.080   2.277  -1.885  0.00  0.00    -0.233 NA
ATOM     24  C   LIG    1       12.364   2.581  -1.934  0.00  0.00    +0.120 A 
ATOM     25  C   LIG    1       13.114   1.939  -2.863  0.00  0.00    +0.068 A 
ATOM     26  S   LIG    1       11.880   0.898  -3.626  0.00  0.00    -0.061 S 
ENDBRANCH  19  22
ENDBRANCH   5  18
TORSDOF 5
