REMARK  Name = ZINC14978643
REMARK                            x       y       z     vdW  Elec       q    Type
REMARK                         _______ _______ _______ _____ _____    ______ ____
ROOT
ATOM      1  C   LIG    1       -1.586   2.967   1.047  0.00  0.00    -0.007 C 
ATOM      2  C   LIG    1       -1.309   2.117   0.027  0.00  0.00    -0.031 C 
ENDROOT
BRANCH   1   6
ATOM      3  C   LIG    1        0.927   3.064   4.473  0.00  0.00    +0.120 A 
ATOM      4  C   LIG    1        0.838   4.178   3.648  0.00  0.00    +0.046 A 
ATOM      5  C   LIG    1        0.024   4.150   2.536  0.00  0.00    +0.012 A 
ATOM      6  C   LIG    1       -0.711   3.001   2.240  0.00  0.00    -0.017 A 
ATOM      7  C   LIG    1       -0.624   1.886   3.076  0.00  0.00    +0.012 A 
ATOM      8  C   LIG    1        0.197   1.919   4.183  0.00  0.00    +0.046 A 
BRANCH   3   9
ATOM      9  O   LIG    1        1.731   3.096   5.569  0.00  0.00    -0.494 OA
BRANCH   9  10
ATOM     10  C   LIG    1        1.775   1.916   6.374  0.00  0.00    +0.210 C 
BRANCH  10  11
ATOM     11  C   LIG    1        2.725   2.139   7.553  0.00  0.00    -0.038 C 
BRANCH  11  13
ATOM     12  C   LIG    1        0.934   2.747   9.064  0.00  0.00    -0.096 C 
ATOM     13  N   LIG    1        2.177   3.210   8.411  0.00  0.00    +0.378 N 
ATOM     14  H   LIG    1        1.963   4.028   7.829  0.00  0.00    -0.082 HD
ATOM     15  C   LIG    1        3.171   3.596   9.434  0.00  0.00    -0.096 C 
ENDBRANCH  11  13
ENDBRANCH  10  11
ENDBRANCH   9  10
ENDBRANCH   3   9
ENDBRANCH   1   6
BRANCH   1  16
ATOM     16  C   LIG    1       -2.763   3.860   0.968  0.00  0.00    -0.017 A 
ATOM     17  C   LIG    1       -2.588   5.238   0.833  0.00  0.00    +0.012 A 
ATOM     18  C   LIG    1       -3.687   6.066   0.755  0.00  0.00    +0.046 A 
ATOM     19  C   LIG    1       -4.967   5.532   0.819  0.00  0.00    +0.117 A 
ATOM     20  C   LIG    1       -5.145   4.161   0.958  0.00  0.00    +0.046 A 
ATOM     21  C   LIG    1       -4.051   3.326   1.032  0.00  0.00    +0.012 A 
BRANCH  19  22
ATOM     22  O   LIG    1       -6.048   6.352   0.746  0.00  0.00    -0.507 OA
ATOM     23  H   LIG    1       -6.353   6.677   1.604  0.00  0.00    +0.292 HD
ENDBRANCH  19  22
ENDBRANCH   1  16
BRANCH   2  24
ATOM     24  C   LIG    1       -0.080   1.310   0.056  0.00  0.00    -0.021 A 
ATOM     25  C   LIG    1        1.171   1.933  -0.008  0.00  0.00    +0.008 A 
ATOM     26  C   LIG    1        2.319   1.169   0.013  0.00  0.00    +0.001 A 
ATOM     27  C   LIG    1        2.236  -0.210   0.098  0.00  0.00    +0.000 A 
ATOM     28  C   LIG    1        1.002  -0.833   0.161  0.00  0.00    +0.001 A 
ATOM     29  C   LIG    1       -0.155  -0.084   0.141  0.00  0.00    +0.008 A 
ENDBRANCH   2  24
BRANCH   2  30
ATOM     30  C   LIG    1       -2.260   2.000  -1.135  0.00  0.00    +0.052 C 
BRANCH  30  31
ATOM     31  C   LIG    1       -1.811   2.936  -2.259  0.00  0.00    +0.113 C 
ATOM     32 CL   LIG    1       -2.863   2.690  -3.703  0.00  0.00    -0.125 Cl
ENDBRANCH  30  31
ENDBRANCH   2  30
TORSDOF 10
