REMARK  Name = ZINC45245356
REMARK                            x       y       z     vdW  Elec       q    Type
REMARK                         _______ _______ _______ _____ _____    ______ ____
ROOT
ATOM      1  C   LIG    1       -3.036   1.305   6.048  0.00  0.00    +0.135 C 
ATOM      2  S   LIG    1       -1.805   2.001   7.013  0.00  0.00    -0.019 S 
ENDROOT
BRANCH   1   3
ATOM      3  N   LIG    1       -2.768   0.925   4.783  0.00  0.00    -0.326 N 
ATOM      4  H   LIG    1       -3.466   0.531   4.237  0.00  0.00    +0.148 HD
BRANCH   3   5
ATOM      5  C   LIG    1       -1.422   1.108   4.234  0.00  0.00    +0.105 C 
BRANCH   5   6
ATOM      6  C   LIG    1       -1.387   0.599   2.791  0.00  0.00    +0.040 C 
BRANCH   6   7
ATOM      7  C   LIG    1        0.018   0.790   2.217  0.00  0.00    +0.124 C 
BRANCH   7  13
ATOM      8  C   LIG    1       -0.806   2.426  -0.329  0.00  0.00    +0.065 C 
ATOM      9  C   LIG    1       -0.305   1.006  -0.283  0.00  0.00    +0.035 A 
ATOM     10  C   LIG    1       -0.116   0.186  -1.335  0.00  0.00    +0.133 A 
ATOM     11  N   LIG    1        0.338  -0.987  -0.871  0.00  0.00    -0.244 NA
ATOM     12  C   LIG    1        0.438  -0.927   0.429  0.00  0.00    +0.199 A 
ATOM     13  N   LIG    1        0.052   0.302   0.836  0.00  0.00    -0.334 N 
ENDBRANCH   7  13
ENDBRANCH   6   7
ENDBRANCH   5   6
ENDBRANCH   3   5
ENDBRANCH   1   3
BRANCH   1  14
ATOM     14  N   LIG    1       -4.274   1.137   6.554  0.00  0.00    -0.297 N 
ATOM     15  H   LIG    1       -4.987   0.800   5.989  0.00  0.00    +0.154 HD
BRANCH  14  16
ATOM     16  C   LIG    1       -4.531   1.448   7.896  0.00  0.00    +0.036 A 
ATOM     17  C   LIG    1       -4.056   2.636   8.435  0.00  0.00    +0.027 A 
ATOM     18  C   LIG    1       -4.309   2.946   9.758  0.00  0.00    +0.051 A 
ATOM     19  C   LIG    1       -5.036   2.071  10.549  0.00  0.00    +0.162 A 
ATOM     20  C   LIG    1       -5.513   0.879  10.011  0.00  0.00    +0.163 A 
ATOM     21  C   LIG    1       -5.265   0.572   8.683  0.00  0.00    +0.072 A 
BRANCH  19  22
ATOM     22  O   LIG    1       -5.284   2.376  11.852  0.00  0.00    -0.491 OA
ATOM     23  C   LIG    1       -4.764   3.615  12.338  0.00  0.00    +0.277 C 
ENDBRANCH  19  22
BRANCH  20  24
ATOM     24  O   LIG    1       -6.228   0.020  10.786  0.00  0.00    -0.491 OA
ATOM     25  C   LIG    1       -6.686  -1.184  10.168  0.00  0.00    +0.277 C 
ENDBRANCH  20  24
ENDBRANCH  14  16
ENDBRANCH   1  14
TORSDOF 9
