REMARK  Name = ZINC34947163
REMARK                            x       y       z     vdW  Elec       q    Type
REMARK                         _______ _______ _______ _____ _____    ______ ____
ROOT
ATOM      1  N   LIG    1        1.385  -4.016   2.337  0.00  0.00    -0.346 N 
ATOM      2  C   LIG    1        0.630  -4.833   3.098  0.00  0.00    +0.098 A 
ATOM      3  C   LIG    1        0.971  -6.137   2.801  0.00  0.00    +0.040 A 
ATOM      4  C   LIG    1        1.984  -6.084   1.809  0.00  0.00    +0.039 A 
ATOM      5  C   LIG    1        2.211  -4.773   1.541  0.00  0.00    +0.053 A 
ENDROOT
BRANCH   5   6
ATOM      6  C   LIG    1        3.187  -4.247   0.562  0.00  0.00    +0.034 A 
ATOM      7  C   LIG    1        4.083  -3.244   0.934  0.00  0.00    +0.013 A 
ATOM      8  C   LIG    1        4.990  -2.758   0.015  0.00  0.00    +0.001 A 
ATOM      9  C   LIG    1        5.014  -3.262  -1.273  0.00  0.00    +0.003 A 
ATOM     10  C   LIG    1        4.130  -4.256  -1.650  0.00  0.00    +0.039 A 
ATOM     11  C   LIG    1        3.219  -4.757  -0.739  0.00  0.00    +0.132 A 
ATOM     12  F   LIG    1        2.359  -5.732  -1.106  0.00  0.00    -0.205 F 
ENDBRANCH   5   6
BRANCH   3  13
ATOM     13  C   LIG    1        0.393  -7.351   3.401  0.00  0.00    +0.195 C 
ATOM     14  O   LIG    1       -0.534  -7.262   4.183  0.00  0.00    -0.287 OA
BRANCH  13  15
ATOM     15  C   LIG    1        0.939  -8.676   3.053  0.00  0.00    +0.030 A 
ATOM     16  C   LIG    1        1.754  -9.364   3.944  0.00  0.00    +0.012 A 
ATOM     17  C   LIG    1        2.266 -10.611   3.614  0.00  0.00    +0.001 A 
ATOM     18  C   LIG    1        1.996 -11.205   2.419  0.00  0.00    +0.008 A 
ATOM     19  C   LIG    1        1.179 -10.567   1.470  0.00  0.00    -0.017 A 
ATOM     20  C   LIG    1        0.892 -11.167   0.232  0.00  0.00    +0.008 A 
ATOM     21  C   LIG    1        0.081 -10.526  -0.655  0.00  0.00    +0.001 A 
ATOM     22  C   LIG    1       -0.453  -9.274  -0.363  0.00  0.00    +0.001 A 
ATOM     23  C   LIG    1       -0.190  -8.660   0.826  0.00  0.00    +0.009 A 
ATOM     24  C   LIG    1        0.629  -9.296   1.766  0.00  0.00    -0.007 A 
ENDBRANCH  13  15
ENDBRANCH   3  13
BRANCH   1  25
ATOM     25  C   LIG    1        1.330  -2.552   2.350  0.00  0.00    +0.122 C 
BRANCH  25  26
ATOM     26  C   LIG    1        0.482  -2.063   1.175  0.00  0.00    +0.022 C 
BRANCH  26  27
ATOM     27  C   LIG    1        0.424  -0.534   1.189  0.00  0.00    +0.001 C 
BRANCH  27  29
ATOM     28  C   LIG    1       -0.482   1.484   0.028  0.00  0.00    +0.004 C 
ATOM     29  C   LIG    1       -0.424  -0.045   0.013  0.00  0.00    -0.003 C 
ENDBRANCH  27  29
ENDBRANCH  26  27
ENDBRANCH  25  26
ENDBRANCH   1  25
TORSDOF 7
