REMARK  Name = ZINC32915163
REMARK                            x       y       z     vdW  Elec       q    Type
REMARK                         _______ _______ _______ _____ _____    ______ ____
ROOT
ATOM      1  C   LIG    1        1.238   6.009   0.020  0.00  0.00    +0.020 A 
ATOM      2  C   LIG    1        0.002   5.392   0.029  0.00  0.00    +0.013 A 
ATOM      3  C   LIG    1       -0.037   3.992   0.023  0.00  0.00    +0.021 A 
ATOM      4  C   LIG    1       -1.313   3.276   0.032  0.00  0.00    +0.062 A 
ATOM      5  C   LIG    1       -1.296   1.917   0.019  0.00  0.00    +0.182 A 
ATOM      6  C   LIG    1       -0.014   1.214   0.009  0.00  0.00    +0.292 A 
ATOM      7  N   LIG    1        1.146   1.892   0.001  0.00  0.00    -0.304 N 
ATOM      8  H   LIG    1        2.102   1.347  -0.010  0.00  0.00    +0.170 HD
ATOM      9  O   LIG    1        0.002  -0.004   0.002  0.00  0.00    -0.264 OA
ATOM     10  C   LIG    1        1.171   3.268   0.008  0.00  0.00    +0.141 A 
ATOM     11  N   LIG    1        2.328   3.917  -0.001  0.00  0.00    -0.237 NA
ATOM     12  C   LIG    1        2.386   5.232   0.005  0.00  0.00    +0.113 A 
ENDROOT
BRANCH   5  13
ATOM     13  O   LIG    1       -2.462   1.216   0.020  0.00  0.00    -0.502 OA
ATOM     14  H   LIG    1       -2.442   0.117   0.009  0.00  0.00    +0.292 HD
ENDBRANCH   5  13
TORSDOF 1
