REMARK  Name = ZINC14979641
REMARK                            x       y       z     vdW  Elec       q    Type
REMARK                         _______ _______ _______ _____ _____    ______ ____
ROOT
ATOM      1  C   LIG    1        3.273  -3.421  -1.229  0.00  0.00    +0.077 C 
ENDROOT
BRANCH   1   2
ATOM      2  C   LIG    1        2.751  -1.983  -1.217  0.00  0.00    +0.017 C 
BRANCH   2   3
ATOM      3  C   LIG    1        1.810  -1.793  -0.025  0.00  0.00    +0.058 C 
BRANCH   3   5
ATOM      4  C   LIG    1        0.002  -0.004   0.002  0.00  0.00    +0.107 A 
ATOM      5  C   LIG    1        1.296  -0.376  -0.012  0.00  0.00    +0.059 A 
ATOM      6  N   LIG    1        2.047   0.735  -0.013  0.00  0.00    -0.241 NA
ATOM      7  C   LIG    1        1.268   1.782  -0.001  0.00  0.00    +0.196 A 
ATOM      8  N   LIG    1       -0.017   1.365   0.009  0.00  0.00    -0.351 N 
ATOM      9  H   LIG    1       -0.977   1.901   0.021  0.00  0.00    +0.166 HD
ENDBRANCH   3   5
ENDBRANCH   2   3
ENDBRANCH   1   2
BRANCH   1  10
ATOM     10  S   LIG    1        4.385  -3.647  -2.639  0.00  0.00    -0.093 S 
BRANCH  10  11
ATOM     11  C   LIG    1        4.824  -5.339  -2.415  0.00  0.00    +0.123 C 
ATOM     12  N   LIG    1        4.331  -6.013  -1.413  0.00  0.00    -0.382 N 
ATOM     13  H   LIG    1        3.642  -5.526  -0.708  0.00  0.00    +0.158 HD
ATOM     14  H   LIG    1        4.605  -7.069  -1.273  0.00  0.00    +0.158 HD
BRANCH  11  15
ATOM     15  N   LIG    1        5.687  -5.948  -3.296  0.00  0.00    -0.340 N 
ATOM     16  H   LIG    1        6.103  -5.380  -4.141  0.00  0.00    +0.144 HD
ATOM     17  H   LIG    1        5.961  -7.004  -3.156  0.00  0.00    +0.144 HD
ENDBRANCH  11  15
ENDBRANCH  10  11
ENDBRANCH   1  10
TORSDOF 6
