REMARK  Name = ZINC32136784
REMARK                            x       y       z     vdW  Elec       q    Type
REMARK                         _______ _______ _______ _____ _____    ______ ____
ROOT
ATOM      1  S   LIG    1        4.168   2.424  -1.423  0.00  0.00    -0.027 S 
ENDROOT
BRANCH   1   2
ATOM      2  C   LIG    1        3.260   0.977  -1.543  0.00  0.00    +0.120 C 
ATOM      3  S   LIG    1        3.828  -0.312  -2.516  0.00  0.00    -0.027 S 
BRANCH   2   7
ATOM      4  C   LIG    1       -0.019   1.547   0.011  0.00  0.00    +0.020 C 
ATOM      5  C   LIG    1        0.002  -0.004   0.002  0.00  0.00    +0.020 C 
ATOM      6  C   LIG    1        1.223  -0.328  -0.885  0.00  0.00    +0.106 C 
ATOM      7  N   LIG    1        2.098   0.853  -0.871  0.00  0.00    -0.318 N 
ATOM      8  C   LIG    1        1.494   1.879  -0.002  0.00  0.00    +0.106 C 
ENDBRANCH   2   7
ENDBRANCH   1   2
BRANCH   1   9
ATOM      9  S   LIG    1        5.756   1.952  -2.647  0.00  0.00    -0.027 S 
BRANCH   9  10
ATOM     10  C   LIG    1        5.096   2.382  -4.168  0.00  0.00    +0.120 C 
ATOM     11  S   LIG    1        3.506   3.007  -4.265  0.00  0.00    -0.027 S 
BRANCH  10  12
ATOM     12  N   LIG    1        5.830   2.228  -5.288  0.00  0.00    -0.318 N 
ATOM     13  C   LIG    1        7.205   1.712  -5.348  0.00  0.00    +0.106 C 
ATOM     14  C   LIG    1        7.641   1.738  -6.828  0.00  0.00    +0.020 C 
ATOM     15  C   LIG    1        6.697   2.804  -7.447  0.00  0.00    +0.020 C 
ATOM     16  C   LIG    1        5.388   2.557  -6.656  0.00  0.00    +0.106 C 
ENDBRANCH  10  12
ENDBRANCH   9  10
ENDBRANCH   1   9
TORSDOF 5
