REMARK  Name = ZINC13833112
REMARK                            x       y       z     vdW  Elec       q    Type
REMARK                         _______ _______ _______ _____ _____    ______ ____
ROOT
ATOM      1  C   LIG    1        3.020   3.862   1.780  0.00  0.00    +0.133 C 
ENDROOT
BRANCH   1   2
ATOM      2  C   LIG    1        3.936   3.232   0.762  0.00  0.00    -0.006 A 
ATOM      3  C   LIG    1        5.295   3.659   0.431  0.00  0.00    +0.004 A 
ATOM      4  C   LIG    1        6.126   4.684   0.892  0.00  0.00    +0.010 A 
ATOM      5  C   LIG    1        7.378   4.831   0.364  0.00  0.00    +0.001 A 
ATOM      6  C   LIG    1        7.831   3.969  -0.626  0.00  0.00    +0.002 A 
ATOM      7  C   LIG    1        7.029   2.952  -1.095  0.00  0.00    +0.026 A 
ATOM      8  C   LIG    1        5.750   2.784  -0.573  0.00  0.00    +0.047 A 
ATOM      9  N   LIG    1        4.737   1.885  -0.827  0.00  0.00    -0.354 N 
ATOM     10  H   LIG    1        4.779   1.167  -1.478  0.00  0.00    +0.166 HD
ATOM     11  C   LIG    1        3.657   2.161  -0.021  0.00  0.00    +0.051 A 
BRANCH  11  12
ATOM     12  C   LIG    1        2.385   1.407  -0.013  0.00  0.00    -0.001 A 
ATOM     13  C   LIG    1        1.167   2.088   0.002  0.00  0.00    +0.010 A 
ATOM     14  C   LIG    1       -0.017   1.379   0.010  0.00  0.00    +0.001 A 
ATOM     15  C   LIG    1        0.002  -0.004   0.002  0.00  0.00    +0.000 A 
ATOM     16  C   LIG    1        1.206  -0.685  -0.013  0.00  0.00    +0.001 A 
ATOM     17  C   LIG    1        2.397   0.012  -0.020  0.00  0.00    +0.010 A 
ENDBRANCH  11  12
ENDBRANCH   1   2
BRANCH   1  19
ATOM     18  N   LIG    1        2.518   3.611   4.188  0.00  0.00    -0.301 N 
ATOM     19  C   LIG    1        3.233   3.207   3.120  0.00  0.00    +0.220 C 
ATOM     20  O   LIG    1        4.048   2.316   3.237  0.00  0.00    -0.275 OA
BRANCH  18  21
ATOM     21  C   LIG    1        2.724   2.974   5.491  0.00  0.00    +0.108 C 
BRANCH  21  22
ATOM     22  C   LIG    1        3.814   3.724   6.259  0.00  0.00    +0.019 C 
BRANCH  22  23
ATOM     23  C   LIG    1        4.030   3.059   7.620  0.00  0.00    +0.002 C 
BRANCH  23  24
ATOM     24  C   LIG    1        5.120   3.809   8.387  0.00  0.00    -0.000 C 
BRANCH  24  26
ATOM     25  C   LIG    1        6.426   3.894  10.516  0.00  0.00    +0.004 C 
ATOM     26  C   LIG    1        5.336   3.144   9.748  0.00  0.00    -0.003 C 
ENDBRANCH  24  26
ENDBRANCH  23  24
ENDBRANCH  22  23
ENDBRANCH  21  22
ENDBRANCH  18  21
BRANCH  18  27
ATOM     27  C   LIG    1        1.534   4.687   4.047  0.00  0.00    +0.108 C 
BRANCH  27  28
ATOM     28  C   LIG    1        0.173   4.089   3.683  0.00  0.00    +0.019 C 
BRANCH  28  29
ATOM     29  C   LIG    1       -0.855   5.213   3.536  0.00  0.00    +0.002 C 
BRANCH  29  30
ATOM     30  C   LIG    1       -2.216   4.615   3.172  0.00  0.00    -0.000 C 
BRANCH  30  31
ATOM     31  C   LIG    1       -3.243   5.739   3.025  0.00  0.00    -0.003 C 
ATOM     32  C   LIG    1       -4.604   5.141   2.661  0.00  0.00    +0.004 C 
ENDBRANCH  30  31
ENDBRANCH  29  30
ENDBRANCH  28  29
ENDBRANCH  27  28
ENDBRANCH  18  27
ENDBRANCH   1  19
TORSDOF 13
