REMARK  Name = ZINC22033348
REMARK                            x       y       z     vdW  Elec       q    Type
REMARK                         _______ _______ _______ _____ _____    ______ ____
ROOT
ATOM      1  C   LIG    1       -0.018   1.465   0.010  0.00  0.00    -0.066 C 
ATOM      2  C   LIG    1        1.418   1.994  -0.001  0.00  0.00    +0.065 C 
ATOM      3  N   LIG    1        2.132   1.490   1.181  0.00  0.00    -0.305 NA
ATOM      4  C   LIG    1        2.138   0.021   1.199  0.00  0.00    +0.079 C 
ATOM      5  CA  LIG    1        0.697  -0.493   1.200  0.00  0.00    +0.053 C 
ATOM      6  N   LIG    1        0.002  -0.004   0.002  0.00  0.00    +0.390 N 
ATOM      7  H1  LIG    1        0.485  -0.329  -0.822  0.00  0.00    -0.085 HD
ATOM      8  H2  LIG    1       -0.945  -0.353  -0.003  0.00  0.00    -0.085 HD
ENDROOT
BRANCH   5   9
ATOM      9  C   LIG    1        0.701  -2.000   1.200  0.00  0.00    +0.292 C 
ATOM     10  O   LIG    1        0.703  -2.610   2.255  0.00  0.00    -0.253 OA
BRANCH   9  11
ATOM     11  OXT LIG    1        0.701  -2.609   0.143  0.00  0.00    -0.482 OA
ATOM     12  HXT LIG    1        0.699  -2.140  -0.668  0.00  0.00    +0.295 HD
ENDBRANCH   9  11
ENDBRANCH   5   9
BRANCH   3  13
ATOM     13  C   LIG    1        3.499   2.024   1.237  0.00  0.00    +0.085 C 
BRANCH  13  14
ATOM     14  C   LIG    1        3.448   3.537   1.460  0.00  0.00    +0.027 C 
BRANCH  14  15
ATOM     15  C   LIG    1        4.873   4.092   1.518  0.00  0.00    +0.128 C 
BRANCH  15  16
ATOM     16  P   LIG    1        4.812   5.894   1.784  0.00  0.00    +0.328 P 
ATOM     17  O   LIG    1        3.928   6.557   0.673  0.00  0.00    -0.259 OA
BRANCH  16  18
ATOM     18  O   LIG    1        6.263   6.482   1.716  0.00  0.00    -0.324 OA
ATOM     19  H   LIG    1        6.646   6.296   0.845  0.00  0.00    +0.220 HD
ENDBRANCH  16  18
BRANCH  16  20
ATOM     20  O   LIG    1        4.192   6.194   3.192  0.00  0.00    -0.324 OA
ATOM     21  H   LIG    1        3.294   5.830   3.234  0.00  0.00    +0.220 HD
ENDBRANCH  16  20
ENDBRANCH  15  16
ENDBRANCH  14  15
ENDBRANCH  13  14
ENDBRANCH   3  13
TORSDOF 8
