REMARK  Name = ZINC44351037
REMARK                            x       y       z     vdW  Elec       q    Type
REMARK                         _______ _______ _______ _____ _____    ______ ____
ROOT
ATOM      1  N   LIG    1       -8.376 -10.819   0.066  0.00  0.00    +0.386 N 
ATOM      2  H   LIG    1       -8.875 -10.311  -0.649  0.00  0.00    -0.081 HD
ATOM      3  C   LIG    1       -8.988 -10.547   1.372  0.00  0.00    -0.044 C 
ATOM      4  C   LIG    1      -10.471 -10.923   1.333  0.00  0.00    +0.129 C 
ATOM      5  C   LIG    1      -10.605 -12.413   1.004  0.00  0.00    +0.168 C 
ATOM      6  C   LIG    1       -9.899 -12.698  -0.324  0.00  0.00    +0.134 C 
ATOM      7  C   LIG    1       -8.437 -12.256  -0.224  0.00  0.00    -0.011 C 
ENDROOT
BRANCH   6   8
ATOM      8  O   LIG    1       -9.957 -14.098  -0.604  0.00  0.00    -0.391 OA
ATOM      9  H   LIG    1      -10.855 -14.448  -0.679  0.00  0.00    +0.210 HD
ENDBRANCH   6   8
BRANCH   5  10
ATOM     10  O   LIG    1      -11.989 -12.755   0.894  0.00  0.00    -0.387 OA
ATOM     11  H   LIG    1      -12.499 -12.594   1.700  0.00  0.00    +0.210 HD
ENDBRANCH   5  10
BRANCH   4  12
ATOM     12  O   LIG    1      -11.064 -10.659   2.605  0.00  0.00    -0.391 OA
ATOM     13  H   LIG    1      -12.006 -10.874   2.653  0.00  0.00    +0.210 HD
ENDBRANCH   4  12
BRANCH   1  14
ATOM     14  C   LIG    1       -6.973 -10.384   0.085  0.00  0.00    -0.078 C 
BRANCH  14  15
ATOM     15  C   LIG    1       -6.912  -8.867   0.275  0.00  0.00    -0.019 C 
BRANCH  15  16
ATOM     16  C   LIG    1       -5.450  -8.414   0.295  0.00  0.00    -0.002 C 
BRANCH  16  17
ATOM     17  C   LIG    1       -5.389  -6.897   0.485  0.00  0.00    -0.000 C 
BRANCH  17  18
ATOM     18  C   LIG    1       -3.928  -6.444   0.505  0.00  0.00    -0.000 C 
BRANCH  18  19
ATOM     19  C   LIG    1       -3.867  -4.927   0.696  0.00  0.00    -0.000 C 
BRANCH  19  20
ATOM     20  C   LIG    1       -2.405  -4.474   0.715  0.00  0.00    -0.000 C 
BRANCH  20  21
ATOM     21  C   LIG    1       -2.344  -2.958   0.906  0.00  0.00    -0.000 C 
BRANCH  21  22
ATOM     22  C   LIG    1       -0.883  -2.505   0.925  0.00  0.00    -0.000 C 
BRANCH  22  23
ATOM     23  C   LIG    1       -0.822  -0.988   1.116  0.00  0.00    -0.000 C 
BRANCH  23  25
ATOM     24  C   LIG    1        0.701   0.982   1.326  0.00  0.00    +0.004 C 
ATOM     25  C   LIG    1        0.640  -0.535   1.135  0.00  0.00    -0.003 C 
ENDBRANCH  23  25
ENDBRANCH  22  23
ENDBRANCH  21  22
ENDBRANCH  20  21
ENDBRANCH  19  20
ENDBRANCH  18  19
ENDBRANCH  17  18
ENDBRANCH  16  17
ENDBRANCH  15  16
ENDBRANCH  14  15
ENDBRANCH   1  14
BRANCH   7  26
ATOM     26  C   LIG    1       -7.727 -12.540  -1.549  0.00  0.00    +0.143 C 
BRANCH  26  27
ATOM     27  O   LIG    1       -8.418 -11.880  -2.611  0.00  0.00    -0.397 OA
ATOM     28  H   LIG    1       -8.023 -12.016  -3.482  0.00  0.00    +0.209 HD
ENDBRANCH  26  27
ENDBRANCH   7  26
TORSDOF 16
