REMARK  Name = ZINC00009200
REMARK                            x       y       z     vdW  Elec       q    Type
REMARK                         _______ _______ _______ _____ _____    ______ ____
ROOT
ATOM      1  C   LIG    1        0.605  -0.687  -1.053  0.00  0.00    +0.027 A 
ATOM      2  C   LIG    1        1.192   0.024  -2.094  0.00  0.00    +0.023 A 
ATOM      3  C   LIG    1        1.789  -0.648  -3.138  0.00  0.00    +0.012 A 
ATOM      4  C   LIG    1        1.804  -2.045  -3.150  0.00  0.00    +0.007 A 
ATOM      5  C   LIG    1        1.214  -2.756  -2.102  0.00  0.00    +0.012 A 
ATOM      6  C   LIG    1        0.623  -2.078  -1.059  0.00  0.00    +0.023 A 
ENDROOT
BRANCH   4   7
ATOM      7  C   LIG    1        2.443  -2.769  -4.268  0.00  0.00    +0.109 A 
ATOM      8  N   LIG    1        3.048  -2.280  -5.329  0.00  0.00    -0.239 NA
ATOM      9  C   LIG    1        3.591  -3.066  -6.279  0.00  0.00    +0.079 A 
ATOM     10  C   LIG    1        4.265  -2.672  -7.460  0.00  0.00    +0.029 A 
ATOM     11  C   LIG    1        4.758  -3.600  -8.324  0.00  0.00    +0.002 A 
ATOM     12  C   LIG    1        4.623  -4.961  -8.087  0.00  0.00    +0.001 A 
ATOM     13  C   LIG    1        3.972  -5.388  -6.944  0.00  0.00    +0.017 A 
ATOM     14  C   LIG    1        3.470  -4.460  -6.066  0.00  0.00    +0.040 A 
ATOM     15  S   LIG    1        2.596  -4.532  -4.521  0.00  0.00    -0.067 S 
ENDBRANCH   4   7
BRANCH   1  17
ATOM     16  C   LIG    1       -0.018   1.461   0.010  0.00  0.00    +0.125 C 
ATOM     17  N   LIG    1        0.002  -0.004   0.002  0.00  0.00    -0.347 N 
ATOM     18  H   LIG    1       -0.404  -0.499   0.731  0.00  0.00    +0.146 HD
ENDBRANCH   1  17
TORSDOF 2
