REMARK  Name = ZINC19900266
REMARK                            x       y       z     vdW  Elec       q    Type
REMARK                         _______ _______ _______ _____ _____    ______ ____
ROOT
ATOM      1  C   LIG    1       -2.005   6.908   3.210  0.00  0.00    +0.103 A 
ATOM      2  C   LIG    1       -1.771   5.655   3.681  0.00  0.00    +0.041 A 
ATOM      3  C   LIG    1       -1.462   4.828   2.574  0.00  0.00    +0.004 A 
ATOM      4  C   LIG    1       -1.140   3.470   2.449  0.00  0.00    +0.055 A 
ATOM      5  C   LIG    1       -0.884   2.941   1.202  0.00  0.00    +0.121 A 
ATOM      6  C   LIG    1       -0.939   3.751   0.069  0.00  0.00    +0.047 A 
ATOM      7  C   LIG    1       -1.259   5.085   0.176  0.00  0.00    +0.030 A 
ATOM      8  C   LIG    1       -1.522   5.640   1.425  0.00  0.00    +0.047 A 
ATOM      9  N   LIG    1       -1.856   6.911   1.837  0.00  0.00    -0.351 N 
ATOM     10  H   LIG    1       -2.006   7.841   1.269  0.00  0.00    +0.166 HD
ENDROOT
BRANCH   1  16
ATOM     11  C   LIG    1        0.607  12.579   3.434  0.00  0.00    +0.105 C 
ATOM     12  N   LIG    1       -0.509  11.632   3.309  0.00  0.00    -0.302 NA
ATOM     13  C   LIG    1       -0.083  10.402   2.627  0.00  0.00    +0.103 C 
ATOM     14  C   LIG    1       -1.307   9.522   2.355  0.00  0.00    +0.123 C 
ATOM     15  N   LIG    1       -2.024   9.314   3.622  0.00  0.00    -0.294 N 
ATOM     16  C   LIG    1       -2.360   8.075   4.031  0.00  0.00    +0.263 C 
ATOM     17  O   LIG    1       -2.956   7.921   5.080  0.00  0.00    -0.268 OA
ATOM     18  C   LIG    1       -2.371  10.495   4.428  0.00  0.00    +0.123 C 
ATOM     19  C   LIG    1       -1.099  11.336   4.621  0.00  0.00    +0.103 C 
ENDBRANCH   1  16
BRANCH   5  20
ATOM     20  O   LIG    1       -0.571   1.624   1.077  0.00  0.00    -0.495 OA
ATOM     21  C   LIG    1       -0.318   1.139  -0.243  0.00  0.00    +0.277 C 
ENDBRANCH   5  20
TORSDOF 2
