REMARK  Name = ZINC62001395
REMARK                            x       y       z     vdW  Elec       q    Type
REMARK                         _______ _______ _______ _____ _____    ______ ____
ROOT
ATOM      1  C   LIG    1        0.606  -0.499  -1.312  0.00  0.00    -0.002 C 
ATOM      2  C   LIG    1        0.460  -2.037  -1.419  0.00  0.00    +0.004 C 
ATOM      3  C   LIG    1       -0.331  -2.312  -2.727  0.00  0.00    +0.005 C 
ATOM      4  C   LIG    1       -0.055  -1.059  -3.565  0.00  0.00    +0.001 C 
ATOM      5  C   LIG    1       -1.061  -0.759  -4.660  0.00  0.00    +0.025 C 
ATOM      6  C   LIG    1       -1.047  -1.869  -5.713  0.00  0.00    +0.118 C 
ATOM      7  C   LIG    1       -2.029  -1.521  -6.833  0.00  0.00    +0.035 C 
ATOM      8  C   LIG    1       -1.615  -0.199  -7.483  0.00  0.00    +0.000 C 
ATOM      9  C   LIG    1       -1.641   0.939  -6.406  0.00  0.00    -0.026 C 
ATOM     10  C   LIG    1       -3.039   1.081  -5.802  0.00  0.00    +0.012 C 
ATOM     11  C   LIG    1       -1.224   2.259  -7.058  0.00  0.00    +0.010 C 
ATOM     12  C   LIG    1        0.179   2.112  -7.651  0.00  0.00    +0.032 C 
ATOM     13  C   LIG    1        0.174   1.003  -8.705  0.00  0.00    +0.115 C 
ATOM     14  C   LIG    1       -0.205  -0.335  -8.060  0.00  0.00    +0.035 C 
ATOM     15  C   LIG    1       -0.642   0.578  -5.306  0.00  0.00    +0.001 C 
ATOM     16  C   LIG    1       -0.556   1.709  -4.287  0.00  0.00    +0.005 C 
ATOM     17  C   LIG    1        0.372   1.339  -3.117  0.00  0.00    +0.007 C 
ATOM     18  C   LIG    1       -0.169   0.066  -2.498  0.00  0.00    -0.026 C 
ATOM     19  C   LIG    1       -1.636   0.262  -2.110  0.00  0.00    +0.012 C 
ENDROOT
BRANCH   1  21
ATOM     20  C   LIG    1        0.206   1.513   0.115  0.00  0.00    +0.008 C 
ATOM     21  C   LIG    1        0.003   0.001   0.002  0.00  0.00    -0.010 C 
BRANCH  21  22
ATOM     22  C   LIG    1        0.692  -0.695   1.177  0.00  0.00    +0.013 C 
BRANCH  22  23
ATOM     23  C   LIG    1        0.006  -0.290   2.483  0.00  0.00    +0.096 C 
BRANCH  23  24
ATOM     24  C   LIG    1        0.685  -0.976   3.641  0.00  0.00    +0.213 C 
ATOM     25  N   LIG    1        0.248  -0.767   4.899  0.00  0.00    -0.312 N 
ATOM     26  H   LIG    1       -0.504  -0.176   5.059  0.00  0.00    +0.149 HD
ATOM     27  O   LIG    1        1.625  -1.716   3.441  0.00  0.00    -0.276 OA
BRANCH  25  28
ATOM     28  C   LIG    1        0.908  -1.434   6.024  0.00  0.00    +0.073 C 
ATOM     29  C   LIG    1        0.015  -2.046   7.105  0.00  0.00    +0.024 C 
ATOM     30  C   LIG    1        0.806  -0.769   7.398  0.00  0.00    +0.024 C 
ENDBRANCH  25  28
ENDBRANCH  23  24
ENDBRANCH  22  23
ENDBRANCH  21  22
ENDBRANCH   1  21
BRANCH   6  31
ATOM     31  O   LIG    1       -1.434  -3.104  -5.107  0.00  0.00    -0.391 OA
ATOM     32  H   LIG    1       -1.447  -3.854  -5.718  0.00  0.00    +0.210 HD
ENDBRANCH   6  31
BRANCH  13  33
ATOM     33  O   LIG    1        1.485   0.865  -9.257  0.00  0.00    -0.392 OA
ATOM     34  H   LIG    1        1.818   1.665  -9.686  0.00  0.00    +0.210 HD
ENDBRANCH  13  33
TORSDOF 7
