REMARK  Name = ZINC16958043
REMARK                            x       y       z     vdW  Elec       q    Type
REMARK                         _______ _______ _______ _____ _____    ______ ____
ROOT
ATOM      1  C   LIG    1       -3.030  -6.314   1.088  0.00  0.00    +0.192 C 
ATOM      2  C   LIG    1       -4.005  -7.055   1.751  0.00  0.00    +0.106 C 
ENDROOT
BRANCH   2   3
ATOM      3  C   LIG    1       -4.077  -8.515   1.562  0.00  0.00    +0.143 A 
ATOM      4  C   LIG    1       -5.123  -9.096   0.698  0.00  0.00    +0.276 A 
ATOM      5  O   LIG    1       -5.930  -8.378   0.138  0.00  0.00    -0.266 OA
ATOM      6  N   LIG    1       -5.172 -10.436   0.537  0.00  0.00    -0.319 N 
ATOM      7  H   LIG    1       -5.851 -10.840  -0.026  0.00  0.00    +0.169 HD
ATOM      8  C   LIG    1       -4.241 -11.226   1.187  0.00  0.00    +0.068 A 
ATOM      9  C   LIG    1       -4.270 -12.608   1.037  0.00  0.00    +0.028 A 
ATOM     10  C   LIG    1       -3.338 -13.389   1.687  0.00  0.00    +0.002 A 
ATOM     11  C   LIG    1       -2.369 -12.806   2.493  0.00  0.00    +0.002 A 
ATOM     12  C   LIG    1       -2.321 -11.452   2.655  0.00  0.00    +0.030 A 
ATOM     13  C   LIG    1       -3.258 -10.634   2.003  0.00  0.00    +0.088 A 
ATOM     14  N   LIG    1       -3.207  -9.299   2.158  0.00  0.00    -0.240 NA
ENDBRANCH   2   3
BRANCH   1  16
ATOM     15  N   LIG    1       -2.030  -4.162   0.681  0.00  0.00    -0.210 NA
ATOM     16  C   LIG    1       -2.860  -4.887   1.390  0.00  0.00    +0.257 C 
BRANCH  15  21
ATOM     17  C   LIG    1       -0.441  -0.924   1.304  0.00  0.00    +0.019 A 
ATOM     18  C   LIG    1       -1.572  -0.132   1.539  0.00  0.00    +0.011 A 
ATOM     19  C   LIG    1       -2.833  -0.690   1.484  0.00  0.00    +0.003 A 
ATOM     20  C   LIG    1       -2.992  -2.031   1.199  0.00  0.00    +0.028 A 
ATOM     21  C   LIG    1       -1.872  -2.837   0.962  0.00  0.00    +0.068 A 
ATOM     22  C   LIG    1       -0.592  -2.279   1.009  0.00  0.00    +0.039 A 
BRANCH  17  24
ATOM     23  C   LIG    1        1.064   1.137   1.683  0.00  0.00    +0.091 C 
ATOM     24  C   LIG    1        0.903  -0.327   1.363  0.00  0.00    +0.160 C 
ATOM     25  O   LIG    1        1.881  -1.013   1.155  0.00  0.00    -0.292 OA
ENDBRANCH  17  24
ENDBRANCH  15  21
BRANCH  16  26
ATOM     26  O   LIG    1       -3.560  -4.321   2.402  0.00  0.00    -0.490 OA
ATOM     27  H   LIG    1       -3.451  -3.411   2.595  0.00  0.00    +0.294 HD
ENDBRANCH  16  26
ENDBRANCH   1  16
BRANCH   2  28
ATOM     28  C   LIG    1       -4.957  -6.385   2.636  0.00  0.00    +0.275 C 
ATOM     29  O   LIG    1       -5.781  -5.620   2.174  0.00  0.00    -0.279 OA
BRANCH  28  30
ATOM     30  C   LIG    1       -4.916  -6.638   4.103  0.00  0.00    +0.380 C 
ATOM     31  O   LIG    1       -4.033  -7.323   4.576  0.00  0.00    -0.241 OA
BRANCH  30  32
ATOM     32  O   LIG    1       -5.859  -6.109   4.904  0.00  0.00    -0.462 OA
ATOM     33  C   LIG    1       -5.759  -6.393   6.301  0.00  0.00    +0.280 C 
ENDBRANCH  30  32
ENDBRANCH  28  30
ENDBRANCH   2  28
BRANCH   1  34
ATOM     34  O   LIG    1       -2.241  -6.907   0.167  0.00  0.00    -0.502 OA
ATOM     35  H   LIG    1       -1.585  -6.409  -0.280  0.00  0.00    +0.292 HD
ENDBRANCH   1  34
TORSDOF 9
