REMARK  Name = ZINC15564548
REMARK                            x       y       z     vdW  Elec       q    Type
REMARK                         _______ _______ _______ _____ _____    ______ ____
ROOT
ATOM      1  N   LIG    1       -5.516   8.962   0.108  0.00  0.00    -0.312 N 
ATOM      2  H   LIG    1       -6.101   8.188   0.109  0.00  0.00    +0.149 HD
ATOM      3  C   LIG    1       -4.179   8.795   0.093  0.00  0.00    +0.223 C 
ATOM      4  O   LIG    1       -3.447   9.761   0.091  0.00  0.00    -0.275 OA
ENDROOT
BRANCH   1   9
ATOM      5  N   LIG    1       -8.175  12.101   1.014  0.00  0.00    +0.382 N 
ATOM      6  H   LIG    1       -8.702  11.398   1.546  0.00  0.00    -0.081 HD
ATOM      7  C   LIG    1       -6.812  12.206   1.577  0.00  0.00    -0.077 C 
ATOM      8  C   LIG    1       -6.161  10.821   1.563  0.00  0.00    +0.003 C 
ATOM      9  C   LIG    1       -6.085  10.312   0.121  0.00  0.00    +0.069 C 
ATOM     10  C   LIG    1       -7.495  10.278  -0.474  0.00  0.00    +0.003 C 
ATOM     11  C   LIG    1       -8.108  11.679  -0.402  0.00  0.00    -0.077 C 
BRANCH   5  12
ATOM     12  C   LIG    1       -8.867  13.402   1.120  0.00  0.00    -0.043 C 
BRANCH  12  16
ATOM     13  C   LIG    1       -9.571  14.251   5.247  0.00  0.00    +0.000 A 
ATOM     14  C   LIG    1       -8.408  14.688   4.640  0.00  0.00    +0.000 A 
ATOM     15  C   LIG    1       -8.180  14.412   3.304  0.00  0.00    +0.002 A 
ATOM     16  C   LIG    1       -9.115  13.701   2.576  0.00  0.00    -0.064 A 
ATOM     17  C   LIG    1      -10.280  13.270   3.181  0.00  0.00    +0.002 A 
ATOM     18  C   LIG    1      -10.506  13.540   4.518  0.00  0.00    +0.000 A 
ENDBRANCH  12  16
ENDBRANCH   5  12
ENDBRANCH   1   9
BRANCH   3  19
ATOM     19  C   LIG    1       -3.593   7.406   0.080  0.00  0.00    +0.172 C 
BRANCH  19  20
ATOM     20  S   LIG    1       -1.786   7.513   0.062  0.00  0.00    -0.089 S 
BRANCH  20  21
ATOM     21  C   LIG    1       -1.378   5.799   0.048  0.00  0.00    +0.136 A 
ATOM     22  N   LIG    1       -0.191   5.235   0.033  0.00  0.00    -0.233 NA
ATOM     23  C   LIG    1       -0.027   3.894   0.023  0.00  0.00    +0.079 A 
ATOM     24  C   LIG    1        1.184   3.163   0.007  0.00  0.00    +0.029 A 
ATOM     25  C   LIG    1        1.175   1.793   0.001  0.00  0.00    +0.002 A 
ATOM     26  C   LIG    1       -0.013   1.076   0.008  0.00  0.00    +0.001 A 
ATOM     27  C   LIG    1       -1.216   1.758   0.017  0.00  0.00    +0.017 A 
ATOM     28  C   LIG    1       -1.216   3.130   0.031  0.00  0.00    +0.040 A 
ATOM     29  S   LIG    1       -2.473   4.386   0.051  0.00  0.00    -0.061 S 
ENDBRANCH  20  21
ENDBRANCH  19  20
ENDBRANCH   3  19
TORSDOF 6
