REMARK  Name = ZINC13761494
REMARK                            x       y       z     vdW  Elec       q    Type
REMARK                         _______ _______ _______ _____ _____    ______ ____
ROOT
ATOM      1  C   LIG    1       -0.018   1.507   0.010  0.00  0.00    +0.264 C 
ATOM      2  C   LIG    1        0.002  -0.004   0.002  0.00  0.00    +0.025 C 
ATOM      3  C   LIG    1        1.293  -0.375  -0.012  0.00  0.00    +0.072 C 
ATOM      4  C   LIG    1        2.142   0.828  -0.014  0.00  0.00    +0.343 C 
ATOM      5  O   LIG    1        3.356   0.824  -0.026  0.00  0.00    -0.245 OA
ATOM      6  O   LIG    1        1.373   1.931  -0.001  0.00  0.00    -0.421 OA
ENDROOT
BRANCH   3   7
ATOM      7  C   LIG    1        1.785  -1.774  -0.025  0.00  0.00    -0.007 A 
ATOM      8  C   LIG    1        1.525  -2.596  -1.120  0.00  0.00    +0.012 A 
ATOM      9  C   LIG    1        1.983  -3.898  -1.131  0.00  0.00    +0.050 A 
ATOM     10  C   LIG    1        2.703  -4.392  -0.053  0.00  0.00    +0.166 A 
ATOM     11  C   LIG    1        2.965  -3.575   1.045  0.00  0.00    +0.167 A 
ATOM     12  O   LIG    1        3.681  -4.291   1.960  0.00  0.00    -0.453 OA
ATOM     13  C   LIG    1        4.206  -5.421   1.239  0.00  0.00    +0.466 C 
ATOM     14  O   LIG    1        3.255  -5.620   0.176  0.00  0.00    -0.453 OA
ATOM     15  C   LIG    1        2.512  -2.268   1.057  0.00  0.00    +0.058 A 
ENDBRANCH   3   7
BRANCH   1  19
ATOM     16  C   LIG    1       -2.028   2.968  -3.466  0.00  0.00    +0.120 A 
ATOM     17  C   LIG    1       -2.744   2.713  -2.305  0.00  0.00    +0.046 A 
ATOM     18  C   LIG    1       -2.092   2.240  -1.183  0.00  0.00    +0.014 A 
ATOM     19  C   LIG    1       -0.727   2.022  -1.216  0.00  0.00    +0.028 A 
ATOM     20  C   LIG    1       -0.011   2.280  -2.369  0.00  0.00    +0.014 A 
ATOM     21  C   LIG    1       -0.659   2.748  -3.497  0.00  0.00    +0.046 A 
BRANCH  16  23
ATOM     22  C   LIG    1       -1.867   3.674  -5.731  0.00  0.00    +0.277 C 
ATOM     23  O   LIG    1       -2.667   3.434  -4.572  0.00  0.00    -0.495 OA
ENDBRANCH  16  23
ENDBRANCH   1  19
BRANCH   1  24
ATOM     24  O   LIG    1       -0.668   1.983   1.191  0.00  0.00    -0.348 OA
ATOM     25  H   LIG    1       -0.713   2.946   1.254  0.00  0.00    +0.215 HD
ENDBRANCH   1  24
BRANCH   2  26
ATOM     26  C   LIG    1       -1.196  -0.919   0.009  0.00  0.00    +0.073 C 
BRANCH  26  27
ATOM     27  C   LIG    1       -1.656  -1.133   1.427  0.00  0.00    -0.041 A 
ATOM     28  C   LIG    1       -1.147  -2.183   2.168  0.00  0.00    +0.004 A 
ATOM     29  C   LIG    1       -1.566  -2.377   3.471  0.00  0.00    +0.002 A 
ATOM     30  C   LIG    1       -2.502  -1.526   4.030  0.00  0.00    +0.032 A 
ATOM     31  C   LIG    1       -3.015  -0.480   3.287  0.00  0.00    +0.122 A 
ATOM     32  C   LIG    1       -2.592  -0.283   1.986  0.00  0.00    +0.036 A 
BRANCH  31  33
ATOM     33  N   LIG    1       -4.018   0.430   3.885  0.00  0.00    +0.006 N 
ATOM     34  O   LIG    1       -4.471   1.352   3.230  0.00  0.00    -0.130 OA
BRANCH  33  35
ATOM     35  O   LIG    1       -4.391   0.257   5.031  0.00  0.00    -0.396 OA
ATOM     36  H   LIG    1       -4.043  -0.452   5.535  0.00  0.00    +0.329 HD
ENDBRANCH  33  35
ENDBRANCH  31  33
ENDBRANCH  26  27
ENDBRANCH   2  26
TORSDOF 8
