REMARK  Name = ZINC00066436
REMARK                            x       y       z     vdW  Elec       q    Type
REMARK                         _______ _______ _______ _____ _____    ______ ____
ROOT
ATOM      1  N   LIG    1       -3.932   6.548   0.333  0.00  0.00    +0.382 N 
ATOM      2  H   LIG    1       -3.434   6.916  -0.486  0.00  0.00    -0.081 HD
ATOM      3  C   LIG    1       -4.427   5.190   0.023  0.00  0.00    -0.077 C 
ATOM      4  C   LIG    1       -3.248   4.318  -0.412  0.00  0.00    +0.003 C 
ATOM      5  C   LIG    1       -2.225   4.247   0.726  0.00  0.00    +0.068 C 
ATOM      6  C   LIG    1       -1.775   5.665   1.087  0.00  0.00    +0.003 C 
ATOM      7  C   LIG    1       -2.998   6.498   1.478  0.00  0.00    -0.077 C 
ENDROOT
BRANCH   5   8
ATOM      8  N   LIG    1       -1.066   3.461   0.294  0.00  0.00    -0.324 N 
ATOM      9  H   LIG    1       -0.287   3.907  -0.073  0.00  0.00    +0.148 HD
BRANCH   8  10
ATOM     10  C   LIG    1       -1.083   2.118   0.407  0.00  0.00    +0.135 C 
ATOM     11  S   LIG    1       -2.458   1.330   1.055  0.00  0.00    -0.019 S 
BRANCH  10  12
ATOM     12  N   LIG    1       -0.017   1.395   0.010  0.00  0.00    -0.296 N 
ATOM     13  H   LIG    1        0.784   1.844  -0.303  0.00  0.00    +0.154 HD
BRANCH  12  14
ATOM     14  C   LIG    1       -0.068  -0.003   0.044  0.00  0.00    +0.051 A 
ATOM     15  C   LIG    1       -0.585  -0.664   1.155  0.00  0.00    +0.026 A 
ATOM     16  C   LIG    1       -0.618  -2.049   1.140  0.00  0.00    +0.021 A 
ATOM     17  C   LIG    1       -0.132  -2.724   0.035  0.00  0.00    +0.111 A 
ATOM     18  N   LIG    1        0.356  -2.068  -0.999  0.00  0.00    -0.261 NA
ATOM     19  C   LIG    1        0.402  -0.751  -1.028  0.00  0.00    +0.134 A 
ENDBRANCH  12  14
ENDBRANCH  10  12
ENDBRANCH   8  10
ENDBRANCH   5   8
BRANCH   1  20
ATOM     20  C   LIG    1       -5.067   7.440   0.646  0.00  0.00    -0.043 C 
BRANCH  20  24
ATOM     21  C   LIG    1       -7.377   8.022  -2.899  0.00  0.00    +0.000 A 
ATOM     22  C   LIG    1       -7.686   6.988  -2.035  0.00  0.00    +0.000 A 
ATOM     23  C   LIG    1       -6.938   6.800  -0.888  0.00  0.00    +0.002 A 
ATOM     24  C   LIG    1       -5.882   7.645  -0.605  0.00  0.00    -0.064 A 
ATOM     25  C   LIG    1       -5.577   8.682  -1.466  0.00  0.00    +0.002 A 
ATOM     26  C   LIG    1       -6.321   8.867  -2.616  0.00  0.00    +0.000 A 
ENDBRANCH  20  24
ENDBRANCH   1  20
TORSDOF 6
