REMARK  Name = ZINC36176322
REMARK                            x       y       z     vdW  Elec       q    Type
REMARK                         _______ _______ _______ _____ _____    ______ ____
ROOT
ATOM      1  N   LIG    1        0.028  -2.771  -2.419  0.00  0.00    -0.285 N 
ATOM      2  H   LIG    1        0.099  -2.273  -3.248  0.00  0.00    +0.155 HD
ENDROOT
BRANCH   1   6
ATOM      3  C   LIG    1        0.678   1.213   0.387  0.00  0.00    +0.044 C 
ATOM      4  C   LIG    1        0.104  -0.163   0.172  0.00  0.00    -0.037 A 
ATOM      5  C   LIG    1        0.331  -0.828  -1.018  0.00  0.00    +0.027 A 
ATOM      6  C   LIG    1       -0.199  -2.096  -1.215  0.00  0.00    +0.034 A 
ATOM      7  C   LIG    1       -0.956  -2.693  -0.215  0.00  0.00    +0.024 A 
ATOM      8  C   LIG    1       -1.179  -2.023   0.972  0.00  0.00    +0.014 A 
ATOM      9  C   LIG    1       -0.645  -0.762   1.168  0.00  0.00    +0.058 A 
BRANCH   9  10
ATOM     10  C   LIG    1       -0.885  -0.037   2.467  0.00  0.00    +0.418 C 
ATOM     11  F   LIG    1       -1.557   1.163   2.214  0.00  0.00    -0.166 F 
ATOM     12  F   LIG    1        0.341   0.235   3.083  0.00  0.00    -0.166 F 
ATOM     13  F   LIG    1       -1.663  -0.838   3.311  0.00  0.00    -0.166 F 
ENDBRANCH   9  10
ENDBRANCH   1   6
BRANCH   1  14
ATOM     14  C   LIG    1        0.149  -4.126  -2.426  0.00  0.00    +0.203 C 
ATOM     15  C   LIG    1        0.257  -4.811  -3.640  0.00  0.00    +0.151 C 
BRANCH  15  16
ATOM     16  C   LIG    1        0.383  -6.215  -3.648  0.00  0.00    +0.181 C 
ATOM     17  O   LIG    1        0.397  -6.830  -2.600  0.00  0.00    -0.291 OA
BRANCH  16  18
ATOM     18  C   LIG    1        0.500  -6.954  -4.956  0.00  0.00    +0.061 C 
ATOM     19  C   LIG    1        1.459  -8.144  -5.012  0.00  0.00    +0.012 C 
ATOM     20  C   LIG    1       -0.053  -8.379  -5.014  0.00  0.00    +0.012 C 
ENDBRANCH  16  18
ENDBRANCH  15  16
BRANCH  15  21
ATOM     21  C   LIG    1        0.241  -4.087  -4.875  0.00  0.00    +0.108 C 
ATOM     22  N   LIG    1        0.228  -3.513  -5.855  0.00  0.00    -0.191 NA
ENDBRANCH  15  21
BRANCH  14  23
ATOM     23  O   LIG    1        0.164  -4.807  -1.265  0.00  0.00    -0.494 OA
ATOM     24  H   LIG    1        0.092  -4.348  -0.452  0.00  0.00    +0.294 HD
ENDBRANCH  14  23
ENDBRANCH   1  14
TORSDOF 7
