REMARK  Name = ZINC15821674
REMARK                            x       y       z     vdW  Elec       q    Type
REMARK                         _______ _______ _______ _____ _____    ______ ____
ROOT
ATOM      1  C   LIG    1        1.153   3.594   0.011  0.00  0.00    +0.139 C 
ENDROOT
BRANCH   1   2
ATOM      2  C   LIG    1        0.963   4.219  -1.347  0.00  0.00    +0.022 A 
ATOM      3  C   LIG    1        1.089   3.432  -2.488  0.00  0.00    +0.030 A 
ATOM      4  C   LIG    1        0.924   3.967  -3.730  0.00  0.00    +0.051 A 
ATOM      5 CL   LIG    1        1.085   2.967  -5.140  0.00  0.00    -0.083 Cl
ATOM      6  C   LIG    1        0.622   5.333  -3.865  0.00  0.00    +0.022 A 
ATOM      7  C   LIG    1        0.443   5.922  -5.131  0.00  0.00    +0.013 A 
ATOM      8  C   LIG    1        0.150   7.255  -5.186  0.00  0.00    +0.020 A 
ATOM      9  C   LIG    1        0.037   7.991  -4.008  0.00  0.00    +0.111 A 
ATOM     10  N   LIG    1        0.204   7.438  -2.831  0.00  0.00    -0.251 NA
ATOM     11  C   LIG    1        0.492   6.139  -2.708  0.00  0.00    +0.114 A 
ATOM     12  C   LIG    1        0.665   5.549  -1.439  0.00  0.00    +0.148 A 
BRANCH  12  13
ATOM     13  O   LIG    1        0.541   6.300  -0.313  0.00  0.00    -0.504 OA
ATOM     14  H   LIG    1        1.367   6.708  -0.020  0.00  0.00    +0.292 HD
ENDBRANCH  12  13
ENDBRANCH   1   2
BRANCH   1  15
ATOM     15  C   LIG    1        1.061   2.094  -0.110  0.00  0.00    -0.004 A 
ATOM     16  C   LIG    1        2.209   1.343  -0.283  0.00  0.00    +0.007 A 
ATOM     17  C   LIG    1        2.125  -0.032  -0.394  0.00  0.00    +0.000 A 
ATOM     18  C   LIG    1        0.894  -0.657  -0.331  0.00  0.00    +0.001 A 
ATOM     19  C   LIG    1       -0.254   0.092  -0.157  0.00  0.00    +0.020 A 
ATOM     20  C   LIG    1       -0.171   1.469  -0.046  0.00  0.00    +0.046 A 
ATOM     21 CL   LIG    1       -1.613   2.412   0.165  0.00  0.00    -0.083 Cl
ENDBRANCH   1  15
BRANCH   1  23
ATOM     22  C   LIG    1        2.679   3.982   1.870  0.00  0.00    +0.251 C 
ATOM     23  N   LIG    1        2.469   3.962   0.539  0.00  0.00    -0.302 N 
ATOM     24  H   LIG    1        3.188   4.191  -0.069  0.00  0.00    +0.150 HD
ATOM     25  O   LIG    1        1.778   3.696   2.631  0.00  0.00    -0.272 OA
BRANCH  22  26
ATOM     26  C   LIG    1        4.032   4.361   2.414  0.00  0.00    +0.324 C 
BRANCH  26  27
ATOM     27  O   LIG    1        4.004   4.309   3.841  0.00  0.00    -0.483 OA
BRANCH  27  31
ATOM     28  C   LIG    1        7.495   5.268   5.820  0.00  0.00    +0.000 A 
ATOM     29  C   LIG    1        6.368   4.916   6.540  0.00  0.00    +0.004 A 
ATOM     30  C   LIG    1        5.198   4.595   5.879  0.00  0.00    +0.045 A 
ATOM     31  C   LIG    1        5.154   4.625   4.493  0.00  0.00    +0.121 A 
ATOM     32  C   LIG    1        6.288   4.972   3.773  0.00  0.00    +0.045 A 
ATOM     33  C   LIG    1        7.454   5.298   4.438  0.00  0.00    +0.004 A 
ENDBRANCH  27  31
ENDBRANCH  26  27
ENDBRANCH  22  26
ENDBRANCH   1  23
TORSDOF 7
