REMARK  Name = ZINC33861415
REMARK                            x       y       z     vdW  Elec       q    Type
REMARK                         _______ _______ _______ _____ _____    ______ ____
ROOT
ATOM      1  C   LIG    1       -8.570 -12.134   0.019  0.00  0.00    +0.339 C 
ATOM      2  O   LIG    1       -7.597 -12.861   0.005  0.00  0.00    -0.245 OA
ENDROOT
BRANCH   1   3
ATOM      3  C   LIG    1       -9.925 -12.716   0.029  0.00  0.00    +0.066 A 
ATOM      4  C   LIG    1      -11.046 -11.881   0.038  0.00  0.00    +0.064 A 
ATOM      5  C   LIG    1      -12.314 -12.429   0.047  0.00  0.00    +0.163 A 
ATOM      6  C   LIG    1      -12.477 -13.812   0.048  0.00  0.00    +0.201 A 
ATOM      7  C   LIG    1      -11.362 -14.647   0.039  0.00  0.00    +0.163 A 
ATOM      8  C   LIG    1      -10.091 -14.104   0.023  0.00  0.00    +0.064 A 
BRANCH   7   9
ATOM      9  O   LIG    1      -11.524 -15.997   0.040  0.00  0.00    -0.503 OA
ATOM     10  H   LIG    1      -11.578 -16.387  -0.844  0.00  0.00    +0.292 HD
ENDBRANCH   7   9
BRANCH   6  11
ATOM     11  O   LIG    1      -13.725 -14.349   0.057  0.00  0.00    -0.501 OA
ATOM     12  H   LIG    1      -14.093 -14.504  -0.824  0.00  0.00    +0.292 HD
ENDBRANCH   6  11
BRANCH   5  13
ATOM     13  O   LIG    1      -13.405 -11.617   0.056  0.00  0.00    -0.503 OA
ATOM     14  H   LIG    1      -13.728 -11.382  -0.824  0.00  0.00    +0.292 HD
ENDBRANCH   5  13
ENDBRANCH   1   3
BRANCH   1  15
ATOM     15  O   LIG    1       -8.412 -10.796   0.024  0.00  0.00    -0.461 OA
BRANCH  15  16
ATOM     16  C   LIG    1       -7.071 -10.301   0.014  0.00  0.00    +0.232 C 
BRANCH  16  17
ATOM     17  C   LIG    1       -7.092  -8.771   0.023  0.00  0.00    +0.041 C 
BRANCH  17  18
ATOM     18  C   LIG    1       -5.657  -8.242   0.012  0.00  0.00    +0.003 C 
BRANCH  18  19
ATOM     19  C   LIG    1       -5.677  -6.712   0.020  0.00  0.00    +0.000 C 
BRANCH  19  20
ATOM     20  C   LIG    1       -4.242  -6.182   0.009  0.00  0.00    +0.000 C 
BRANCH  20  21
ATOM     21  C   LIG    1       -4.263  -4.652   0.018  0.00  0.00    +0.000 C 
BRANCH  21  22
ATOM     22  C   LIG    1       -2.827  -4.123   0.007  0.00  0.00    -0.000 C 
BRANCH  22  23
ATOM     23  C   LIG    1       -2.848  -2.593   0.015  0.00  0.00    -0.000 C 
BRANCH  23  24
ATOM     24  C   LIG    1       -1.413  -2.063   0.004  0.00  0.00    -0.000 C 
BRANCH  24  25
ATOM     25  C   LIG    1       -1.433  -0.534   0.013  0.00  0.00    -0.000 C 
BRANCH  25  27
ATOM     26  C   LIG    1       -0.019   1.526   0.010  0.00  0.00    +0.004 C 
ATOM     27  C   LIG    1        0.002  -0.004   0.002  0.00  0.00    -0.003 C 
ENDBRANCH  25  27
ENDBRANCH  24  25
ENDBRANCH  23  24
ENDBRANCH  22  23
ENDBRANCH  21  22
ENDBRANCH  20  21
ENDBRANCH  19  20
ENDBRANCH  18  19
ENDBRANCH  17  18
ENDBRANCH  16  17
ENDBRANCH  15  16
ENDBRANCH   1  15
TORSDOF 16
