REMARK  Name = ZINC18115268
REMARK                            x       y       z     vdW  Elec       q    Type
REMARK                         _______ _______ _______ _____ _____    ______ ____
ROOT
ATOM      1  C   LIG    1        3.358   0.156  -3.931  0.00  0.00    +0.110 C 
ENDROOT
BRANCH   1   2
ATOM      2  S   LIG    1        1.594   0.191  -3.510  0.00  0.00    -0.151 S 
BRANCH   2   3
ATOM      3  C   LIG    1        1.282   1.922  -3.066  0.00  0.00    +0.124 C 
BRANCH   3   6
ATOM      4  C   LIG    1        0.058   1.615  -0.202  0.00  0.00    +0.067 C 
ATOM      5  C   LIG    1       -0.698   1.961  -1.459  0.00  0.00    +0.060 A 
ATOM      6  C   LIG    1       -0.167   2.091  -2.690  0.00  0.00    +0.048 A 
ATOM      7  N   LIG    1       -1.198   2.407  -3.534  0.00  0.00    -0.347 N 
ATOM      8  H   LIG    1       -1.132   2.565  -4.489  0.00  0.00    +0.167 HD
ATOM      9  C   LIG    1       -2.323   2.459  -2.789  0.00  0.00    +0.196 A 
ATOM     10  N   LIG    1       -2.017   2.186  -1.550  0.00  0.00    -0.241 NA
ENDBRANCH   3   6
ENDBRANCH   2   3
ENDBRANCH   1   2
BRANCH   1  11
ATOM     11  C   LIG    1        3.759  -1.266  -4.329  0.00  0.00    +0.254 C 
BRANCH  11  12
ATOM     12  N   LIG    1        5.184  -1.294  -4.670  0.00  0.00    -0.112 NA
ATOM     13  C   LIG    1        6.009  -2.009  -3.960  0.00  0.00    +0.395 C 
BRANCH  13  14
ATOM     14  N   LIG    1        7.361  -1.942  -4.202  0.00  0.00    -0.278 N 
ATOM     15  H   LIG    1        7.700  -1.361  -4.901  0.00  0.00    +0.258 HD
ATOM     16  C   LIG    1        8.289  -2.747  -3.404  0.00  0.00    +0.239 C 
ENDBRANCH  13  14
BRANCH  13  17
ATOM     17  N   LIG    1        5.527  -2.835  -2.966  0.00  0.00    -0.178 N 
ATOM     18  H   LIG    1        4.570  -2.948  -2.851  0.00  0.00    +0.278 HD
BRANCH  17  19
ATOM     19  C   LIG    1        6.389  -3.487  -2.149  0.00  0.00    +0.255 C 
ATOM     20  N   LIG    1        7.112  -4.035  -1.465  0.00  0.00    -0.154 NA
ENDBRANCH  17  19
ENDBRANCH  13  17
ENDBRANCH  11  12
ENDBRANCH   1  11
TORSDOF 8
