REMARK  Name = ZINC24809155
REMARK                            x       y       z     vdW  Elec       q    Type
REMARK                         _______ _______ _______ _____ _____    ______ ____
ROOT
ATOM      1  C   LIG    1        2.055   5.740   3.488  0.00  0.00    -0.017 A 
ATOM      2  C   LIG    1        3.089   6.488   2.945  0.00  0.00    +0.008 A 
ATOM      3  C   LIG    1        3.470   6.313   1.632  0.00  0.00    +0.027 A 
ATOM      4  C   LIG    1        2.810   5.378   0.841  0.00  0.00    +0.052 A 
ATOM      5  C   LIG    1        1.763   4.622   1.396  0.00  0.00    +0.007 A 
ATOM      6  C   LIG    1        1.073   3.634   0.550  0.00  0.00    -0.004 A 
ATOM      7  C   LIG    1        1.487   3.489  -0.747  0.00  0.00    +0.079 A 
ATOM      8  C   LIG    1        2.538   4.280  -1.245  0.00  0.00    +0.252 A 
ATOM      9  O   LIG    1        2.888   4.139  -2.404  0.00  0.00    -0.268 OA
ATOM     10  N   LIG    1        3.170   5.182  -0.476  0.00  0.00    -0.311 N 
ATOM     11  C   LIG    1        4.262   5.974  -1.048  0.00  0.00    +0.152 C 
ATOM     12  C   LIG    1        1.394   4.815   2.729  0.00  0.00    +0.016 A 
ENDROOT
BRANCH   6  13
ATOM     13  C   LIG    1       -0.035   2.814   1.090  0.00  0.00    -0.016 A 
ATOM     14  C   LIG    1        0.108   1.430   1.203  0.00  0.00    +0.008 A 
ATOM     15  C   LIG    1       -0.927   0.671   1.707  0.00  0.00    +0.002 A 
ATOM     16  C   LIG    1       -2.108   1.278   2.096  0.00  0.00    +0.020 A 
ATOM     17  C   LIG    1       -2.255   2.651   1.992  0.00  0.00    +0.042 A 
ATOM     18 CL   LIG    1       -3.738   3.404   2.489  0.00  0.00    -0.084 Cl
ATOM     19  C   LIG    1       -1.225   3.422   1.489  0.00  0.00    +0.028 A 
ENDBRANCH   6  13
BRANCH   1  20
ATOM     20  C   LIG    1        1.656   5.948   4.926  0.00  0.00    +0.110 C 
BRANCH  20  27
ATOM     21  C   LIG    1        4.096   4.059   5.491  0.00  0.00    +0.150 C 
ATOM     22  N   LIG    1        3.940   5.429   5.985  0.00  0.00    -0.337 N 
ATOM     23  C   LIG    1        4.814   6.106   6.761  0.00  0.00    +0.173 A 
ATOM     24  N   LIG    1        4.332   7.295   6.995  0.00  0.00    -0.352 N 
ATOM     25  H   LIG    1        4.896   8.005   7.617  0.00  0.00    +0.166 HD
ATOM     26  C   LIG    1        3.147   7.421   6.379  0.00  0.00    +0.107 A 
ATOM     27  C   LIG    1        2.881   6.263   5.746  0.00  0.00    +0.065 A 
ENDBRANCH  20  27
BRANCH  20  28
ATOM     28  C   LIG    1        0.682   7.094   5.017  0.00  0.00    -0.017 A 
ATOM     29  C   LIG    1        0.949   8.281   4.359  0.00  0.00    +0.007 A 
ATOM     30  C   LIG    1        0.053   9.330   4.438  0.00  0.00    +0.020 A 
ATOM     31  C   LIG    1       -1.105   9.197   5.184  0.00  0.00    +0.041 A 
ATOM     32 CL   LIG    1       -2.227  10.518   5.288  0.00  0.00    -0.084 Cl
ATOM     33  C   LIG    1       -1.368   8.012   5.846  0.00  0.00    +0.020 A 
ATOM     34  C   LIG    1       -0.474   6.961   5.763  0.00  0.00    +0.007 A 
ENDBRANCH  20  28
BRANCH  20  35
ATOM     35  N   LIG    1        1.024   4.726   5.441  0.00  0.00    -0.313 NA
ATOM     36  H   LIG    1        1.735   3.889   5.375  0.00  0.00    +0.120 HD
ATOM     37  H   LIG    1        0.130   4.496   4.843  0.00  0.00    +0.120 HD
ENDBRANCH  20  35
ENDBRANCH   1  20
TORSDOF 5
