REMARK  Name = ZINC48605116
REMARK                            x       y       z     vdW  Elec       q    Type
REMARK                         _______ _______ _______ _____ _____    ______ ____
ROOT
ATOM      1  N   LIG    1       -3.539  -0.925   1.010  0.00  0.00    -0.305 N 
ATOM      2  H   LIG    1       -3.710  -1.605   0.341  0.00  0.00    +0.149 HD
ATOM      3  C   LIG    1       -4.544  -0.478   1.789  0.00  0.00    +0.300 C 
ATOM      4  O   LIG    1       -4.330   0.374   2.627  0.00  0.00    -0.265 OA
ENDROOT
BRANCH   1   9
ATOM      5  C   LIG    1       -0.007   1.519   0.036  0.00  0.00    -0.010 C 
ATOM      6  C   LIG    1        0.008  -0.013   0.017  0.00  0.00    -0.072 C 
ATOM      7  C   LIG    1        0.798  -0.443  -1.241  0.00  0.00    -0.010 C 
ATOM      8  C   LIG    1       -1.415  -0.541  -0.135  0.00  0.00    +0.009 C 
ATOM      9  C   LIG    1       -2.185  -0.382   1.175  0.00  0.00    +0.071 C 
ATOM     10  C   LIG    1       -1.453  -1.174   2.258  0.00  0.00    +0.009 C 
ATOM     11  C   LIG    1       -0.030  -0.651   2.429  0.00  0.00    -0.072 C 
ATOM     12  C   LIG    1       -0.056   0.689   3.171  0.00  0.00    -0.010 C 
ATOM     13  C   LIG    1        0.725  -1.655   3.332  0.00  0.00    -0.010 C 
ATOM     14  N   LIG    1        0.699  -0.548   1.177  0.00  0.00    +0.386 N 
ATOM     15  H   LIG    1        1.538   0.017   1.340  0.00  0.00    -0.084 HD
ATOM     16  H   LIG    1        1.055  -1.479   0.936  0.00  0.00    -0.084 HD
ENDBRANCH   1   9
BRANCH   3  17
ATOM     17  C   LIG    1       -5.921  -1.030   1.621  0.00  0.00    +0.303 C 
ATOM     18  N   LIG    1       -6.927  -0.583   2.399  0.00  0.00    -0.278 N 
ATOM     19  H   LIG    1       -6.744   0.048   3.113  0.00  0.00    +0.155 HD
ATOM     20  O   LIG    1       -6.136  -1.882   0.783  0.00  0.00    -0.265 OA
BRANCH  18  21
ATOM     21  C   LIG    1       -8.233  -1.029   2.178  0.00  0.00    +0.037 A 
ATOM     22  C   LIG    1       -9.304  -0.166   2.372  0.00  0.00    +0.025 A 
ATOM     23  C   LIG    1      -10.594  -0.607   2.152  0.00  0.00    +0.025 A 
ATOM     24  C   LIG    1      -10.822  -1.908   1.741  0.00  0.00    +0.076 A 
ATOM     25 CL   LIG    1      -12.445  -2.459   1.468  0.00  0.00    -0.081 Cl
ATOM     26  C   LIG    1       -9.756  -2.772   1.547  0.00  0.00    +0.143 A 
ATOM     27  F   LIG    1       -9.980  -4.042   1.145  0.00  0.00    -0.204 F 
ATOM     28  C   LIG    1       -8.461  -2.333   1.760  0.00  0.00    +0.063 A 
ENDBRANCH  18  21
ENDBRANCH   3  17
TORSDOF 3
