REMARK  Name = ZINC23249341
REMARK                            x       y       z     vdW  Elec       q    Type
REMARK                         _______ _______ _______ _____ _____    ______ ____
ROOT
ATOM      1  C   LIG    1        6.194  -0.605   4.818  0.00  0.00    +0.180 C 
ENDROOT
BRANCH   1   6
ATOM      2  N   LIG    1        4.102   0.606   1.351  0.00  0.00    +0.386 N 
ATOM      3  H   LIG    1        3.723   1.393   1.857  0.00  0.00    -0.081 HD
ATOM      4  C   LIG    1        3.689  -0.642   2.005  0.00  0.00    -0.063 C 
ATOM      5  C   LIG    1        4.197  -0.653   3.449  0.00  0.00    +0.066 C 
ATOM      6  N   LIG    1        5.662  -0.540   3.450  0.00  0.00    -0.298 NA
ATOM      7  C   LIG    1        6.092   0.693   2.776  0.00  0.00    +0.066 C 
ATOM      8  C   LIG    1        5.568   0.693   1.338  0.00  0.00    -0.063 C 
BRANCH   2   9
ATOM      9  C   LIG    1        3.599   0.625  -0.029  0.00  0.00    -0.003 C 
BRANCH   9  12
ATOM     10  C   LIG    1       -0.016   1.341   0.009  0.00  0.00    +0.041 A 
ATOM     11  C   LIG    1        1.331   1.769  -0.001  0.00  0.00    +0.042 A 
ATOM     12  C   LIG    1        2.092   0.660  -0.014  0.00  0.00    +0.089 A 
ATOM     13  O   LIG    1        1.282  -0.411  -0.012  0.00  0.00    -0.470 OA
ATOM     14  C   LIG    1        0.002  -0.004   0.002  0.00  0.00    +0.195 A 
ENDBRANCH   9  12
ENDBRANCH   2   9
ENDBRANCH   1   6
BRANCH   1  15
ATOM     15  C   LIG    1        7.695  -0.733   4.769  0.00  0.00    +0.232 C 
ATOM     16  N   LIG    1        8.403  -0.810   5.913  0.00  0.00    -0.278 N 
ATOM     17  H   LIG    1        7.946  -0.782   6.769  0.00  0.00    +0.155 HD
ATOM     18  O   LIG    1        8.265  -0.768   3.699  0.00  0.00    -0.274 OA
BRANCH  16  19
ATOM     19  C   LIG    1        9.784  -0.928   5.867  0.00  0.00    +0.084 A 
ATOM     20  C   LIG    1       10.667  -1.024   6.933  0.00  0.00    +0.065 A 
ATOM     21  C   LIG    1       12.069  -1.139   6.601  0.00  0.00    +0.022 A 
ATOM     22  C   LIG    1       12.363  -1.140   5.288  0.00  0.00    +0.048 A 
ATOM     23  S   LIG    1       10.769  -0.995   4.511  0.00  0.00    -0.081 S 
BRANCH  20  24
ATOM     24  C   LIG    1       10.202  -1.010   8.323  0.00  0.00    +0.244 C 
ATOM     25  N   LIG    1       11.091  -1.105   9.332  0.00  0.00    -0.325 N 
ATOM     26  H   LIG    1       10.784  -1.096  10.252  0.00  0.00    +0.145 HD
ATOM     27  H   LIG    1       12.038  -1.184   9.138  0.00  0.00    +0.145 HD
ATOM     28  O   LIG    1        9.014  -0.911   8.567  0.00  0.00    -0.270 OA
ENDBRANCH  20  24
ENDBRANCH  16  19
ENDBRANCH   1  15
TORSDOF 6
