REMARK  Name = ZINC19167342
REMARK                            x       y       z     vdW  Elec       q    Type
REMARK                         _______ _______ _______ _____ _____    ______ ____
ROOT
ATOM      1  C   LIG    1        0.820  -0.449  -1.220  0.00  0.00    +0.163 C 
ENDROOT
BRANCH   1   2
ATOM      2  C   LIG    1        0.005  -0.203  -2.464  0.00  0.00    -0.018 A 
ATOM      3  C   LIG    1        0.020   1.041  -3.067  0.00  0.00    +0.006 A 
ATOM      4  C   LIG    1       -0.727   1.266  -4.207  0.00  0.00    +0.000 A 
ATOM      5  C   LIG    1       -1.490   0.246  -4.746  0.00  0.00    +0.000 A 
ATOM      6  C   LIG    1       -1.505  -0.998  -4.144  0.00  0.00    +0.000 A 
ATOM      7  C   LIG    1       -0.754  -1.224  -3.006  0.00  0.00    +0.006 A 
ENDBRANCH   1   2
BRANCH   1   9
ATOM      8  C   LIG    1       -0.219   1.498  -0.048  0.00  0.00    +0.028 C 
ATOM      9  C   LIG    1        0.019  -0.013   0.008  0.00  0.00    +0.102 C 
BRANCH   9  10
ATOM     10  N   LIG    1        0.770  -0.345   1.226  0.00  0.00    -0.243 NA
ATOM     11  C   LIG    1       -0.024  -0.059   2.429  0.00  0.00    +0.124 C 
BRANCH  10  12
ATOM     12  N   LIG    1        1.206  -1.732   1.207  0.00  0.00    -0.268 NA
ATOM     13  H   LIG    1        0.435  -2.351   1.008  0.00  0.00    +0.137 HD
ATOM     14  H   LIG    1        1.656  -1.982   2.075  0.00  0.00    +0.137 HD
ENDBRANCH  10  12
ENDBRANCH   9  10
ENDBRANCH   1   9
BRANCH   1  15
ATOM     15  O   LIG    1        2.033   0.304  -1.290  0.00  0.00    -0.386 OA
ATOM     16  H   LIG    1        1.900   1.259  -1.360  0.00  0.00    +0.210 HD
ENDBRANCH   1  15
TORSDOF 5
