REMARK  Name = ZINC19360739
REMARK                            x       y       z     vdW  Elec       q    Type
REMARK                         _______ _______ _______ _____ _____    ______ ____
ROOT
ATOM      1  N   LIG    1        4.885  -3.436   1.531  0.00  0.00    -0.296 NA
ATOM      2  C   LIG    1        4.026  -4.564   1.145  0.00  0.00    +0.100 C 
ATOM      3  C   LIG    1        4.069  -5.633   2.239  0.00  0.00    +0.100 C 
ATOM      4  N   LIG    1        5.457  -6.075   2.435  0.00  0.00    -0.289 NA
ATOM      5  C   LIG    1        6.316  -4.947   2.822  0.00  0.00    +0.100 C 
ATOM      6  C   LIG    1        6.273  -3.878   1.727  0.00  0.00    +0.100 C 
ENDROOT
BRANCH   1   7
ATOM      7  C   LIG    1        4.812  -2.354   0.540  0.00  0.00    +0.111 C 
BRANCH   7   9
ATOM      8  C   LIG    1        3.261  -0.461   0.730  0.00  0.00    +0.005 C 
ATOM      9  C   LIG    1        3.426  -1.763   0.544  0.00  0.00    -0.011 C 
BRANCH   8  13
ATOM     10  C   LIG    1       -0.645   1.207   0.739  0.00  0.00    +0.000 A 
ATOM     11  C   LIG    1        0.454   2.025   0.930  0.00  0.00    +0.001 A 
ATOM     12  C   LIG    1        1.725   1.490   0.929  0.00  0.00    +0.008 A 
ATOM     13  C   LIG    1        1.902   0.120   0.733  0.00  0.00    -0.025 A 
ATOM     14  C   LIG    1        0.789  -0.701   0.541  0.00  0.00    +0.008 A 
ATOM     15  C   LIG    1       -0.477  -0.153   0.544  0.00  0.00    +0.001 A 
ENDBRANCH   8  13
ENDBRANCH   7   9
ENDBRANCH   1   7
BRANCH   4  16
ATOM     16  C   LIG    1        5.530  -7.157   3.426  0.00  0.00    +0.117 C 
BRANCH  16  17
ATOM     17  C   LIG    1        6.956  -7.629   3.549  0.00  0.00    -0.026 A 
ATOM     18  C   LIG    1        7.715  -7.836   2.413  0.00  0.00    +0.008 A 
ATOM     19  C   LIG    1        9.023  -8.269   2.525  0.00  0.00    +0.038 A 
ATOM     20  C   LIG    1        9.572  -8.496   3.775  0.00  0.00    +0.123 A 
ATOM     21  F   LIG    1       10.850  -8.919   3.885  0.00  0.00    -0.205 F 
ATOM     22  C   LIG    1        8.810  -8.288   4.912  0.00  0.00    +0.038 A 
ATOM     23  C   LIG    1        7.505  -7.850   4.798  0.00  0.00    +0.008 A 
ENDBRANCH  16  17
BRANCH  16  24
ATOM     24  C   LIG    1        4.657  -8.303   2.984  0.00  0.00    -0.026 A 
ATOM     25  C   LIG    1        4.678  -8.719   1.666  0.00  0.00    +0.008 A 
ATOM     26  C   LIG    1        3.879  -9.770   1.259  0.00  0.00    +0.038 A 
ATOM     27  C   LIG    1        3.056 -10.407   2.173  0.00  0.00    +0.123 A 
ATOM     28  F   LIG    1        2.274 -11.434   1.777  0.00  0.00    -0.205 F 
ATOM     29  C   LIG    1        3.036  -9.989   3.493  0.00  0.00    +0.038 A 
ATOM     30  C   LIG    1        3.840  -8.941   3.898  0.00  0.00    +0.008 A 
ENDBRANCH  16  24
ENDBRANCH   4  16
TORSDOF 6
