REMARK  Name = ZINC39941999
REMARK                            x       y       z     vdW  Elec       q    Type
REMARK                         _______ _______ _______ _____ _____    ______ ____
ROOT
ATOM      1  C   LIG    1        0.606  -0.503  -1.312  0.00  0.00    -0.002 C 
ATOM      2  C   LIG    1        0.442  -2.036  -1.439  0.00  0.00    +0.004 C 
ATOM      3  C   LIG    1        0.119  -2.322  -2.918  0.00  0.00    +0.004 C 
ATOM      4  C   LIG    1        0.145  -0.950  -3.643  0.00  0.00    -0.001 C 
ATOM      5  C   LIG    1        1.575  -0.753  -4.154  0.00  0.00    -0.004 C 
ATOM      6  C   LIG    1        1.805  -1.667  -5.360  0.00  0.00    +0.004 C 
ATOM      7  C   LIG    1        3.243  -1.512  -5.856  0.00  0.00    +0.004 C 
ATOM      8  C   LIG    1        3.974  -0.482  -4.992  0.00  0.00    -0.002 C 
ATOM      9  C   LIG    1        3.250   0.887  -5.062  0.00  0.00    -0.026 C 
ATOM     10  C   LIG    1        3.207   1.354  -6.518  0.00  0.00    +0.012 C 
ATOM     11  C   LIG    1        3.970   1.935  -4.210  0.00  0.00    +0.010 C 
ATOM     12  C   LIG    1        5.400   2.115  -4.723  0.00  0.00    +0.032 C 
ATOM     13  C   LIG    1        6.146   0.782  -4.629  0.00  0.00    +0.115 C 
ATOM     14  C   LIG    1        5.407  -0.319  -5.501  0.00  0.00    +0.035 C 
ATOM     15  C   LIG    1        1.821   0.707  -4.541  0.00  0.00    -0.001 C 
ATOM     16  C   LIG    1        1.631   1.590  -3.301  0.00  0.00    +0.005 C 
ATOM     17  C   LIG    1        0.177   1.474  -2.846  0.00  0.00    +0.007 C 
ATOM     18  C   LIG    1       -0.184   0.046  -2.515  0.00  0.00    -0.026 C 
ATOM     19  C   LIG    1       -1.681  -0.023  -2.207  0.00  0.00    +0.012 C 
ENDROOT
BRANCH   1  21
ATOM     20  C   LIG    1        0.178   1.513   0.100  0.00  0.00    +0.008 C 
ATOM     21  C   LIG    1        0.002  -0.004   0.002  0.00  0.00    -0.010 C 
BRANCH  21  22
ATOM     22  C   LIG    1        0.713  -0.677   1.178  0.00  0.00    +0.014 C 
BRANCH  22  23
ATOM     23  C   LIG    1        0.029  -0.274   2.486  0.00  0.00    +0.121 C 
BRANCH  23  24
ATOM     24  C   LIG    1        0.730  -0.937   3.644  0.00  0.00    +0.305 C 
ATOM     25  O   LIG    1        1.687  -1.664   3.442  0.00  0.00    -0.251 OA
BRANCH  24  26
ATOM     26  O   LIG    1        0.339  -0.746   4.783  0.00  0.00    -0.481 OA
ATOM     27  H   LIG    1       -0.397  -0.187   4.938  0.00  0.00    +0.295 HD
ENDBRANCH  24  26
ENDBRANCH  23  24
ENDBRANCH  22  23
ENDBRANCH  21  22
ENDBRANCH   1  21
BRANCH  13  28
ATOM     28  O   LIG    1        7.483   0.950  -5.104  0.00  0.00    -0.392 OA
ATOM     29  H   LIG    1        7.998   1.601  -4.608  0.00  0.00    +0.210 HD
ENDBRANCH  13  28
TORSDOF 6
