REMARK  Name = ZINC37247993
REMARK                            x       y       z     vdW  Elec       q    Type
REMARK                         _______ _______ _______ _____ _____    ______ ____
ROOT
ATOM      1  N   LIG    1        1.325  -3.998  -2.290  0.00  0.00    -0.281 N 
ATOM      2  H   LIG    1        0.999  -4.538  -1.553  0.00  0.00    +0.155 HD
ATOM      3  C   LIG    1        1.834  -4.593  -3.387  0.00  0.00    +0.248 C 
ATOM      4  O   LIG    1        2.330  -3.919  -4.269  0.00  0.00    -0.270 OA
ENDROOT
BRANCH   3   5
ATOM      5  C   LIG    1        1.788  -6.063  -3.518  0.00  0.00    +0.039 A 
ATOM      6  C   LIG    1        1.213  -6.840  -2.509  0.00  0.00    +0.016 A 
ATOM      7  C   LIG    1        1.173  -8.211  -2.637  0.00  0.00    +0.041 A 
ATOM      8  C   LIG    1        1.702  -8.821  -3.764  0.00  0.00    +0.153 A 
ATOM      9  F   LIG    1        1.660 -10.166  -3.884  0.00  0.00    -0.203 F 
ATOM     10  C   LIG    1        2.274  -8.055  -4.769  0.00  0.00    +0.157 A 
ATOM     11  C   LIG    1        2.314  -6.682  -4.654  0.00  0.00    +0.048 A 
BRANCH  10  12
ATOM     12  N   LIG    1        2.838  -8.713  -5.969  0.00  0.00    +0.009 N 
ATOM     13  O   LIG    1        3.337  -8.047  -6.845  0.00  0.00    -0.130 OA
BRANCH  12  14
ATOM     14  O   LIG    1        2.799  -9.917  -6.073  0.00  0.00    -0.396 OA
ATOM     15  H   LIG    1        2.411 -10.434  -5.394  0.00  0.00    +0.329 HD
ENDBRANCH  12  14
ENDBRANCH  10  12
ENDBRANCH   3   5
BRANCH   1  20
ATOM     16  C   LIG    1        0.999  -0.470  -3.283  0.00  0.00    +0.122 A 
ATOM     17  C   LIG    1        1.157   0.161  -2.056  0.00  0.00    +0.046 A 
ATOM     18  C   LIG    1        1.369  -0.588  -0.914  0.00  0.00    +0.005 A 
ATOM     19  C   LIG    1        1.425  -1.966  -0.989  0.00  0.00    +0.023 A 
ATOM     20  C   LIG    1        1.268  -2.603  -2.214  0.00  0.00    +0.037 A 
ATOM     21  C   LIG    1        1.049  -1.853  -3.361  0.00  0.00    +0.069 A 
BRANCH  16  23
ATOM     22  C   LIG    1        0.751   1.688  -4.250  0.00  0.00    +0.277 C 
ATOM     23  O   LIG    1        0.790   0.268  -4.405  0.00  0.00    -0.495 OA
ENDBRANCH  16  23
ENDBRANCH   1  20
TORSDOF 5
