REMARK  Name = ZINC49033430
REMARK                            x       y       z     vdW  Elec       q    Type
REMARK                         _______ _______ _______ _____ _____    ______ ____
ROOT
ATOM      1  N   LIG    1        0.132  -2.739  -0.015  0.00  0.00    -0.175 NA
ATOM      2  C   LIG    1        0.154  -4.058  -0.024  0.00  0.00    +0.172 C 
ATOM      3  C   LIG    1       -1.003  -4.979  -0.024  0.00  0.00    +0.121 C 
ATOM      4  N   LIG    1       -0.531  -6.196  -0.033  0.00  0.00    -0.177 NA
ATOM      5  N   LIG    1        0.864  -6.199  -0.040  0.00  0.00    -0.201 N 
ATOM      6  H   LIG    1        1.416  -6.997  -0.047  0.00  0.00    +0.178 HD
ATOM      7  C   LIG    1        1.335  -4.936  -0.041  0.00  0.00    +0.285 C 
ATOM      8  O   LIG    1        2.504  -4.591  -0.052  0.00  0.00    -0.267 OA
ENDROOT
BRANCH   3   9
ATOM      9  C   LIG    1       -2.432  -4.591  -0.014  0.00  0.00    +0.007 A 
ATOM     10  C   LIG    1       -2.812  -3.245  -0.009  0.00  0.00    +0.030 A 
ATOM     11  C   LIG    1       -4.155  -2.929   0.000  0.00  0.00    +0.111 A 
ATOM     12  N   LIG    1       -5.074  -3.876   0.005  0.00  0.00    -0.263 NA
ATOM     13  C   LIG    1       -4.758  -5.157   0.001  0.00  0.00    +0.111 A 
ATOM     14  C   LIG    1       -3.440  -5.562  -0.015  0.00  0.00    +0.030 A 
ENDBRANCH   3   9
BRANCH   1  15
ATOM     15  N   LIG    1        1.239  -2.076  -0.022  0.00  0.00    -0.236 N 
ATOM     16  H   LIG    1        2.087  -2.547  -0.034  0.00  0.00    +0.174 HD
BRANCH  15  22
ATOM     17  C   LIG    1       -0.017   1.377   0.010  0.00  0.00    +0.002 A 
ATOM     18  C   LIG    1        1.170   2.087   0.002  0.00  0.00    +0.002 A 
ATOM     19  C   LIG    1        2.381   1.418  -0.013  0.00  0.00    +0.022 A 
ATOM     20  C   LIG    1        2.408   0.036  -0.021  0.00  0.00    +0.063 A 
ATOM     21 CL   LIG    1        3.927  -0.804  -0.041  0.00  0.00    -0.082 Cl
ATOM     22  C   LIG    1        1.216  -0.681  -0.014  0.00  0.00    +0.067 A 
ATOM     23  C   LIG    1        0.002  -0.004   0.002  0.00  0.00    +0.026 A 
ENDBRANCH  15  22
ENDBRANCH   1  15
TORSDOF 3
