REMARK  Name = ZINC22172612
REMARK                            x       y       z     vdW  Elec       q    Type
REMARK                         _______ _______ _______ _____ _____    ______ ____
ROOT
ATOM      1  C   LIG    1        2.522   3.744  -0.120  0.00  0.00    +0.252 A 
ATOM      2  N   LIG    1        3.629   3.330   0.447  0.00  0.00    -0.106 NA
ATOM      3  N   LIG    1        4.577   4.162   0.192  0.00  0.00    -0.092 NA
ATOM      4  C   LIG    1        4.112   5.140  -0.549  0.00  0.00    +0.312 A 
ATOM      5  O   LIG    1        2.806   4.895  -0.767  0.00  0.00    -0.405 OA
ENDROOT
BRANCH   1  10
ATOM      6  C   LIG    1       -0.119   1.078  -0.256  0.00  0.00    +0.001 A 
ATOM      7  C   LIG    1       -1.260   1.809   0.027  0.00  0.00    +0.002 A 
ATOM      8  C   LIG    1       -1.178   3.167   0.272  0.00  0.00    +0.024 A 
ATOM      9  C   LIG    1        0.051   3.808   0.225  0.00  0.00    +0.040 A 
ATOM     10  C   LIG    1        1.208   3.072  -0.067  0.00  0.00    +0.059 A 
ATOM     11  C   LIG    1        1.111   1.700  -0.307  0.00  0.00    +0.015 A 
BRANCH   9  12
ATOM     12  N   LIG    1        0.135   5.178   0.467  0.00  0.00    -0.339 N 
ATOM     13  H   LIG    1        1.118   5.671   0.502  0.00  0.00    +0.146 HD
BRANCH  12  14
ATOM     14  C   LIG    1       -1.085   5.962   0.673  0.00  0.00    +0.137 C 
BRANCH  14  15
ATOM     15  C   LIG    1       -0.721   7.405   0.913  0.00  0.00    -0.028 A 
ATOM     16  C   LIG    1       -0.492   7.875   2.197  0.00  0.00    +0.025 A 
ATOM     17  C   LIG    1       -0.156   9.203   2.378  0.00  0.00    +0.111 A 
ATOM     18  N   LIG    1       -0.062  10.021   1.348  0.00  0.00    -0.263 NA
ATOM     19  C   LIG    1       -0.277   9.610   0.114  0.00  0.00    +0.111 A 
ATOM     20  C   LIG    1       -0.612   8.295  -0.145  0.00  0.00    +0.025 A 
ENDBRANCH  14  15
ENDBRANCH  12  14
ENDBRANCH   9  12
ENDBRANCH   1  10
BRANCH   4  21
ATOM     21  N   LIG    1        4.833   6.220  -1.023  0.00  0.00    -0.268 N 
ATOM     22  H   LIG    1        4.364   6.931  -1.718  0.00  0.00    +0.157 HD
BRANCH  21  23
ATOM     23  C   LIG    1        6.159   6.409  -0.617  0.00  0.00    +0.039 A 
ATOM     24  C   LIG    1        7.073   6.997  -1.483  0.00  0.00    +0.027 A 
ATOM     25  C   LIG    1        8.383   7.183  -1.084  0.00  0.00    +0.051 A 
ATOM     26  C   LIG    1        8.788   6.785   0.180  0.00  0.00    +0.166 A 
ATOM     27  C   LIG    1        7.874   6.196   1.050  0.00  0.00    +0.168 A 
ATOM     28  O   LIG    1        8.514   5.897   2.218  0.00  0.00    -0.453 OA
ATOM     29  C   LIG    1        9.723   6.679   2.206  0.00  0.00    +0.466 C 
ATOM     30  O   LIG    1       10.001   6.856   0.804  0.00  0.00    -0.453 OA
ATOM     31  C   LIG    1        6.560   6.014   0.652  0.00  0.00    +0.073 A 
ENDBRANCH  21  23
ENDBRANCH   4  21
TORSDOF 6
