REMARK  Name = ZINC28470431
REMARK                            x       y       z     vdW  Elec       q    Type
REMARK                         _______ _______ _______ _____ _____    ______ ____
ROOT
ATOM      1  C   LIG    1        0.022  -3.353  -3.312  0.00  0.00    +0.066 A 
ATOM      2  C   LIG    1        0.032  -2.910  -2.023  0.00  0.00    +0.105 A 
ATOM      3  N   LIG    1        1.226  -2.667  -1.405  0.00  0.00    -0.295 N 
ATOM      4  C   LIG    1        2.393  -2.866  -2.037  0.00  0.00    +0.332 A 
ATOM      5  N   LIG    1        2.447  -3.307  -3.306  0.00  0.00    -0.262 N 
ATOM      6  O   LIG    1        3.432  -2.641  -1.446  0.00  0.00    -0.246 OA
ATOM      7  C   LIG    1        1.310  -3.565  -3.986  0.00  0.00    +0.264 A 
ATOM      8  O   LIG    1        1.351  -3.964  -5.136  0.00  0.00    -0.267 OA
ENDROOT
BRANCH   1  13
ATOM      9  C   LIG    1       -3.193  -5.006  -4.367  0.00  0.00    +0.156 A 
ATOM     10  C   LIG    1       -3.647  -4.116  -5.330  0.00  0.00    +0.048 A 
ATOM     11  C   LIG    1       -2.912  -2.986  -5.635  0.00  0.00    +0.004 A 
ATOM     12  C   LIG    1       -1.724  -2.731  -4.979  0.00  0.00    +0.012 A 
ATOM     13  C   LIG    1       -1.257  -3.621  -4.014  0.00  0.00    +0.028 A 
ATOM     14  C   LIG    1       -1.998  -4.762  -3.706  0.00  0.00    +0.173 A 
ATOM     15  F   LIG    1       -1.554  -5.626  -2.768  0.00  0.00    -0.201 F 
BRANCH   9  17
ATOM     16  C   LIG    1       -5.139  -6.304  -4.790  0.00  0.00    +0.277 C 
ATOM     17  O   LIG    1       -3.918  -6.117  -4.071  0.00  0.00    -0.492 OA
ENDBRANCH   9  17
ENDBRANCH   1  13
BRANCH   3  18
ATOM     18  C   LIG    1        1.232  -2.186  -0.021  0.00  0.00    +0.167 C 
BRANCH  18  19
ATOM     19  C   LIG    1        1.210  -0.679  -0.013  0.00  0.00    +0.043 A 
ATOM     20  C   LIG    1        0.002  -0.004   0.002  0.00  0.00    +0.131 A 
ATOM     21  F   LIG    1       -1.159  -0.696   0.009  0.00  0.00    -0.205 F 
ATOM     22  C   LIG    1       -0.017   1.381   0.010  0.00  0.00    +0.039 A 
ATOM     23  C   LIG    1        1.170   2.088   0.002  0.00  0.00    +0.006 A 
ATOM     24  C   LIG    1        2.377   1.415  -0.013  0.00  0.00    +0.039 A 
ATOM     25  C   LIG    1        2.399   0.031  -0.021  0.00  0.00    +0.131 A 
ATOM     26  F   LIG    1        3.579  -0.627  -0.035  0.00  0.00    -0.205 F 
ENDBRANCH  18  19
ENDBRANCH   3  18
BRANCH   5  27
ATOM     27  C   LIG    1        3.745  -3.509  -3.954  0.00  0.00    +0.118 C 
BRANCH  27  28
ATOM     28  C   LIG    1        4.222  -4.941  -3.705  0.00  0.00    -0.024 C 
BRANCH  28  29
ATOM     29  C   LIG    1        5.496  -5.187  -4.472  0.00  0.00    -0.060 A 
ATOM     30  C   LIG    1        5.444  -5.481  -5.822  0.00  0.00    +0.002 A 
ATOM     31  C   LIG    1        6.613  -5.701  -6.527  0.00  0.00    +0.000 A 
ATOM     32  C   LIG    1        7.833  -5.638  -5.879  0.00  0.00    +0.000 A 
ATOM     33  C   LIG    1        7.884  -5.348  -4.528  0.00  0.00    +0.000 A 
ATOM     34  C   LIG    1        6.716  -5.123  -3.825  0.00  0.00    +0.002 A 
ENDBRANCH  28  29
BRANCH  28  35
ATOM     35  N   LIG    1        3.191  -5.886  -4.154  0.00  0.00    +0.384 N 
ATOM     36  H   LIG    1        2.261  -5.707  -3.594  0.00  0.00    -0.089 HD
ATOM     37  H   LIG    1        3.005  -5.743  -5.229  0.00  0.00    -0.089 HD
ATOM     38  H   LIG    1        3.534  -6.916  -3.975  0.00  0.00    -0.089 HD
ENDBRANCH  28  35
ENDBRANCH  27  28
ENDBRANCH   5  27
TORSDOF 8
