REMARK  Name = ZINC27876220
REMARK                            x       y       z     vdW  Elec       q    Type
REMARK                         _______ _______ _______ _____ _____    ______ ____
ROOT
ATOM      1  C   LIG    1        3.293  -0.178   3.472  0.00  0.00    +0.047 A 
ATOM      2  C   LIG    1        2.140   0.369   2.941  0.00  0.00    -0.022 A 
ATOM      3  C   LIG    1        0.997  -0.399   2.824  0.00  0.00    +0.047 A 
ATOM      4  C   LIG    1        1.007  -1.723   3.228  0.00  0.00    +0.168 A 
ATOM      5  F   LIG    1       -0.109  -2.475   3.108  0.00  0.00    -0.202 F 
ATOM      6  C   LIG    1        2.163  -2.275   3.761  0.00  0.00    +0.188 A 
ATOM      7  C   LIG    1        3.308  -1.499   3.883  0.00  0.00    +0.168 A 
ATOM      8  F   LIG    1        4.436  -2.034   4.401  0.00  0.00    -0.202 F 
ENDROOT
BRANCH   6   9
ATOM      9  O   LIG    1        2.175  -3.575   4.164  0.00  0.00    -0.502 OA
ATOM     10  H   LIG    1        1.402  -4.098   4.081  0.00  0.00    +0.292 HD
ENDBRANCH   6   9
BRANCH   2  11
ATOM     11  C   LIG    1        2.127   1.809   2.495  0.00  0.00    +0.160 C 
BRANCH  11  12
ATOM     12  N   LIG    1        2.521   1.887   1.086  0.00  0.00    -0.305 N 
ATOM     13  C   LIG    1        3.773   2.123   0.590  0.00  0.00    +0.223 A 
ATOM     14  N   LIG    1        3.684   2.116  -0.710  0.00  0.00    -0.162 NA
ATOM     15  N   LIG    1        2.470   1.887  -1.067  0.00  0.00    -0.255 N 
ATOM     16  H   LIG    1        2.210   1.846  -2.135  0.00  0.00    +0.191 HD
ATOM     17  C   LIG    1        1.714   1.735  -0.005  0.00  0.00    +0.176 A 
ATOM     18  S   LIG    1       -0.017   1.406   0.010  0.00  0.00    -0.011 S 
ENDBRANCH  11  12
ENDBRANCH   2  11
TORSDOF 3
