REMARK  Name = ZINC13762607
REMARK                            x       y       z     vdW  Elec       q    Type
REMARK                         _______ _______ _______ _____ _____    ______ ____
ROOT
ATOM      1  C   LIG    1       -2.141   1.037   1.487  0.00  0.00    +0.066 C 
ATOM      2  N   LIG    1       -3.165   1.692   0.874  0.00  0.00    -0.286 NA
ATOM      3  H   LIG    1       -3.023   2.612   0.509  0.00  0.00    +0.125 HD
ATOM      4  C   LIG    1       -4.343   1.008   0.806  0.00  0.00    +0.193 C 
ATOM      5  N   LIG    1       -4.539  -0.207   1.297  0.00  0.00    -0.273 NA
ATOM      6  H   LIG    1       -5.298  -0.129   1.974  0.00  0.00    +0.126 HD
ATOM      7  C   LIG    1       -3.556  -0.861   1.904  0.00  0.00    +0.130 C 
ATOM      8  C   LIG    1       -2.297  -0.241   2.019  0.00  0.00    +0.067 C 
ENDROOT
BRANCH   8   9
ATOM      9  C   LIG    1       -1.168  -0.931   2.688  0.00  0.00    -0.038 A 
ATOM     10  C   LIG    1       -0.068  -1.353   1.932  0.00  0.00    +0.005 A 
ATOM     11  C   LIG    1        1.006  -1.994   2.526  0.00  0.00    +0.022 A 
ATOM     12  C   LIG    1        1.008  -2.241   3.881  0.00  0.00    +0.069 A 
ATOM     13 CL   LIG    1        2.352  -3.053   4.622  0.00  0.00    -0.081 Cl
ATOM     14  C   LIG    1       -0.136  -1.813   4.689  0.00  0.00    +0.119 A 
ATOM     15  C   LIG    1       -1.216  -1.155   4.052  0.00  0.00    +0.036 A 
BRANCH  14  16
ATOM     16  N   LIG    1       -0.159  -2.038   5.995  0.00  0.00    -0.073 NA
ATOM     17  N   LIG    1       -1.042  -1.705   6.607  0.00  0.00    -0.192 NA
ATOM     18  N   LIG    1       -1.924  -1.372   7.218  0.00  0.00    -0.127 NA
ATOM     19  H   LIG    1       -2.750  -1.908   7.223  0.00  0.00    +0.228 HD
ENDBRANCH  14  16
ENDBRANCH   8   9
BRANCH   4  20
ATOM     20  N   LIG    1       -5.393   1.657   0.181  0.00  0.00    -0.303 NA
ATOM     21  H   LIG    1       -5.265   2.546  -0.183  0.00  0.00    +0.121 HD
ATOM     22  H   LIG    1       -6.257   1.222   0.107  0.00  0.00    +0.121 HD
ENDBRANCH   4  20
BRANCH   7  23
ATOM     23  N   LIG    1       -3.765  -2.129   2.415  0.00  0.00    -0.315 NA
ATOM     24  H   LIG    1       -4.635  -2.549   2.331  0.00  0.00    +0.120 HD
ATOM     25  H   LIG    1       -3.040  -2.599   2.857  0.00  0.00    +0.120 HD
ENDBRANCH   7  23
BRANCH   1  27
ATOM     26  C   LIG    1       -0.751   2.533   2.895  0.00  0.00    +0.005 C 
ATOM     27  C   LIG    1       -0.815   1.747   1.584  0.00  0.00    +0.016 C 
ENDBRANCH   1  27
TORSDOF 5
