REMARK  Name = ZINC16650566
REMARK                            x       y       z     vdW  Elec       q    Type
REMARK                         _______ _______ _______ _____ _____    ______ ____
ROOT
ATOM      1  N   LIG    1       -0.016   1.344   0.009  0.00  0.00    -0.281 N 
ATOM      2  H   LIG    1       -0.216   0.529  -0.478  0.00  0.00    +0.155 HD
ATOM      3  C   LIG    1       -0.958   1.911   0.788  0.00  0.00    +0.248 C 
ATOM      4  O   LIG    1       -0.679   2.873   1.478  0.00  0.00    -0.270 OA
ENDROOT
BRANCH   3   5
ATOM      5  C   LIG    1       -2.330   1.365   0.804  0.00  0.00    +0.040 A 
ATOM      6  C   LIG    1       -2.656   0.264   0.009  0.00  0.00    +0.016 A 
ATOM      7  C   LIG    1       -3.936  -0.246   0.031  0.00  0.00    +0.042 A 
ATOM      8  C   LIG    1       -4.904   0.338   0.832  0.00  0.00    +0.158 A 
ATOM      9  F   LIG    1       -6.159  -0.163   0.846  0.00  0.00    -0.202 F 
ATOM     10  C   LIG    1       -4.590   1.436   1.621  0.00  0.00    +0.159 A 
ATOM     11  F   LIG    1       -5.537   2.002   2.400  0.00  0.00    -0.202 F 
ATOM     12  C   LIG    1       -3.308   1.951   1.611  0.00  0.00    +0.054 A 
ENDBRANCH   3   5
BRANCH   1  17
ATOM     13  C   LIG    1        2.648   3.878  -0.124  0.00  0.00    +0.122 A 
ATOM     14  C   LIG    1        3.766   3.072  -0.292  0.00  0.00    +0.046 A 
ATOM     15  C   LIG    1        3.626   1.699  -0.359  0.00  0.00    +0.005 A 
ATOM     16  C   LIG    1        2.373   1.124  -0.259  0.00  0.00    +0.023 A 
ATOM     17  C   LIG    1        1.251   1.925  -0.091  0.00  0.00    +0.037 A 
ATOM     18  C   LIG    1        1.390   3.305  -0.029  0.00  0.00    +0.069 A 
BRANCH  13  20
ATOM     19  C   LIG    1        4.113   5.750  -0.170  0.00  0.00    +0.277 C 
ATOM     20  O   LIG    1        2.787   5.228  -0.059  0.00  0.00    -0.495 OA
ENDBRANCH  13  20
ENDBRANCH   1  17
TORSDOF 3
