REMARK  Name = ZINC43128171
REMARK                            x       y       z     vdW  Elec       q    Type
REMARK                         _______ _______ _______ _____ _____    ______ ____
ROOT
ATOM      1  C   LIG    1       -0.460  -3.127  -2.890  0.00  0.00    +0.153 A 
ATOM      2  C   LIG    1       -0.201  -4.304  -3.727  0.00  0.00    +0.029 A 
ATOM      3  C   LIG    1       -0.202  -5.596  -3.201  0.00  0.00    +0.012 A 
ATOM      4  C   LIG    1        0.045  -6.668  -4.029  0.00  0.00    +0.001 A 
ATOM      5  C   LIG    1        0.297  -6.477  -5.381  0.00  0.00    +0.001 A 
ATOM      6  C   LIG    1        0.304  -5.211  -5.923  0.00  0.00    +0.014 A 
ATOM      7  C   LIG    1        0.054  -4.111  -5.103  0.00  0.00    +0.052 A 
ATOM      8  C   LIG    1        0.048  -2.739  -5.626  0.00  0.00    +0.280 A 
ATOM      9  N   LIG    1       -0.201  -1.720  -4.778  0.00  0.00    -0.195 N 
ATOM     10  O   LIG    1        0.262  -2.525  -6.806  0.00  0.00    -0.265 OA
ATOM     11  N   LIG    1       -0.455  -1.935  -3.423  0.00  0.00    -0.147 NA
ENDROOT
BRANCH   9  12
ATOM     12  C   LIG    1       -0.208  -0.411  -5.272  0.00  0.00    +0.069 A 
ATOM     13  C   LIG    1       -0.991  -0.087  -6.373  0.00  0.00    +0.028 A 
ATOM     14  C   LIG    1       -0.996   1.206  -6.857  0.00  0.00    +0.002 A 
ATOM     15  C   LIG    1       -0.224   2.178  -6.248  0.00  0.00    +0.000 A 
ATOM     16  C   LIG    1        0.557   1.859  -5.152  0.00  0.00    +0.002 A 
ATOM     17  C   LIG    1        0.563   0.569  -4.659  0.00  0.00    +0.028 A 
ENDBRANCH   9  12
BRANCH   1  18
ATOM     18  N   LIG    1       -0.715  -3.281  -1.531  0.00  0.00    -0.281 N 
ATOM     19  H   LIG    1       -0.635  -4.155  -1.119  0.00  0.00    +0.155 HD
BRANCH  18  23
ATOM     20  C   LIG    1       -2.065   1.353  -0.244  0.00  0.00    +0.065 C 
ATOM     21  C   LIG    1       -1.692  -0.106  -0.188  0.00  0.00    +0.035 A 
ATOM     22  C   LIG    1       -1.371  -0.887  -1.244  0.00  0.00    +0.068 A 
ATOM     23  C   LIG    1       -1.089  -2.174  -0.759  0.00  0.00    +0.146 A 
ATOM     24  N   LIG    1       -1.238  -2.159   0.545  0.00  0.00    -0.158 NA
ATOM     25  N   LIG    1       -1.612  -0.864   0.926  0.00  0.00    -0.280 N 
ATOM     26  H   LIG    1       -1.785  -0.565   1.833  0.00  0.00    +0.189 HD
ENDBRANCH  18  23
ENDBRANCH   1  18
TORSDOF 3
