REMARK  Name = ZINC49054534
REMARK                            x       y       z     vdW  Elec       q    Type
REMARK                         _______ _______ _______ _____ _____    ______ ____
ROOT
ATOM      1  C   LIG    1       -1.454  -0.437   0.027  0.00  0.00    -0.078 C 
ENDROOT
BRANCH   1   7
ATOM      2  C   LIG    1       -0.041   1.496  -0.086  0.00  0.00    -0.044 C 
ATOM      3  C   LIG    1        1.407   1.984  -0.172  0.00  0.00    +0.129 C 
ATOM      4  C   LIG    1        2.160   1.554   1.091  0.00  0.00    +0.168 C 
ATOM      5  C   LIG    1        2.068   0.032   1.234  0.00  0.00    +0.134 C 
ATOM      6  C   LIG    1        0.596  -0.383   1.268  0.00  0.00    -0.011 C 
ATOM      7  N   LIG    1       -0.062   0.033   0.023  0.00  0.00    +0.386 N 
ATOM      8  H   LIG    1        0.425  -0.369  -0.764  0.00  0.00    -0.081 HD
BRANCH   3   9
ATOM      9  O   LIG    1        2.036   1.414  -1.321  0.00  0.00    -0.391 OA
ATOM     10  H   LIG    1        2.958   1.681  -1.438  0.00  0.00    +0.210 HD
ENDBRANCH   3   9
BRANCH   4  11
ATOM     11  O   LIG    1        1.574   2.180   2.234  0.00  0.00    -0.387 OA
ATOM     12  H   LIG    1        1.593   3.146   2.206  0.00  0.00    +0.210 HD
ENDBRANCH   4  11
BRANCH   5  13
ATOM     13  O   LIG    1        2.716  -0.592   0.124  0.00  0.00    -0.391 OA
ATOM     14  H   LIG    1        3.654  -0.369   0.040  0.00  0.00    +0.210 HD
ENDBRANCH   5  13
BRANCH   6  15
ATOM     15  C   LIG    1        0.499  -1.904   1.411  0.00  0.00    +0.143 C 
BRANCH  15  16
ATOM     16  O   LIG    1        1.205  -2.529   0.337  0.00  0.00    -0.397 OA
ATOM     17  H   LIG    1        1.185  -3.495   0.363  0.00  0.00    +0.209 HD
ENDBRANCH  15  16
ENDBRANCH   6  15
ENDBRANCH   1   7
BRANCH   1  18
ATOM     18  C   LIG    1       -2.106  -0.109  -1.318  0.00  0.00    -0.018 C 
BRANCH  18  19
ATOM     19  C   LIG    1       -3.555  -0.598  -1.315  0.00  0.00    +0.000 C 
BRANCH  19  20
ATOM     20  C   LIG    1       -4.207  -0.271  -2.660  0.00  0.00    +0.028 C 
BRANCH  20  21
ATOM     21  C   LIG    1       -5.657  -0.759  -2.656  0.00  0.00    +0.160 C 
BRANCH  21  22
ATOM     22  O   LIG    1       -6.266  -0.454  -3.912  0.00  0.00    -0.379 OA
BRANCH  22  23
ATOM     23  C   LIG    1       -7.629  -0.870  -4.014  0.00  0.00    +0.166 C 
BRANCH  23  24
ATOM     24  C   LIG    1       -8.176  -0.494  -5.393  0.00  0.00    -0.005 C 
ATOM     25  C   LIG    1       -7.348  -1.187  -6.477  0.00  0.00    +0.012 C 
ATOM     26  C   LIG    1       -7.894  -0.811  -7.855  0.00  0.00    -0.010 C 
ATOM     27  C   LIG    1       -9.354  -1.257  -7.965  0.00  0.00    +0.007 C 
ATOM     28  C   LIG    1      -10.182  -0.564  -6.881  0.00  0.00    -0.010 C 
ATOM     29  C   LIG    1      -10.097   0.953  -7.066  0.00  0.00    +0.007 C 
ATOM     30  C   LIG    1       -8.637   1.399  -6.957  0.00  0.00    -0.010 C 
ATOM     31  C   LIG    1       -7.809   0.706  -8.041  0.00  0.00    +0.007 C 
ATOM     32  C   LIG    1       -8.091   1.023  -5.579  0.00  0.00    +0.012 C 
ATOM     33  C   LIG    1       -9.635  -0.940  -5.502  0.00  0.00    +0.012 C 
ENDBRANCH  23  24
ENDBRANCH  22  23
ENDBRANCH  21  22
ENDBRANCH  20  21
ENDBRANCH  19  20
ENDBRANCH  18  19
ENDBRANCH   1  18
TORSDOF 13
