REMARK  Name = ZINC58604152
REMARK                            x       y       z     vdW  Elec       q    Type
REMARK                         _______ _______ _______ _____ _____    ______ ____
ROOT
ATOM      1  C   LIG    1        0.001  -0.331  -2.545  0.00  0.00    +0.124 C 
ENDROOT
BRANCH   1   4
ATOM      2  C   LIG    1        0.020   1.493   0.044  0.00  0.00    +0.068 C 
ATOM      3  C   LIG    1        0.032  -0.014   0.026  0.00  0.00    +0.066 A 
ATOM      4  C   LIG    1        0.024  -0.818  -1.119  0.00  0.00    +0.026 A 
ATOM      5  C   LIG    1        0.040  -2.112  -0.720  0.00  0.00    +0.137 A 
ATOM      6 CL   LIG    1        0.038  -3.505  -1.756  0.00  0.00    -0.062 Cl
ATOM      7  N   LIG    1        0.058  -2.123   0.638  0.00  0.00    -0.221 N 
ATOM      8  N   LIG    1        0.058  -0.792   1.077  0.00  0.00    -0.170 NA
BRANCH   7   9
ATOM      9  C   LIG    1        0.078  -3.262   1.455  0.00  0.00    +0.067 A 
ATOM     10  C   LIG    1       -0.602  -4.408   1.067  0.00  0.00    +0.028 A 
ATOM     11  C   LIG    1       -0.581  -5.529   1.874  0.00  0.00    +0.002 A 
ATOM     12  C   LIG    1        0.117  -5.510   3.068  0.00  0.00    +0.000 A 
ATOM     13  C   LIG    1        0.795  -4.369   3.458  0.00  0.00    +0.002 A 
ATOM     14  C   LIG    1        0.782  -3.248   2.651  0.00  0.00    +0.028 A 
ENDBRANCH   7   9
ENDBRANCH   1   4
BRANCH   1  15
ATOM     15  N   LIG    1        1.378  -0.160  -3.026  0.00  0.00    -0.295 NA
ATOM     16  C   LIG    1        2.063   0.913  -2.294  0.00  0.00    +0.103 C 
ATOM     17  C   LIG    1        3.541   0.939  -2.696  0.00  0.00    +0.120 C 
ATOM     18  N   LIG    1        3.625   1.034  -4.161  0.00  0.00    -0.327 N 
ATOM     19  C   LIG    1        2.854   0.075  -4.966  0.00  0.00    +0.120 C 
ATOM     20  C   LIG    1        1.403   0.084  -4.475  0.00  0.00    +0.103 C 
BRANCH  18  21
ATOM     21  C   LIG    1        4.417   2.011  -4.772  0.00  0.00    +0.030 A 
ATOM     22  C   LIG    1        5.049   2.978  -4.000  0.00  0.00    +0.026 A 
ATOM     23  C   LIG    1        5.831   3.941  -4.606  0.00  0.00    +0.040 A 
ATOM     24  C   LIG    1        5.986   3.944  -5.982  0.00  0.00    +0.124 A 
ATOM     25  F   LIG    1        6.751   4.888  -6.573  0.00  0.00    -0.205 F 
ATOM     26  C   LIG    1        5.358   2.981  -6.754  0.00  0.00    +0.040 A 
ATOM     27  C   LIG    1        4.579   2.012  -6.152  0.00  0.00    +0.026 A 
ENDBRANCH  18  21
ENDBRANCH   1  15
TORSDOF 4
