REMARK  Name = ZINC00026029
REMARK                            x       y       z     vdW  Elec       q    Type
REMARK                         _______ _______ _______ _____ _____    ______ ____
ROOT
ATOM      1  C   LIG    1        4.825   4.352  -2.024  0.00  0.00    +0.020 A 
ATOM      2  C   LIG    1        3.720   4.585  -1.214  0.00  0.00    +0.007 A 
ATOM      3  C   LIG    1        2.850   3.536  -1.016  0.00  0.00    -0.025 A 
ATOM      4  C   LIG    1        3.048   2.275  -1.620  0.00  0.00    +0.034 A 
ATOM      5  N   LIG    1        2.018   1.453  -1.280  0.00  0.00    -0.330 N 
ATOM      6  C   LIG    1        2.115   0.013  -1.289  0.00  0.00    +0.086 C 
ATOM      7  C   LIG    1        0.689  -0.554  -1.171  0.00  0.00    -0.063 C 
ATOM      8  N   LIG    1       -0.007  -0.017   0.018  0.00  0.00    +0.381 N 
ATOM      9  H   LIG    1       -0.975  -0.359   0.022  0.00  0.00    -0.086 HD
ATOM     10  H   LIG    1        0.474  -0.344   0.864  0.00  0.00    -0.086 HD
ATOM     11  C   LIG    1       -0.018   1.473   0.010  0.00  0.00    -0.060 C 
ATOM     12  C   LIG    1        1.436   1.938  -0.001  0.00  0.00    +0.061 C 
ATOM     13  C   LIG    1        4.169   2.057  -2.421  0.00  0.00    +0.043 A 
ATOM     14  C   LIG    1        1.590   3.461  -0.184  0.00  0.00    +0.057 C 
ATOM     15  C   LIG    1        5.042   3.119  -2.605  0.00  0.00    +0.043 A 
ATOM     16 CL   LIG    1        6.449   2.890  -3.595  0.00  0.00    -0.083 Cl
ENDROOT
TORSDOF 0
