REMARK  Name = ZINC15924493
REMARK                            x       y       z     vdW  Elec       q    Type
REMARK                         _______ _______ _______ _____ _____    ______ ____
ROOT
ATOM      1  C   LIG    1        3.711  -0.707  -0.038  0.00  0.00    +0.176 C 
ATOM      2  C   LIG    1        3.790  -1.578  -1.275  0.00  0.00    +0.181 C 
ATOM      3  C   LIG    1        3.083  -2.868  -1.225  0.00  0.00    +0.040 A 
ATOM      4  C   LIG    1        2.605  -3.484  -2.381  0.00  0.00    +0.013 A 
ATOM      5  C   LIG    1        1.941  -4.689  -2.283  0.00  0.00    +0.001 A 
ATOM      6  C   LIG    1        1.749  -5.283  -1.045  0.00  0.00    +0.002 A 
ATOM      7  C   LIG    1        2.220  -4.684   0.106  0.00  0.00    +0.024 A 
ATOM      8  C   LIG    1        2.896  -3.474   0.031  0.00  0.00    +0.044 A 
ATOM      9  N   LIG    1        3.394  -2.863   1.172  0.00  0.00    -0.284 N 
ATOM     10  H   LIG    1        3.440  -3.375   1.995  0.00  0.00    +0.155 HD
ATOM     11  O   LIG    1        4.407  -1.229  -2.260  0.00  0.00    -0.291 OA
ATOM     12  C   LIG    1        3.815  -1.585   1.182  0.00  0.00    +0.232 C 
ATOM     13  O   LIG    1        4.293  -1.127   2.198  0.00  0.00    -0.274 OA
ENDROOT
BRANCH   1  17
ATOM     14  C   LIG    1       -0.017   1.378   0.010  0.00  0.00    +0.000 A 
ATOM     15  C   LIG    1        1.171   2.086   0.002  0.00  0.00    +0.000 A 
ATOM     16  C   LIG    1        2.377   1.411  -0.013  0.00  0.00    +0.005 A 
ATOM     17  C   LIG    1        2.396   0.029  -0.020  0.00  0.00    -0.028 A 
ATOM     18  C   LIG    1        1.208  -0.679  -0.012  0.00  0.00    +0.005 A 
ATOM     19  C   LIG    1        0.002  -0.004   0.002  0.00  0.00    +0.000 A 
ENDBRANCH   1  17
TORSDOF 1
