REMARK  Name = ZINC49089685
REMARK                            x       y       z     vdW  Elec       q    Type
REMARK                         _______ _______ _______ _____ _____    ______ ____
ROOT
ATOM      1  C   LIG    1        2.494  -2.494  -4.365  0.00  0.00    +0.121 C 
ATOM      2  N   LIG    1        3.069  -1.894  -5.373  0.00  0.00    -0.177 NA
ATOM      3  N   LIG    1        3.588  -2.816  -6.281  0.00  0.00    -0.201 N 
ATOM      4  H   LIG    1        4.054  -2.584  -7.100  0.00  0.00    +0.178 HD
ATOM      5  C   LIG    1        3.349  -4.074  -5.861  0.00  0.00    +0.285 C 
ATOM      6  O   LIG    1        3.670  -5.107  -6.423  0.00  0.00    -0.267 OA
ATOM      7  C   LIG    1        2.627  -3.949  -4.584  0.00  0.00    +0.172 C 
ATOM      8  N   LIG    1        2.193  -4.923  -3.807  0.00  0.00    -0.175 NA
ENDROOT
BRANCH   1  12
ATOM      9  C   LIG    1        0.606  -0.607  -1.055  0.00  0.00    +0.120 A 
ATOM     10  C   LIG    1        1.173   0.164  -2.062  0.00  0.00    +0.046 A 
ATOM     11  C   LIG    1        1.786  -0.444  -3.136  0.00  0.00    +0.014 A 
ATOM     12  C   LIG    1        1.837  -1.836  -3.212  0.00  0.00    +0.004 A 
ATOM     13  C   LIG    1        1.267  -2.608  -2.199  0.00  0.00    +0.014 A 
ATOM     14  C   LIG    1        0.659  -1.993  -1.125  0.00  0.00    +0.046 A 
BRANCH   9  16
ATOM     15  C   LIG    1       -0.017   1.425   0.010  0.00  0.00    +0.277 C 
ATOM     16  O   LIG    1        0.002  -0.004   0.002  0.00  0.00    -0.495 OA
ENDBRANCH   9  16
ENDBRANCH   1  12
BRANCH   8  17
ATOM     17  N   LIG    1        2.390  -6.153  -4.143  0.00  0.00    -0.237 N 
ATOM     18  H   LIG    1        2.858  -6.361  -4.966  0.00  0.00    +0.174 HD
BRANCH  17  19
ATOM     19  C   LIG    1        1.931  -7.182  -3.321  0.00  0.00    +0.048 A 
ATOM     20  C   LIG    1        1.256  -6.885  -2.143  0.00  0.00    +0.026 A 
ATOM     21  C   LIG    1        0.802  -7.906  -1.333  0.00  0.00    +0.022 A 
ATOM     22  C   LIG    1        1.020  -9.225  -1.691  0.00  0.00    +0.041 A 
ATOM     23 CL   LIG    1        0.448 -10.506  -0.669  0.00  0.00    -0.084 Cl
ATOM     24  C   LIG    1        1.692  -9.525  -2.863  0.00  0.00    +0.022 A 
ATOM     25  C   LIG    1        2.143  -8.508  -3.681  0.00  0.00    +0.026 A 
ENDBRANCH  17  19
ENDBRANCH   8  17
TORSDOF 4
