REMARK  Name = ZINC40914199
REMARK                            x       y       z     vdW  Elec       q    Type
REMARK                         _______ _______ _______ _____ _____    ______ ____
ROOT
ATOM      1  C   LIG    1        2.588  -2.553   4.309  0.00  0.00    +0.101 C 
ATOM      2  C   LIG    1        3.730  -3.380   3.791  0.00  0.00    +0.098 C 
ATOM      3  C   LIG    1        3.609  -4.725   3.675  0.00  0.00    +0.198 C 
ATOM      4  O   LIG    1        2.470  -5.350   4.017  0.00  0.00    -0.445 OA
ATOM      5  C   LIG    1        1.593  -4.760   4.851  0.00  0.00    +0.115 C 
ATOM      6  C   LIG    1        0.594  -5.637   5.569  0.00  0.00    +0.083 C 
ATOM      7  C   LIG    1        0.254  -5.030   6.922  0.00  0.00    +0.034 C 
ATOM      8  C   LIG    1       -0.316  -3.626   6.691  0.00  0.00    +0.088 C 
ATOM      9  C   LIG    1        0.687  -2.815   5.916  0.00  0.00    +0.164 C 
ATOM     10  O   LIG    1        0.709  -1.608   6.050  0.00  0.00    -0.292 OA
ATOM     11  C   LIG    1        1.599  -3.430   5.037  0.00  0.00    +0.046 C 
ENDROOT
BRANCH   7  12
ATOM     12  C   LIG    1       -0.772  -5.884   7.622  0.00  0.00    -0.036 A 
ATOM     13  C   LIG    1       -2.017  -6.030   7.091  0.00  0.00    +0.004 A 
ATOM     14  C   LIG    1       -2.978  -6.815   7.723  0.00  0.00    +0.001 A 
ATOM     15  C   LIG    1       -2.701  -7.459   8.890  0.00  0.00    +0.008 A 
ATOM     16  C   LIG    1       -1.426  -7.332   9.468  0.00  0.00    -0.018 A 
ATOM     17  C   LIG    1       -1.103  -7.981  10.672  0.00  0.00    +0.008 A 
ATOM     18  C   LIG    1        0.148  -7.850  11.193  0.00  0.00    +0.001 A 
ATOM     19  C   LIG    1        1.110  -7.064  10.560  0.00  0.00    +0.001 A 
ATOM     20  C   LIG    1        0.830  -6.416   9.397  0.00  0.00    +0.009 A 
ATOM     21  C   LIG    1       -0.446  -6.538   8.822  0.00  0.00    -0.014 A 
ENDBRANCH   7  12
BRANCH   1  25
ATOM     22  C   LIG    1        0.630  -0.632   1.032  0.00  0.00    +0.120 A 
ATOM     23  C   LIG    1        1.204   0.128   2.041  0.00  0.00    +0.046 A 
ATOM     24  C   LIG    1        1.835  -0.495   3.099  0.00  0.00    +0.008 A 
ATOM     25  C   LIG    1        1.897  -1.875   3.153  0.00  0.00    -0.034 A 
ATOM     26  C   LIG    1        1.327  -2.635   2.149  0.00  0.00    +0.008 A 
ATOM     27  C   LIG    1        0.689  -2.017   1.091  0.00  0.00    +0.046 A 
BRANCH  22  29
ATOM     28  C   LIG    1       -0.014   1.407  -0.006  0.00  0.00    +0.277 C 
ATOM     29  O   LIG    1        0.008  -0.021  -0.011  0.00  0.00    -0.495 OA
ENDBRANCH  22  29
ENDBRANCH   1  25
BRANCH   3  30
ATOM     30  N   LIG    1        4.667  -5.460   3.202  0.00  0.00    -0.328 N 
ATOM     31  H   LIG    1        4.588  -6.423   3.116  0.00  0.00    +0.145 HD
ATOM     32  H   LIG    1        5.493  -5.017   2.953  0.00  0.00    +0.145 HD
ENDBRANCH   3  30
BRANCH   2  33
ATOM     33  C   LIG    1        4.957  -2.743   3.415  0.00  0.00    +0.101 C 
ATOM     34  N   LIG    1        5.929  -2.237   3.118  0.00  0.00    -0.191 NA
ENDBRANCH   2  33
TORSDOF 5
