REMARK  Name = ZINC26578840
REMARK                            x       y       z     vdW  Elec       q    Type
REMARK                         _______ _______ _______ _____ _____    ______ ____
ROOT
ATOM      1  C   LIG    1       -3.261  -1.397   1.424  0.00  0.00    +0.005 C 
ENDROOT
BRANCH   1   2
ATOM      2  C   LIG    1       -3.841  -1.378   2.840  0.00  0.00    +0.006 C 
ATOM      3  C   LIG    1       -5.174  -2.095   3.067  0.00  0.00    +0.003 C 
ATOM      4  C   LIG    1       -5.117  -0.565   3.070  0.00  0.00    +0.103 C 
BRANCH   4   5
ATOM      5  C   LIG    1       -5.266   0.134   4.397  0.00  0.00    +0.308 C 
ATOM      6  O   LIG    1       -4.397   0.040   5.231  0.00  0.00    -0.251 OA
BRANCH   5   7
ATOM      7  O   LIG    1       -6.365   0.861   4.652  0.00  0.00    -0.480 OA
ATOM      8  H   LIG    1       -7.039   0.934   4.005  0.00  0.00    +0.295 HD
ENDBRANCH   5   7
ENDBRANCH   4   5
BRANCH   3   9
ATOM      9  CA  LIG    1       -5.824  -2.775   1.861  0.00  0.00    +0.040 C 
BRANCH   9  10
ATOM     10  N   LIG    1       -6.094  -1.774   0.820  0.00  0.00    +0.387 N 
ATOM     11  H1  LIG    1       -6.773  -1.005   1.218  0.00  0.00    -0.089 HD
ATOM     12  H2  LIG    1       -5.149  -1.303   0.510  0.00  0.00    -0.089 HD
ATOM     13  H3  LIG    1       -6.562  -2.263  -0.047  0.00  0.00    -0.089 HD
ENDBRANCH   9  10
BRANCH   9  14
ATOM     14  C   LIG    1       -7.119  -3.420   2.285  0.00  0.00    +0.290 C 
ATOM     15  O   LIG    1       -8.170  -2.865   2.067  0.00  0.00    -0.253 OA
BRANCH  14  16
ATOM     16  OXT LIG    1       -7.104  -4.610   2.906  0.00  0.00    -0.482 OA
ATOM     17  HXT LIG    1       -6.289  -5.040   3.075  0.00  0.00    +0.295 HD
ENDBRANCH  14  16
ENDBRANCH   9  14
ENDBRANCH   3   9
ENDBRANCH   1   2
BRANCH   1  18
ATOM     18  C   LIG    1       -1.879  -0.740   1.431  0.00  0.00    +0.013 C 
BRANCH  18  24
ATOM     19  C   LIG    1        1.167   2.092   0.002  0.00  0.00    +0.001 A 
ATOM     20  C   LIG    1        2.377   1.423  -0.014  0.00  0.00    +0.004 A 
ATOM     21  C   LIG    1        2.402   0.043  -0.022  0.00  0.00    +0.046 A 
ATOM     22  C   LIG    1        1.212  -0.677  -0.015  0.00  0.00    +0.132 A 
ATOM     23  C   LIG    1        0.002  -0.004   0.002  0.00  0.00    +0.002 A 
ATOM     24  C   LIG    1       -1.299  -0.759   0.015  0.00  0.00    +0.056 C 
ATOM     25  C   LIG    1       -1.088  -2.184  -0.416  0.00  0.00    +0.002 A 
ATOM     26  C   LIG    1       -2.176  -2.939  -0.818  0.00  0.00    +0.008 A 
ATOM     27  C   LIG    1       -2.004  -4.251  -1.216  0.00  0.00    +0.001 A 
ATOM     28  C   LIG    1       -0.742  -4.815  -1.213  0.00  0.00    +0.004 A 
ATOM     29  C   LIG    1        0.347  -4.067  -0.814  0.00  0.00    +0.046 A 
ATOM     30  C   LIG    1        0.178  -2.747  -0.413  0.00  0.00    +0.132 A 
ATOM     31  O   LIG    1        1.259  -2.031  -0.023  0.00  0.00    -0.455 OA
ATOM     32  C   LIG    1       -0.017   1.380   0.010  0.00  0.00    +0.008 A 
ENDBRANCH  18  24
ENDBRANCH   1  18
TORSDOF 9
