REMARK  Name = ZINC14959065
REMARK                            x       y       z     vdW  Elec       q    Type
REMARK                         _______ _______ _______ _____ _____    ______ ____
ROOT
ATOM      1  N   LIG    1       -2.479  -0.410   0.051  0.00  0.00    -0.293 N 
ATOM      2  C   LIG    1       -1.361  -0.961  -0.463  0.00  0.00    +0.263 C 
ATOM      3  O   LIG    1       -1.281  -2.169  -0.590  0.00  0.00    -0.268 OA
ATOM      4  C   LIG    1       -2.580   1.045   0.192  0.00  0.00    +0.133 C 
ENDROOT
BRANCH   2   5
ATOM      5  C   LIG    1       -0.241  -0.105  -0.868  0.00  0.00    +0.102 A 
ATOM      6  C   LIG    1        1.026  -0.528  -1.210  0.00  0.00    +0.032 A 
ATOM      7  C   LIG    1        1.768   0.613  -1.528  0.00  0.00    +0.020 A 
ATOM      8  C   LIG    1        0.961   1.690  -1.378  0.00  0.00    +0.083 A 
ATOM      9  N   LIG    1       -0.263   1.267  -0.977  0.00  0.00    -0.357 N 
ATOM     10  H   LIG    1       -1.029   1.836  -0.800  0.00  0.00    +0.165 HD
ENDBRANCH   2   5
BRANCH   1  12
ATOM     11  C   LIG    1       -3.966  -0.946   1.917  0.00  0.00    +0.033 C 
ATOM     12  C   LIG    1       -3.592  -1.266   0.468  0.00  0.00    +0.103 C 
BRANCH  12  13
ATOM     13  C   LIG    1       -4.780  -1.015  -0.425  0.00  0.00    -0.027 A 
ATOM     14  C   LIG    1       -5.306   0.259  -0.534  0.00  0.00    +0.005 A 
ATOM     15  C   LIG    1       -6.393   0.490  -1.356  0.00  0.00    +0.000 A 
ATOM     16  C   LIG    1       -6.960  -0.555  -2.062  0.00  0.00    +0.000 A 
ATOM     17  C   LIG    1       -6.438  -1.830  -1.948  0.00  0.00    +0.000 A 
ATOM     18  C   LIG    1       -5.348  -2.060  -1.129  0.00  0.00    +0.005 A 
ENDBRANCH  12  13
ENDBRANCH   1  12
TORSDOF 3
