REMARK  Name = ZINC17002865
REMARK                            x       y       z     vdW  Elec       q    Type
REMARK                         _______ _______ _______ _____ _____    ______ ____
ROOT
ATOM      1  C   LIG    1       -0.013   1.086   0.008  0.00  0.00    +0.112 C 
ENDROOT
BRANCH   1   5
ATOM      2  C   LIG    1       -2.013   2.464   3.524  0.00  0.00    +0.120 A 
ATOM      3  C   LIG    1       -2.368   1.250   2.954  0.00  0.00    +0.046 A 
ATOM      4  C   LIG    1       -1.720   0.807   1.817  0.00  0.00    +0.008 A 
ATOM      5  C   LIG    1       -0.718   1.572   1.248  0.00  0.00    -0.037 A 
ATOM      6  C   LIG    1       -0.359   2.779   1.818  0.00  0.00    +0.008 A 
ATOM      7  C   LIG    1       -1.008   3.230   2.951  0.00  0.00    +0.046 A 
BRANCH   2   9
ATOM      8  C   LIG    1       -2.232   4.161   5.174  0.00  0.00    +0.277 C 
ATOM      9  O   LIG    1       -2.649   2.902   4.642  0.00  0.00    -0.495 OA
ENDBRANCH   2   9
ENDBRANCH   1   5
BRANCH   1  10
ATOM     10  S   LIG    1       -0.888   1.685  -1.458  0.00  0.00    -0.088 S 
BRANCH  10  11
ATOM     11  C   LIG    1        0.122   0.990  -2.724  0.00  0.00    +0.123 C 
ATOM     12  N   LIG    1        1.165   0.274  -2.405  0.00  0.00    -0.382 N 
ATOM     13  H   LIG    1        1.414   0.104  -1.347  0.00  0.00    +0.158 HD
ATOM     14  H   LIG    1        1.796  -0.160  -3.195  0.00  0.00    +0.158 HD
BRANCH  11  15
ATOM     15  N   LIG    1       -0.189   1.202  -4.047  0.00  0.00    -0.340 N 
ATOM     16  H   LIG    1       -1.069   1.806  -4.315  0.00  0.00    +0.144 HD
ATOM     17  H   LIG    1        0.442   0.768  -4.836  0.00  0.00    +0.144 HD
ENDBRANCH  11  15
ENDBRANCH  10  11
ENDBRANCH   1  10
TORSDOF 5
