REMARK  Name = ZINC27647125
REMARK                            x       y       z     vdW  Elec       q    Type
REMARK                         _______ _______ _______ _____ _____    ______ ____
ROOT
ATOM      1  C   LIG    1       -0.595  -3.312   6.466  0.00  0.00    -0.027 C 
ATOM      2  C   LIG    1        0.290  -2.557   5.864  0.00  0.00    -0.027 C 
ENDROOT
BRANCH   1   3
ATOM      3  C   LIG    1       -1.871  -3.689   5.759  0.00  0.00    +0.053 C 
BRANCH   3   5
ATOM      4  C   LIG    1       -3.139  -5.721   6.230  0.00  0.00    -0.027 C 
ATOM      5  C   LIG    1       -2.032  -5.187   5.777  0.00  0.00    -0.027 C 
BRANCH   4   6
ATOM      6  C   LIG    1       -4.317  -4.843   6.566  0.00  0.00    +0.053 C 
BRANCH   6   8
ATOM      7  C   LIG    1       -6.636  -5.606   6.511  0.00  0.00    -0.031 C 
ATOM      8  C   LIG    1       -5.540  -5.344   5.842  0.00  0.00    -0.027 C 
BRANCH   7   9
ATOM      9  C   LIG    1       -6.729  -5.253   7.973  0.00  0.00    +0.027 C 
BRANCH   9  10
ATOM     10  C   LIG    1       -7.993  -4.427   8.219  0.00  0.00    +0.004 C 
BRANCH  10  11
ATOM     11  C   LIG    1       -8.087  -4.069   9.704  0.00  0.00    +0.000 C 
BRANCH  11  13
ATOM     12  C   LIG    1       -9.445  -2.884  11.434  0.00  0.00    +0.004 C 
ATOM     13  C   LIG    1       -9.351  -3.242   9.950  0.00  0.00    -0.003 C 
ENDBRANCH  11  13
ENDBRANCH  10  11
ENDBRANCH   9  10
ENDBRANCH   7   9
ENDBRANCH   6   8
ENDBRANCH   4   6
ENDBRANCH   3   5
ENDBRANCH   1   3
BRANCH   2  14
ATOM     14  C   LIG    1       -0.036  -1.930   4.532  0.00  0.00    +0.053 C 
BRANCH  14  15
ATOM     15  C   LIG    1        0.227  -0.448   4.597  0.00  0.00    -0.027 C 
ATOM     16  C   LIG    1        1.004   0.119   3.708  0.00  0.00    -0.031 C 
BRANCH  16  17
ATOM     17  C   LIG    1        1.502  -0.674   2.528  0.00  0.00    +0.027 C 
BRANCH  17  18
ATOM     18  C   LIG    1        1.188   0.082   1.236  0.00  0.00    +0.015 C 
BRANCH  18  19
ATOM     19  C   LIG    1        1.694  -0.724   0.037  0.00  0.00    +0.121 C 
BRANCH  19  20
ATOM     20  C   LIG    1        1.385   0.021  -1.236  0.00  0.00    +0.307 C 
ATOM     21  O   LIG    1        0.817   1.086  -1.189  0.00  0.00    -0.251 OA
BRANCH  20  22
ATOM     22  O   LIG    1        1.739  -0.500  -2.421  0.00  0.00    -0.462 OA
BRANCH  22  23
ATOM     23  C   LIG    1        1.409   0.272  -3.605  0.00  0.00    +0.266 C 
BRANCH  23  24
ATOM     24  C   LIG    1        1.888  -0.475  -4.851  0.00  0.00    +0.181 C 
ATOM     25  C   LIG    1        1.740   0.225  -6.204  0.00  0.00    +0.195 C 
ATOM     26  O   LIG    1        0.905  -0.866  -5.812  0.00  0.00    -0.368 OA
ENDBRANCH  23  24
ENDBRANCH  22  23
ENDBRANCH  20  22
ENDBRANCH  19  20
ENDBRANCH  18  19
ENDBRANCH  17  18
ENDBRANCH  16  17
ENDBRANCH  14  15
ENDBRANCH   2  14
TORSDOF 17
