REMARK  Name = ZINC00056464
REMARK                            x       y       z     vdW  Elec       q    Type
REMARK                         _______ _______ _______ _____ _____    ______ ____
ROOT
ATOM      1  C   LIG    1        2.380   1.415   0.001  0.00  0.00    +0.002 A 
ATOM      2  C   LIG    1        1.171   2.086   0.002  0.00  0.00    +0.012 A 
ATOM      3  C   LIG    1       -0.016   1.377  -0.004  0.00  0.00    +0.057 A 
ATOM      4  C   LIG    1        0.002  -0.004  -0.012  0.00  0.00    +0.035 A 
ATOM      5  C   LIG    1        1.215  -0.681  -0.013  0.00  0.00    +0.030 A 
ATOM      6  C   LIG    1        2.406   0.035  -0.006  0.00  0.00    +0.023 A 
ENDROOT
BRANCH   5   7
ATOM      7  N   LIG    1        1.238  -2.077  -0.021  0.00  0.00    -0.333 N 
ATOM      8  C   LIG    1        2.506  -2.812  -0.141  0.00  0.00    +0.086 C 
ATOM      9  C   LIG    1        2.567  -3.861   0.974  0.00  0.00    -0.063 C 
ATOM     10  N   LIG    1        1.369  -4.707   0.915  0.00  0.00    +0.381 N 
ATOM     11  H   LIG    1        1.444  -5.444   1.601  0.00  0.00    -0.086 HD
ATOM     12  H   LIG    1        1.290  -5.114  -0.005  0.00  0.00    -0.086 HD
ATOM     13  C   LIG    1        0.174  -3.901   1.196  0.00  0.00    -0.063 C 
ATOM     14  C   LIG    1       -0.005  -2.854   0.097  0.00  0.00    +0.086 C 
ENDBRANCH   5   7
BRANCH   3  15
ATOM     15  C   LIG    1       -1.332   2.112  -0.002  0.00  0.00    +0.417 C 
ATOM     16  F   LIG    1       -2.063   1.757   1.137  0.00  0.00    -0.166 F 
ATOM     17  F   LIG    1       -2.059   1.770  -1.148  0.00  0.00    -0.166 F 
ATOM     18  F   LIG    1       -1.096   3.491   0.006  0.00  0.00    -0.166 F 
ENDBRANCH   3  15
TORSDOF 2
