REMARK  Name = ZINC71297123
REMARK                            x       y       z     vdW  Elec       q    Type
REMARK                         _______ _______ _______ _____ _____    ______ ____
ROOT
ATOM      1  C   LIG    1       -2.557   1.919   6.713  0.00  0.00    +0.090 A 
ATOM      2  C   LIG    1       -2.422   3.197   7.265  0.00  0.00    +0.141 A 
ATOM      3  N   LIG    1       -3.122   3.537   8.329  0.00  0.00    -0.236 NA
ATOM      4  C   LIG    1       -3.959   2.666   8.882  0.00  0.00    +0.147 A 
ATOM      5  C   LIG    1       -4.097   1.381   8.331  0.00  0.00    +0.166 A 
ATOM      6  N   LIG    1       -3.393   1.045   7.254  0.00  0.00    -0.237 NA
ENDROOT
BRANCH   1  10
ATOM      7  C   LIG    1       -0.291   0.840   3.280  0.00  0.00    +0.089 A 
ATOM      8  C   LIG    1       -0.078   2.064   3.890  0.00  0.00    +0.027 A 
ATOM      9  C   LIG    1       -0.811   2.419   5.004  0.00  0.00    +0.012 A 
ATOM     10  C   LIG    1       -1.767   1.543   5.515  0.00  0.00    +0.002 A 
ATOM     11  C   LIG    1       -1.977   0.312   4.897  0.00  0.00    +0.012 A 
ATOM     12  C   LIG    1       -1.242  -0.031   3.780  0.00  0.00    +0.027 A 
BRANCH   7  13
ATOM     13  S   LIG    1        0.649   0.393   1.859  0.00  0.00    +0.001 S 
ATOM     14  O   LIG    1        1.860   1.126   1.979  0.00  0.00    -0.169 OA
ATOM     15  O   LIG    1        0.658  -1.028   1.863  0.00  0.00    -0.169 OA
BRANCH  13  17
ATOM     16  C   LIG    1       -0.389   2.535   0.510  0.00  0.00    +0.033 C 
ATOM     17  C   LIG    1       -0.316   1.008   0.450  0.00  0.00    +0.147 C 
BRANCH  17  18
ATOM     18  C   LIG    1        0.359   0.580  -0.855  0.00  0.00    +0.110 C 
BRANCH  18  19
ATOM     19  N   LIG    1        0.530  -0.879  -0.863  0.00  0.00    -0.307 NA
ATOM     20  C   LIG    1        1.548  -1.284  -1.841  0.00  0.00    +0.104 C 
ATOM     21  C   LIG    1       -0.747  -1.558  -1.120  0.00  0.00    +0.104 C 
ENDBRANCH  18  19
ENDBRANCH  17  18
ENDBRANCH  13  17
ENDBRANCH   7  13
ENDBRANCH   1  10
BRANCH   5  22
ATOM     22  C   LIG    1       -5.026   0.408   8.942  0.00  0.00    +0.270 C 
ATOM     23  N   LIG    1       -5.071  -0.859   8.485  0.00  0.00    -0.280 N 
ATOM     24  H   LIG    1       -4.438  -1.155   7.812  0.00  0.00    +0.155 HD
ATOM     25  O   LIG    1       -5.750   0.751   9.856  0.00  0.00    -0.268 OA
BRANCH  23  26
ATOM     26  C   LIG    1       -6.030  -1.747   8.981  0.00  0.00    +0.034 A 
ATOM     27  C   LIG    1       -5.719  -3.092   9.136  0.00  0.00    +0.023 A 
ATOM     28  C   LIG    1       -6.668  -3.967   9.627  0.00  0.00    +0.002 A 
ATOM     29  C   LIG    1       -7.927  -3.505   9.964  0.00  0.00    +0.000 A 
ATOM     30  C   LIG    1       -8.240  -2.167   9.811  0.00  0.00    +0.002 A 
ATOM     31  C   LIG    1       -7.294  -1.286   9.326  0.00  0.00    +0.023 A 
ENDBRANCH  23  26
ENDBRANCH   5  22
BRANCH   4  32
ATOM     32  N   LIG    1       -4.692   3.022   9.998  0.00  0.00    -0.341 N 
ATOM     33  H   LIG    1       -5.240   2.362  10.450  0.00  0.00    +0.144 HD
ATOM     34  H   LIG    1       -4.659   3.933  10.330  0.00  0.00    +0.144 HD
ENDBRANCH   4  32
TORSDOF 8
