REMARK  Name = ZINC13745255
REMARK                            x       y       z     vdW  Elec       q    Type
REMARK                         _______ _______ _______ _____ _____    ______ ____
ROOT
ATOM      1  C   LIG    1       -0.543   1.446  -3.655  0.00  0.00    +0.251 C 
ATOM      2  N   LIG    1       -0.067   1.120  -2.437  0.00  0.00    -0.311 N 
ATOM      3  H   LIG    1        0.730   0.573  -2.358  0.00  0.00    +0.149 HD
ATOM      4  O   LIG    1       -1.543   2.133  -3.753  0.00  0.00    -0.270 OA
ENDROOT
BRANCH   1   9
ATOM      5  C   LIG    1        2.739  -0.814  -7.575  0.00  0.00    +0.051 C 
ATOM      6  C   LIG    1        1.712  -0.107  -6.728  0.00  0.00    -0.013 A 
ATOM      7  C   LIG    1        0.643   0.627  -7.134  0.00  0.00    +0.011 A 
ATOM      8  C   LIG    1       -0.178   1.192  -6.191  0.00  0.00    +0.021 A 
ATOM      9  C   LIG    1        0.143   0.973  -4.861  0.00  0.00    +0.074 A 
ATOM     10  S   LIG    1        1.613  -0.027  -4.999  0.00  0.00    -0.089 S 
ENDBRANCH   1   9
BRANCH   2  11
ATOM     11  C   LIG    1       -0.753   1.593  -1.232  0.00  0.00    +0.106 C 
BRANCH  11  12
ATOM     12  C   LIG    1       -0.013   1.086   0.008  0.00  0.00    +0.040 C 
BRANCH  12  13
ATOM     13  C   LIG    1       -0.729   1.579   1.267  0.00  0.00    +0.124 C 
BRANCH  13  14
ATOM     14  N   LIG    1       -0.020   1.094   2.454  0.00  0.00    -0.337 N 
ATOM     15  C   LIG    1       -0.255  -0.081   3.116  0.00  0.00    +0.106 A 
ATOM     16  C   LIG    1        0.618  -0.132   4.140  0.00  0.00    +0.130 A 
ATOM     17  N   LIG    1        1.359   0.986   4.110  0.00  0.00    -0.244 NA
ATOM     18  C   LIG    1        0.982   1.725   3.102  0.00  0.00    +0.199 A 
ENDBRANCH  13  14
ENDBRANCH  12  13
ENDBRANCH  11  12
ENDBRANCH   2  11
TORSDOF 5
