REMARK  Name = ZINC71789367
REMARK                            x       y       z     vdW  Elec       q    Type
REMARK                         _______ _______ _______ _____ _____    ______ ____
ROOT
ATOM      1  C   LIG    1       -0.013   1.086   0.008  0.00  0.00    +0.178 C 
ATOM      2  C   LIG    1       -0.753   1.593  -1.232  0.00  0.00    +0.192 C 
ATOM      3  C   LIG    1       -0.037   1.099  -2.490  0.00  0.00    +0.178 C 
ATOM      4  C   LIG    1        1.399   1.629  -2.501  0.00  0.00    +0.193 C 
ATOM      5  C   LIG    1        2.139   1.122  -1.262  0.00  0.00    +0.194 C 
ATOM      6  C   LIG    1        1.423   1.615  -0.003  0.00  0.00    +0.193 C 
ENDROOT
BRANCH   3   7
ATOM      7  O   LIG    1       -0.017  -0.330  -2.498  0.00  0.00    -0.386 OA
ATOM      8  H   LIG    1       -0.895  -0.735  -2.492  0.00  0.00    +0.210 HD
ENDBRANCH   3   7
BRANCH   1   9
ATOM      9  O   LIG    1       -0.682   1.547   1.184  0.00  0.00    -0.386 OA
ATOM     10  H   LIG    1       -1.599   1.248   1.257  0.00  0.00    +0.210 HD
ENDBRANCH   1   9
BRANCH   4  11
ATOM     11  O   LIG    1        2.068   1.168  -3.677  0.00  0.00    -0.278 OA
BRANCH  11  12
ATOM     12  P   LIG    1        2.682   2.163  -4.783  0.00  0.00    +0.473 P 
ATOM     13  O   LIG    1        1.581   3.127  -5.277  0.00  0.00    -0.228 OA
BRANCH  12  14
ATOM     14  O   LIG    1        3.837   2.978  -4.159  0.00  0.00    -0.303 OA
ATOM     15  H   LIG    1        3.500   3.494  -3.410  0.00  0.00    +0.222 HD
ENDBRANCH  12  14
BRANCH  12  16
ATOM     16  O   LIG    1        3.241   1.305  -6.026  0.00  0.00    -0.303 OA
ATOM     17  H   LIG    1        3.627   1.841  -6.732  0.00  0.00    +0.222 HD
ENDBRANCH  12  16
ENDBRANCH  11  12
ENDBRANCH   4  11
BRANCH   5  18
ATOM     18  O   LIG    1        3.479   1.617  -1.272  0.00  0.00    -0.278 OA
BRANCH  18  19
ATOM     19  P   LIG    1        4.769   0.653  -1.289  0.00  0.00    +0.473 P 
ATOM     20  O   LIG    1        4.692  -0.344  -0.084  0.00  0.00    -0.228 OA
BRANCH  19  21
ATOM     21  O   LIG    1        4.801  -0.152  -2.633  0.00  0.00    -0.303 OA
ATOM     22  H   LIG    1        3.997  -0.688  -2.708  0.00  0.00    +0.222 HD
ENDBRANCH  19  21
BRANCH  19  23
ATOM     23  O   LIG    1        6.069   1.519  -1.168  0.00  0.00    -0.303 OA
ATOM     24  H   LIG    1        6.049   2.018  -0.337  0.00  0.00    +0.222 HD
ENDBRANCH  19  23
ENDBRANCH  18  19
ENDBRANCH   5  18
BRANCH   6  25
ATOM     25  O   LIG    1        2.114   1.142   1.155  0.00  0.00    -0.278 OA
BRANCH  25  26
ATOM     26  P   LIG    1        2.749   2.125   2.260  0.00  0.00    +0.473 P 
ATOM     27  O   LIG    1        3.726   3.133   1.563  0.00  0.00    -0.228 OA
BRANCH  26  28
ATOM     28  O   LIG    1        1.603   2.919   2.974  0.00  0.00    -0.303 OA
ATOM     29  H   LIG    1        1.115   3.442   2.318  0.00  0.00    +0.222 HD
ENDBRANCH  26  28
BRANCH  26  30
ATOM     30  O   LIG    1        3.538   1.281   3.318  0.00  0.00    -0.303 OA
ATOM     31  H   LIG    1        4.248   0.790   2.876  0.00  0.00    +0.222 HD
ENDBRANCH  26  30
ENDBRANCH  25  26
ENDBRANCH   6  25
BRANCH   2  32
ATOM     32  O   LIG    1       -2.093   1.098  -1.221  0.00  0.00    -0.278 OA
BRANCH  32  33
ATOM     33  P   LIG    1       -3.383   2.061  -1.204  0.00  0.00    +0.473 P 
ATOM     34  O   LIG    1       -3.283   3.046   0.011  0.00  0.00    -0.228 OA
BRANCH  33  35
ATOM     35  O   LIG    1       -3.441   2.881  -2.538  0.00  0.00    -0.303 OA
ATOM     36  H   LIG    1       -2.638   3.418  -2.622  0.00  0.00    +0.222 HD
ENDBRANCH  33  35
BRANCH  33  37
ATOM     37  O   LIG    1       -4.681   1.194  -1.067  0.00  0.00    -0.303 OA
ATOM     38  H   LIG    1       -4.645   0.686  -0.242  0.00  0.00    +0.222 HD
ENDBRANCH  33  37
ENDBRANCH  32  33
ENDBRANCH   2  32
TORSDOF 18
