REMARK  Name = ZINC18456279
REMARK                            x       y       z     vdW  Elec       q    Type
REMARK                         _______ _______ _______ _____ _____    ______ ____
ROOT
ATOM      1  C   UNK A  0       -0.006   1.391   0.055  0.00  0.00    +0.015 A 
ATOM      2  C   UNK A  0        1.176   2.095   0.037  0.00  0.00    +0.023 A 
ATOM      3  C   UNK A  0        2.391   1.416   0.015  0.00  0.00    +0.027 A 
ATOM      4  C   UNK A  0        2.415   0.024   0.011  0.00  0.00    +0.023 A 
ATOM      5  C   UNK A  0        1.236  -0.685   0.028  0.00  0.00    +0.015 A 
ATOM      6  C   UNK A  0        0.014  -0.007   0.050  0.00  0.00    +0.037 A 
ENDROOT
BRANCH   6   7
ATOM      7  C   UNK A  0       -1.252  -0.765   0.069  0.00  0.00    +0.245 C 
ATOM      8  N   GLU A  1       -1.230  -2.112   0.065  0.00  0.00    -0.298 N 
ATOM      9  H   GLU A  1       -0.383  -2.584   0.049  0.00  0.00    +0.150 HD
ATOM     10  O   UNK A  0       -2.314  -0.174   0.089  0.00  0.00    -0.270 OA
BRANCH   8  11
ATOM     11  CA  GLU A  1       -2.487  -2.865   0.084  0.00  0.00    +0.182 C 
BRANCH  11  12
ATOM     12  C   GLU A  1       -2.958  -3.021   1.507  0.00  0.00    +0.325 C 
ATOM     13  O   GLU A  1       -2.304  -2.547   2.421  0.00  0.00    -0.249 OA
BRANCH  12  14
ATOM     14  OXT GLU A  1       -3.993  -3.621   1.745  0.00  0.00    -0.479 OA
ATOM     15  HXT GLU A  1       -4.495  -3.984   1.042  0.00  0.00    +0.295 HD
ENDBRANCH  12  14
ENDBRANCH  11  12
BRANCH  11  16
ATOM     16  CB  GLU A  1       -2.264  -4.247  -0.534  0.00  0.00    +0.045 C 
BRANCH  16  17
ATOM     17  CG  GLU A  1       -1.907  -4.092  -2.013  0.00  0.00    +0.123 C 
BRANCH  17  18
ATOM     18  CD  GLU A  1       -1.687  -5.454  -2.622  0.00  0.00    +0.305 C 
ATOM     19  OE1 GLU A  1       -1.804  -6.454  -1.935  0.00  0.00    -0.251 OA
BRANCH  18  20
ATOM     20  OE2 GLU A  1       -1.391  -5.554  -3.800  0.00  0.00    -0.481 OA
ATOM     21  HE2 GLU A  1       -1.300  -4.785  -4.328  0.00  0.00    +0.295 HD
ENDBRANCH  18  20
ENDBRANCH  17  18
ENDBRANCH  16  17
ENDBRANCH  11  16
ENDBRANCH   8  11
ENDBRANCH   6   7
BRANCH   3  22
ATOM     22  N   UNK A  0        3.584   2.130  -0.003  0.00  0.00    -0.342 N 
ATOM     23  H   UNK A  0        3.569   3.100   0.000  0.00  0.00    +0.146 HD
BRANCH  22  24
ATOM     24  C   UNK A  0        4.864   1.418  -0.026  0.00  0.00    +0.126 C 
BRANCH  24  25
ATOM     25  C   UNK A  0        6.011   2.430  -0.042  0.00  0.00    +0.115 C 
ATOM     26  C   UNK A  0        7.349   1.696  -0.209  0.00  0.00    +0.127 C 
ATOM     27  N   UNK A  0        7.347   1.022  -1.516  0.00  0.00    -0.326 N 
ATOM     28  H   UNK A  0        7.647   0.103  -1.596  0.00  0.00    +0.148 HD
ATOM     29  C   UNK A  0        6.910   1.718  -2.631  0.00  0.00    +0.149 A 
ATOM     30  C   UNK A  0        6.160   2.876  -2.473  0.00  0.00    +0.142 A 
ATOM     31  C   UNK A  0        5.725   3.564  -3.612  0.00  0.00    +0.276 A 
ATOM     32  N   UNK A  0        6.053   3.073  -4.827  0.00  0.00    -0.294 N 
ATOM     33  H   UNK A  0        5.761   3.533  -5.629  0.00  0.00    +0.172 HD
ATOM     34  C   UNK A  0        6.792   1.935  -4.927  0.00  0.00    +0.195 A 
ATOM     35  O   UNK A  0        5.063   4.585  -3.509  0.00  0.00    -0.266 OA
ATOM     36  N   UNK A  0        7.205   1.283  -3.861  0.00  0.00    -0.199 NA
ATOM     37  N   UNK A  0        5.848   3.348  -1.181  0.00  0.00    -0.261 N 
ATOM     38  C   UNK A  0        5.411   4.609  -0.993  0.00  0.00    +0.333 C 
ATOM     39  O   UNK A  0        5.054   4.970   0.109  0.00  0.00    -0.279 OA
BRANCH  34  40
ATOM     40  N   UNK A  0        7.115   1.455  -6.170  0.00  0.00    -0.329 N 
ATOM     41  H   UNK A  0        7.642   0.645  -6.256  0.00  0.00    +0.145 HD
ATOM     42  H   UNK A  0        6.817   1.927  -6.965  0.00  0.00    +0.145 HD
ENDBRANCH  34  40
ENDBRANCH  24  25
ENDBRANCH  22  24
ENDBRANCH   3  22
TORSDOF 12
