REMARK  Name = ZINC17364045
REMARK                            x       y       z     vdW  Elec       q    Type
REMARK                         _______ _______ _______ _____ _____    ______ ____
ROOT
ATOM      1  C   LIG    1        1.497  -2.371   2.468  0.00  0.00    +0.147 A 
ATOM      2  C   LIG    1        1.693  -3.695   2.750  0.00  0.00    +0.145 A 
ATOM      3  N   LIG    1        2.368  -3.771   3.897  0.00  0.00    -0.243 NA
ATOM      4  C   LIG    1        2.606  -2.566   4.349  0.00  0.00    +0.200 A 
ATOM      5  N   LIG    1        2.092  -1.664   3.496  0.00  0.00    -0.318 N 
ENDROOT
BRANCH   1   6
ATOM      6  C   LIG    1        0.801  -1.814   1.305  0.00  0.00    +0.357 C 
ATOM      7  O   LIG    1        0.321  -2.557   0.470  0.00  0.00    -0.243 OA
BRANCH   6   8
ATOM      8  O   LIG    1        0.693  -0.477   1.160  0.00  0.00    -0.460 OA
BRANCH   8  10
ATOM      9  C   LIG    1       -0.019   1.526   0.010  0.00  0.00    +0.048 C 
ATOM     10  C   LIG    1        0.002  -0.004   0.002  0.00  0.00    +0.229 C 
ENDBRANCH   8  10
ENDBRANCH   6   8
ENDBRANCH   1   6
BRANCH   5  11
ATOM     11  C   LIG    1        2.148  -0.206   3.631  0.00  0.00    +0.116 C 
ATOM     12  C   LIG    1        1.457   0.212   4.930  0.00  0.00    +0.036 C 
BRANCH  11  13
ATOM     13  C   LIG    1        3.587   0.241   3.661  0.00  0.00    -0.025 A 
ATOM     14  C   LIG    1        4.434  -0.224   4.649  0.00  0.00    +0.005 A 
ATOM     15  C   LIG    1        5.754   0.186   4.676  0.00  0.00    +0.000 A 
ATOM     16  C   LIG    1        6.226   1.060   3.715  0.00  0.00    +0.000 A 
ATOM     17  C   LIG    1        5.379   1.524   2.726  0.00  0.00    +0.000 A 
ATOM     18  C   LIG    1        4.060   1.111   2.696  0.00  0.00    +0.005 A 
ENDBRANCH  11  13
ENDBRANCH   5  11
TORSDOF 5
