REMARK  Name = ZINC13998530
REMARK                            x       y       z     vdW  Elec       q    Type
REMARK                         _______ _______ _______ _____ _____    ______ ____
ROOT
ATOM      1  N   LIG    1       -0.485   1.316   0.783  0.00  0.00    -0.322 N 
ATOM      2  C   LIG    1       -0.422   2.454   1.550  0.00  0.00    +0.073 A 
ATOM      3  C   LIG    1        0.281   3.652   1.479  0.00  0.00    -0.021 A 
ATOM      4  C   LIG    1        0.083   4.598   2.462  0.00  0.00    +0.114 A 
ATOM      5  N   LIG    1       -0.757   4.385   3.461  0.00  0.00    -0.261 NA
ATOM      6  C   LIG    1       -1.453   3.273   3.573  0.00  0.00    +0.140 A 
ATOM      7  C   LIG    1       -1.313   2.257   2.625  0.00  0.00    +0.108 A 
ATOM      8  N   LIG    1       -1.859   1.029   2.469  0.00  0.00    -0.224 NA
ATOM      9  C   LIG    1       -1.377   0.468   1.387  0.00  0.00    +0.167 A 
ENDROOT
BRANCH   9  10
ATOM     10  C   LIG    1       -1.740  -0.878   0.892  0.00  0.00    +0.190 A 
ATOM     11  C   LIG    1       -2.683  -1.859   1.480  0.00  0.00    +0.191 A 
ATOM     12  N   LIG    1       -2.615  -2.861   0.634  0.00  0.00    -0.033 NA
ATOM     13  O   LIG    1       -1.833  -2.592  -0.247  0.00  0.00    -0.240 OA
ATOM     14  N   LIG    1       -1.303  -1.508  -0.177  0.00  0.00    -0.044 NA
BRANCH  11  15
ATOM     15  N   LIG    1       -3.447  -1.746   2.633  0.00  0.00    -0.339 N 
ATOM     16  H   LIG    1       -3.394  -0.830   3.240  0.00  0.00    +0.144 HD
ATOM     17  H   LIG    1       -4.106  -2.571   2.939  0.00  0.00    +0.144 HD
ENDBRANCH  11  15
ENDBRANCH   9  10
BRANCH   1  19
ATOM     18  C   LIG    1        1.559   0.311  -0.108  0.00  0.00    +0.027 C 
ATOM     19  C   LIG    1        0.265   1.054  -0.448  0.00  0.00    +0.120 C 
ENDBRANCH   1  19
BRANCH   3  20
ATOM     20  C   LIG    1        1.241   3.912   0.347  0.00  0.00    -0.043 C 
BRANCH  20  21
ATOM     21  N   LIG    1        0.493   4.345  -0.841  0.00  0.00    +0.384 N 
ATOM     22  H   LIG    1        0.019   5.317  -0.641  0.00  0.00    -0.085 HD
ATOM     23  H   LIG    1       -0.282   3.601  -1.077  0.00  0.00    -0.085 HD
BRANCH  21  24
ATOM     24  C   LIG    1        1.382   4.484  -2.002  0.00  0.00    -0.069 C 
ATOM     25  C   LIG    1        2.025   5.874  -1.990  0.00  0.00    -0.001 C 
ATOM     26  C   LIG    1        2.902   6.035  -3.233  0.00  0.00    +0.079 C 
ATOM     27  N   LIG    1        2.081   5.866  -4.439  0.00  0.00    -0.316 NA
ATOM     28  H   LIG    1        1.268   6.606  -4.435  0.00  0.00    +0.122 HD
ATOM     29  C   LIG    1        1.492   4.522  -4.495  0.00  0.00    +0.079 C 
ATOM     30  C   LIG    1        0.572   4.316  -3.290  0.00  0.00    -0.001 C 
ENDBRANCH  21  24
ENDBRANCH  20  21
ENDBRANCH   3  20
TORSDOF 6
