REMARK  Name = ZINC26745026
REMARK                            x       y       z     vdW  Elec       q    Type
REMARK                         _______ _______ _______ _____ _____    ______ ____
ROOT
ATOM      1  C   LIG    1        0.002  -0.004   0.002  0.00  0.00    +0.001 A 
ATOM      2  C   LIG    1        1.308  -0.375  -0.012  0.00  0.00    +0.091 A 
ATOM      3  N   LIG    1        2.102   0.734  -0.014  0.00  0.00    -0.360 N 
ATOM      4  C   LIG    1        1.327   1.875  -0.001  0.00  0.00    +0.047 A 
ATOM      5  C   LIG    1        1.631   3.232   0.004  0.00  0.00    +0.027 A 
ATOM      6  C   LIG    1        0.616   4.164   0.020  0.00  0.00    +0.022 A 
ATOM      7  C   LIG    1       -0.713   3.762   0.030  0.00  0.00    +0.042 A 
ATOM      8 CL   LIG    1       -1.976   4.953   0.049  0.00  0.00    -0.084 Cl
ATOM      9  C   LIG    1       -1.035   2.421   0.030  0.00  0.00    +0.030 A 
ATOM     10  H   LIG    1        3.197   0.627  -0.025  0.00  0.00    +0.165 HD
ATOM     11  C   LIG    1       -0.018   1.469   0.010  0.00  0.00    +0.008 A 
ENDROOT
BRANCH   1  17
ATOM     12  N   LIG    1       -2.441  -2.728  -0.985  0.00  0.00    +0.382 N 
ATOM     13  H   LIG    1       -1.876  -3.491  -0.430  0.00  0.00    -0.081 HD
ATOM     14  C   LIG    1       -3.570  -2.283  -0.151  0.00  0.00    -0.074 C 
ATOM     15  C   LIG    1       -3.041  -1.948   1.246  0.00  0.00    +0.009 C 
ATOM     16  C   LIG    1       -1.836  -1.056   1.133  0.00  0.00    -0.026 C 
ATOM     17  C   LIG    1       -1.169  -0.902   0.008  0.00  0.00    -0.059 C 
ATOM     18  C   LIG    1       -1.542  -1.602  -1.267  0.00  0.00    -0.043 C 
BRANCH  12  20
ATOM     19  C   LIG    1       -3.642  -4.654  -1.904  0.00  0.00    -0.017 C 
ATOM     20  C   LIG    1       -2.918  -3.346  -2.229  0.00  0.00    -0.082 C 
ENDBRANCH  12  20
ENDBRANCH   1  17
TORSDOF 2
