REMARK  Name = ZINC45386336
REMARK                            x       y       z     vdW  Elec       q    Type
REMARK                         _______ _______ _______ _____ _____    ______ ____
ROOT
ATOM      1  C   LIG    1        2.512  -0.855  -5.881  0.00  0.00    -0.064 C 
ATOM      2  C   LIG    1        3.201   0.461  -5.511  0.00  0.00    +0.006 C 
ATOM      3  C   LIG    1        4.692   0.201  -5.270  0.00  0.00    +0.104 C 
ATOM      4  N   LIG    1        5.254  -0.463  -6.454  0.00  0.00    -0.329 N 
ATOM      5  C   LIG    1        4.611  -1.687  -6.950  0.00  0.00    +0.104 C 
ATOM      6  C   LIG    1        3.121  -1.406  -7.173  0.00  0.00    +0.006 C 
ENDROOT
BRANCH   4   7
ATOM      7  C   LIG    1        6.373   0.058  -7.094  0.00  0.00    +0.042 A 
ATOM      8  C   LIG    1        7.657  -0.332  -6.726  0.00  0.00    +0.043 A 
ATOM      9  C   LIG    1        8.744   0.209  -7.386  0.00  0.00    +0.115 A 
ATOM     10  N   LIG    1        8.597   1.087  -8.357  0.00  0.00    -0.237 NA
ATOM     11  C   LIG    1        7.398   1.499  -8.754  0.00  0.00    +0.140 A 
ATOM     12  N   LIG    1        6.981   2.384  -9.718  0.00  0.00    -0.346 N 
ATOM     13  H   LIG    1        7.568   2.885 -10.306  0.00  0.00    +0.167 HD
ATOM     14  C   LIG    1        5.612   2.444  -9.739  0.00  0.00    +0.085 A 
ATOM     15  C   LIG    1        5.106   1.630  -8.799  0.00  0.00    +0.031 A 
ATOM     16  C   LIG    1        6.243   0.990  -8.135  0.00  0.00    +0.040 A 
ENDBRANCH   4   7
BRANCH   1  17
ATOM     17  N   LIG    1        1.076  -0.615  -6.081  0.00  0.00    +0.382 N 
ATOM     18  H   LIG    1        0.621  -1.482  -6.325  0.00  0.00    -0.089 HD
ATOM     19  H   LIG    1        0.948   0.054  -6.826  0.00  0.00    -0.089 HD
ATOM     20  H   LIG    1        0.674  -0.252  -5.230  0.00  0.00    -0.089 HD
ENDBRANCH   1  17
BRANCH   1  21
ATOM     21  C   LIG    1        2.707  -1.868  -4.752  0.00  0.00    +0.022 C 
BRANCH  21  25
ATOM     22  C   LIG    1        0.707  -0.490  -1.238  0.00  0.00    -0.042 A 
ATOM     23  C   LIG    1        0.036  -1.284  -2.148  0.00  0.00    +0.004 A 
ATOM     24  C   LIG    1        0.683  -1.730  -3.286  0.00  0.00    +0.004 A 
ATOM     25  C   LIG    1        2.001  -1.381  -3.513  0.00  0.00    -0.049 A 
ATOM     26  C   LIG    1        2.672  -0.586  -2.603  0.00  0.00    +0.004 A 
ATOM     27  C   LIG    1        2.024  -0.137  -1.467  0.00  0.00    +0.004 A 
BRANCH  22  29
ATOM     28  C   LIG    1       -0.019   1.526   0.010  0.00  0.00    +0.015 C 
ATOM     29  C   LIG    1        0.002  -0.004   0.002  0.00  0.00    -0.013 C 
ATOM     30  C   LIG    1       -1.433  -0.534   0.013  0.00  0.00    +0.015 C 
ATOM     31  C   LIG    1        0.742  -0.511   1.242  0.00  0.00    +0.015 C 
ENDBRANCH  22  29
ENDBRANCH  21  25
ENDBRANCH   1  21
TORSDOF 5
