REMARK  Name = ZINC37858693
REMARK                            x       y       z     vdW  Elec       q    Type
REMARK                         _______ _______ _______ _____ _____    ______ ____
ROOT
ATOM      1  C   LIG    1        3.914  -0.396   0.298  0.00  0.00    +0.025 A 
ATOM      2  C   LIG    1        4.897  -0.048  -0.624  0.00  0.00    +0.012 A 
ATOM      3  C   LIG    1        6.006  -0.855  -0.806  0.00  0.00    +0.002 A 
ATOM      4  C   LIG    1        6.151  -2.017  -0.076  0.00  0.00    +0.015 A 
ATOM      5  C   LIG    1        5.175  -2.383   0.852  0.00  0.00    +0.059 A 
ATOM      6  C   LIG    1        5.307  -3.619   1.642  0.00  0.00    +0.133 A 
ATOM      7  C   LIG    1        4.331  -3.912   2.545  0.00  0.00    +0.111 A 
ATOM      8  C   LIG    1        3.223  -3.046   2.684  0.00  0.00    +0.201 A 
ATOM      9  N   LIG    1        2.283  -3.343   3.548  0.00  0.00    -0.338 N 
ATOM     10  C   LIG    1        2.434  -4.478   4.472  0.00  0.00    +0.147 C 
ATOM     11  C   LIG    1        2.132  -3.988   5.893  0.00  0.00    +0.181 C 
ATOM     12  O   LIG    1        0.865  -3.326   5.903  0.00  0.00    -0.376 OA
ATOM     13  C   LIG    1        0.810  -2.156   5.084  0.00  0.00    +0.181 C 
ATOM     14  C   LIG    1        1.046  -2.549   3.625  0.00  0.00    +0.147 C 
ATOM     15  O   LIG    1        3.111  -1.921   1.951  0.00  0.00    -0.439 OA
ATOM     16  C   LIG    1        4.051  -1.568   1.048  0.00  0.00    +0.149 A 
ENDROOT
BRANCH   1  20
ATOM     17  C   LIG    1        0.516   2.102   0.839  0.00  0.00    +0.000 A 
ATOM     18  C   LIG    1        1.786   2.650   0.867  0.00  0.00    +0.001 A 
ATOM     19  C   LIG    1        2.892   1.844   0.691  0.00  0.00    +0.008 A 
ATOM     20  C   LIG    1        2.729   0.475   0.487  0.00  0.00    -0.014 A 
ATOM     21  C   LIG    1        1.447  -0.072   0.461  0.00  0.00    +0.008 A 
ATOM     22  C   LIG    1        0.348   0.744   0.636  0.00  0.00    +0.001 A 
ENDBRANCH   1  20
BRANCH   6  23
ATOM     23  O   LIG    1        6.379  -4.432   1.488  0.00  0.00    -0.506 OA
ATOM     24  H   LIG    1        6.364  -5.215   2.056  0.00  0.00    +0.292 HD
ENDBRANCH   6  23
TORSDOF 2
