REMARK  Name = ZINC15115178
REMARK                            x       y       z     vdW  Elec       q    Type
REMARK                         _______ _______ _______ _____ _____    ______ ____
ROOT
ATOM      1  C   LIG    1       -3.697   2.755   3.023  0.00  0.00    -0.002 A 
ATOM      2  C   LIG    1       -2.374   2.525   3.338  0.00  0.00    +0.018 A 
ATOM      3  C   LIG    1       -1.521   1.932   2.416  0.00  0.00    +0.035 A 
ATOM      4  C   LIG    1       -2.015   1.578   1.171  0.00  0.00    +0.131 A 
ATOM      5  O   LIG    1       -1.194   1.016   0.244  0.00  0.00    -0.491 OA
ATOM      6  C   LIG    1        0.189   1.392   0.311  0.00  0.00    +0.241 C 
ATOM      7  C   LIG    1        0.730   1.028   1.694  0.00  0.00    +0.105 C 
ATOM      8  C   LIG    1        2.079   1.676   1.884  0.00  0.00    +0.005 A 
ATOM      9  C   LIG    1        3.320   1.316   1.405  0.00  0.00    +0.011 A 
ATOM     10  C   LIG    1        4.393   2.124   1.761  0.00  0.00    +0.046 A 
ATOM     11  C   LIG    1        4.216   3.240   2.561  0.00  0.00    +0.120 A 
ATOM     12  C   LIG    1        2.965   3.607   3.045  0.00  0.00    +0.091 A 
ATOM     13  C   LIG    1        1.883   2.803   2.692  0.00  0.00    +0.129 A 
ATOM     14  O   LIG    1        0.582   2.949   3.022  0.00  0.00    -0.483 OA
ATOM     15  C   LIG    1       -3.346   1.803   0.851  0.00  0.00    +0.091 A 
ATOM     16  C   LIG    1       -0.095   1.697   2.808  0.00  0.00    +0.218 C 
ATOM     17  C   LIG    1       -4.191   2.394   1.778  0.00  0.00    +0.124 A 
ENDROOT
BRANCH  11  18
ATOM     18  O   LIG    1        5.297   3.999   2.882  0.00  0.00    -0.507 OA
ATOM     19  H   LIG    1        5.743   3.724   3.695  0.00  0.00    +0.292 HD
ENDBRANCH  11  18
BRANCH  17  20
ATOM     20  O   LIG    1       -5.495   2.616   1.468  0.00  0.00    -0.506 OA
ATOM     21  H   LIG    1       -6.084   1.883   1.694  0.00  0.00    +0.292 HD
ENDBRANCH  17  20
BRANCH   1  22
ATOM     22  C   LIG    1       -4.609   3.400   4.035  0.00  0.00    +0.066 C 
BRANCH  22  26
ATOM     23  C   LIG    1       -7.179   4.543   3.835  0.00  0.00    +0.038 C 
ATOM     24  C   LIG    1       -5.957   5.381   3.562  0.00  0.00    -0.079 C 
ATOM     25  C   LIG    1       -6.109   6.813   3.118  0.00  0.00    +0.038 C 
ATOM     26  C   LIG    1       -4.762   4.864   3.711  0.00  0.00    -0.023 C 
ENDBRANCH  22  26
ENDBRANCH   1  22
TORSDOF 4
