REMARK  Name = ZINC66075943
REMARK                            x       y       z     vdW  Elec       q    Type
REMARK                         _______ _______ _______ _____ _____    ______ ____
ROOT
ATOM      1  C   LIG    1        3.554  -0.980   0.206  0.00  0.00    -0.018 A 
ATOM      2  C   LIG    1        4.693  -0.177   0.184  0.00  0.00    +0.009 A 
ATOM      3  C   LIG    1        5.942  -0.757   0.091  0.00  0.00    +0.005 A 
ATOM      4  C   LIG    1        6.064  -2.133   0.018  0.00  0.00    -0.043 A 
ATOM      5  C   LIG    1        4.937  -2.935   0.039  0.00  0.00    +0.005 A 
ATOM      6  C   LIG    1        3.684  -2.365   0.139  0.00  0.00    +0.009 A 
ENDROOT
BRANCH   1  10
ATOM      7  C   LIG    1       -0.300   0.792   0.495  0.00  0.00    +0.000 A 
ATOM      8  C   LIG    1        0.826   1.594   0.469  0.00  0.00    +0.001 A 
ATOM      9  C   LIG    1        2.080   1.024   0.375  0.00  0.00    +0.008 A 
ATOM     10  C   LIG    1        2.209  -0.361   0.307  0.00  0.00    -0.018 A 
ATOM     11  C   LIG    1        1.071  -1.164   0.335  0.00  0.00    +0.008 A 
ATOM     12  C   LIG    1       -0.178  -0.584   0.428  0.00  0.00    +0.001 A 
ENDBRANCH   1  10
BRANCH   4  13
ATOM     13  C   LIG    1        7.430  -2.761  -0.085  0.00  0.00    -0.020 C 
ATOM     14  C   LIG    1        8.092  -2.331  -1.396  0.00  0.00    +0.010 C 
ATOM     15  C   LIG    1        9.479  -2.968  -1.500  0.00  0.00    +0.001 C 
ATOM     16  C   LIG    1        9.343  -4.492  -1.473  0.00  0.00    +0.000 C 
ATOM     17  C   LIG    1        8.681  -4.922  -0.162  0.00  0.00    +0.001 C 
ATOM     18  C   LIG    1        7.295  -4.285  -0.058  0.00  0.00    +0.010 C 
BRANCH  13  19
ATOM     19  C   LIG    1        8.291  -2.304   1.095  0.00  0.00    -0.075 C 
BRANCH  19  20
ATOM     20  N   LIG    1        7.644  -2.697   2.354  0.00  0.00    +0.379 N 
ATOM     21  H   LIG    1        8.166  -2.320   3.131  0.00  0.00    -0.090 HD
ATOM     22  H   LIG    1        7.620  -3.703   2.421  0.00  0.00    -0.090 HD
ATOM     23  H   LIG    1        6.702  -2.336   2.375  0.00  0.00    -0.090 HD
ENDBRANCH  19  20
ENDBRANCH  13  19
ENDBRANCH   4  13
TORSDOF 4
