REMARK  Name = ZINC19435046
REMARK                            x       y       z     vdW  Elec       q    Type
REMARK                         _______ _______ _______ _____ _____    ______ ____
ROOT
ATOM      1  C   LIG    1        1.151   3.592   0.010  0.00  0.00    +0.044 C 
ENDROOT
BRANCH   1   2
ATOM      2  C   LIG    1        1.377   4.105  -1.389  0.00  0.00    +0.205 C 
ATOM      3  N   LIG    1        0.359   4.129  -2.271  0.00  0.00    -0.303 N 
ATOM      4  C   LIG    1       -1.016   3.682  -2.005  0.00  0.00    +0.108 C 
ATOM      5  C   LIG    1       -1.821   3.874  -3.308  0.00  0.00    +0.020 C 
ATOM      6  C   LIG    1       -0.717   3.880  -4.398  0.00  0.00    +0.020 C 
ATOM      7  C   LIG    1        0.440   4.603  -3.665  0.00  0.00    +0.108 C 
ATOM      8  O   LIG    1        2.476   4.496  -1.721  0.00  0.00    -0.277 OA
ENDBRANCH   1   2
BRANCH   1  12
ATOM      9  C   LIG    1        1.208  -0.679  -0.014  0.00  0.00    +0.000 A 
ATOM     10  C   LIG    1        0.002  -0.004   0.002  0.00  0.00    +0.000 A 
ATOM     11  C   LIG    1       -0.017   1.378   0.010  0.00  0.00    +0.002 A 
ATOM     12  C   LIG    1        1.171   2.086   0.002  0.00  0.00    -0.053 A 
ATOM     13  C   LIG    1        2.377   1.411  -0.014  0.00  0.00    +0.002 A 
ATOM     14  C   LIG    1        2.396   0.029  -0.021  0.00  0.00    +0.000 A 
ENDBRANCH   1  12
BRANCH   1  15
ATOM     15  N   LIG    1        2.213   4.092   0.893  0.00  0.00    +0.388 N 
ATOM     16  H   LIG    1        2.047   3.718   1.914  0.00  0.00    -0.088 HD
ATOM     17  H   LIG    1        3.189   3.740   0.527  0.00  0.00    -0.088 HD
ATOM     18  H   LIG    1        2.198   5.192   0.898  0.00  0.00    -0.088 HD
ENDBRANCH   1  15
TORSDOF 3
