REMARK  Name = ZINC26579568
REMARK                            x       y       z     vdW  Elec       q    Type
REMARK                         _______ _______ _______ _____ _____    ______ ____
ROOT
ATOM      1  C   LIG    1       -2.526  -2.338  -1.387  0.00  0.00    +0.051 C 
ATOM      2  C   LIG    1       -3.370  -3.053  -0.328  0.00  0.00    -0.000 C 
ATOM      3  C   LIG    1       -4.708  -3.468  -0.945  0.00  0.00    -0.077 C 
ATOM      4  N   LIG    1       -4.469  -4.373  -2.076  0.00  0.00    +0.380 N 
ATOM      5  H   LIG    1       -3.937  -5.170  -1.761  0.00  0.00    -0.082 HD
ATOM      6  C   LIG    1       -3.722  -3.671  -3.126  0.00  0.00    -0.077 C 
ATOM      7  C   LIG    1       -2.347  -3.264  -2.593  0.00  0.00    -0.000 C 
ENDROOT
BRANCH   1   8
ATOM      8  N   LIG    1       -1.212  -2.004  -0.823  0.00  0.00    -0.305 NA
ATOM      9  H   LIG    1       -0.500  -2.009  -1.538  0.00  0.00    +0.123 HD
BRANCH   8  10
ATOM     10  CA  LIG    1       -1.250  -0.711  -0.127  0.00  0.00    +0.110 C 
BRANCH  10  17
ATOM     11  C   LIG    1       -1.824   1.560  -1.006  0.00  0.00    +0.008 A 
ATOM     12  C   LIG    1       -1.667   2.583  -1.923  0.00  0.00    +0.038 A 
ATOM     13  C   LIG    1       -0.762   2.448  -2.961  0.00  0.00    +0.123 A 
ATOM     14  F   LIG    1       -0.608   3.447  -3.858  0.00  0.00    -0.205 F 
ATOM     15  C   LIG    1       -0.015   1.289  -3.081  0.00  0.00    +0.038 A 
ATOM     16  C   LIG    1       -0.173   0.267  -2.163  0.00  0.00    +0.008 A 
ATOM     17  C   LIG    1       -1.078   0.403  -1.127  0.00  0.00    -0.028 A 
ENDBRANCH  10  17
BRANCH  10  18
ATOM     18  C   LIG    1       -0.119  -0.652   0.902  0.00  0.00    +0.179 C 
BRANCH  18  19
ATOM     19  O   LIG    1        1.141  -0.700   0.229  0.00  0.00    -0.393 OA
ATOM     20  H   LIG    1        1.905  -0.666   0.821  0.00  0.00    +0.209 HD
ENDBRANCH  18  19
ENDBRANCH  10  18
ENDBRANCH   8  10
ENDBRANCH   1   8
BRANCH   4  21
ATOM     21  C   LIG    1       -5.757  -4.830  -2.615  0.00  0.00    -0.079 C 
BRANCH  21  22
ATOM     22  C   LIG    1       -5.511  -5.868  -3.712  0.00  0.00    -0.014 C 
BRANCH  22  23
ATOM     23  C   LIG    1       -6.852  -6.344  -4.274  0.00  0.00    +0.035 C 
BRANCH  23  24
ATOM     24  C   LIG    1       -6.610  -7.366  -5.355  0.00  0.00    -0.022 A 
ATOM     25  C   LIG    1       -6.538  -7.132  -6.674  0.00  0.00    +0.087 A 
ATOM     26  N   LIG    1       -6.307  -8.302  -7.345  0.00  0.00    -0.360 N 
ATOM     27  C   LIG    1       -6.221  -9.345  -6.449  0.00  0.00    +0.047 A 
ATOM     28  C   LIG    1       -6.003 -10.712  -6.593  0.00  0.00    +0.028 A 
ATOM     29  C   LIG    1       -5.953 -11.522  -5.481  0.00  0.00    +0.028 A 
ATOM     30  C   LIG    1       -6.135 -10.989  -4.206  0.00  0.00    +0.050 A 
ATOM     31  C   LIG    1       -6.358  -9.635  -4.043  0.00  0.00    +0.036 A 
ATOM     32  H   LIG    1       -6.216  -8.384  -8.307  0.00  0.00    +0.165 HD
ATOM     33  C   LIG    1       -6.401  -8.804  -5.163  0.00  0.00    +0.005 A 
BRANCH  30  34
ATOM     34  N   LIG    1       -6.090 -11.831  -3.083  0.00  0.00    -0.288 N 
ATOM     35  C   LIG    1       -6.253 -11.471  -1.779  0.00  0.00    +0.229 A 
ATOM     36  N   LIG    1       -6.137 -12.556  -1.062  0.00  0.00    -0.138 NA
ATOM     37  N   LIG    1       -5.914 -13.564  -1.827  0.00  0.00    -0.138 NA
ATOM     38  C   LIG    1       -5.882 -13.178  -3.073  0.00  0.00    +0.229 A 
ENDBRANCH  30  34
ENDBRANCH  23  24
ENDBRANCH  22  23
ENDBRANCH  21  22
ENDBRANCH   4  21
TORSDOF 10
