REMARK  Name = ZINC15924305
REMARK                            x       y       z     vdW  Elec       q    Type
REMARK                         _______ _______ _______ _____ _____    ______ ____
ROOT
ATOM      1  C   LIG    1        4.804   1.544   1.206  0.00  0.00    +0.392 C 
ATOM      2  N   LIG    1        4.942   0.345   1.717  0.00  0.00    -0.129 NA
ATOM      3  H   LIG    1        5.817  -0.072   1.745  0.00  0.00    +0.306 HD
ENDROOT
BRANCH   1   4
ATOM      4  N   LIG    1        5.840   2.131   0.576  0.00  0.00    -0.189 N 
ATOM      5  H   LIG    1        5.778   3.059   0.300  0.00  0.00    +0.271 HD
ATOM      6  C   LIG    1        6.940   1.444   0.333  0.00  0.00    +0.350 C 
BRANCH   6   7
ATOM      7  N   LIG    1        8.094   2.096   0.000  0.00  0.00    -0.291 N 
ATOM      8  H   LIG    1        8.903   1.591  -0.178  0.00  0.00    +0.255 HD
ATOM      9  H   LIG    1        8.105   3.065  -0.058  0.00  0.00    +0.255 HD
ENDBRANCH   6   7
BRANCH   6  10
ATOM     10  N   LIG    1        6.926   0.080   0.415  0.00  0.00    -0.291 N 
ATOM     11  H   LIG    1        7.741  -0.402   0.625  0.00  0.00    +0.255 HD
ATOM     12  H   LIG    1        6.100  -0.406   0.263  0.00  0.00    +0.255 HD
ENDBRANCH   6  10
ENDBRANCH   1   4
BRANCH   1  13
ATOM     13  N   LIG    1        3.596   2.206   1.314  0.00  0.00    -0.243 N 
ATOM     14  H   LIG    1        3.469   3.060   0.872  0.00  0.00    +0.265 HD
BRANCH  13  17
ATOM     15  C   LIG    1        1.807   0.365   3.947  0.00  0.00    +0.005 A 
ATOM     16  C   LIG    1        2.837   0.918   3.210  0.00  0.00    +0.042 A 
ATOM     17  C   LIG    1        2.555   1.645   2.061  0.00  0.00    +0.101 A 
ATOM     18  C   LIG    1        1.238   1.813   1.655  0.00  0.00    +0.062 A 
ATOM     19  C   LIG    1        0.211   1.258   2.396  0.00  0.00    +0.044 A 
ATOM     20 CL   LIG    1       -1.436   1.468   1.890  0.00  0.00    -0.083 Cl
ATOM     21  C   LIG    1        0.496   0.534   3.541  0.00  0.00    +0.020 A 
ENDBRANCH  13  17
ENDBRANCH   1  13
TORSDOF 5
