REMARK  Name = ZINC34867398
REMARK                            x       y       z     vdW  Elec       q    Type
REMARK                         _______ _______ _______ _____ _____    ______ ____
ROOT
ATOM      1  C   LIG    1        6.505  -0.341  -0.461  0.00  0.00    +0.095 A 
ATOM      2  C   LIG    1        7.694   0.248  -0.843  0.00  0.00    +0.098 A 
ATOM      3  C   LIG    1        8.853  -0.480  -0.476  0.00  0.00    +0.126 A 
ATOM      4  S   LIG    1        8.230  -1.823   0.312  0.00  0.00    +0.005 S 
ATOM      5  N   LIG    1       10.134  -0.170  -0.703  0.00  0.00    -0.154 NA
ATOM      6  N   LIG    1        6.592  -1.507   0.205  0.00  0.00    -0.318 N 
ATOM      7  H   LIG    1        5.863  -2.048   0.547  0.00  0.00    +0.175 HD
ENDROOT
BRANCH   2   8
ATOM      8  C   LIG    1        7.752   1.520  -1.569  0.00  0.00    +0.246 C 
ATOM      9  N   LIG    1        8.945   2.044  -1.915  0.00  0.00    -0.325 N 
ATOM     10  H   LIG    1        8.983   2.886  -2.395  0.00  0.00    +0.145 HD
ATOM     11  H   LIG    1        9.764   1.579  -1.683  0.00  0.00    +0.145 HD
ATOM     12  O   LIG    1        6.724   2.102  -1.859  0.00  0.00    -0.270 OA
ENDBRANCH   2   8
BRANCH   5  13
ATOM     13  C   LIG    1       11.102  -0.984  -0.279  0.00  0.00    +0.322 C 
ATOM     14  N   LIG    1       12.393  -0.673  -0.508  0.00  0.00    -0.312 N 
ATOM     15  H   LIG    1       13.097  -1.265  -0.200  0.00  0.00    +0.147 HD
ATOM     16  H   LIG    1       12.618   0.144  -0.981  0.00  0.00    +0.147 HD
ATOM     17  O   LIG    1       10.819  -2.011   0.315  0.00  0.00    -0.251 OA
ENDBRANCH   5  13
BRANCH   1  18
ATOM     18  S   LIG    1        4.949   0.403  -0.821  0.00  0.00    -0.098 S 
BRANCH  18  28
ATOM     19  C   LIG    1       -0.106   1.063  -0.271  0.00  0.00    +0.000 A 
ATOM     20  C   LIG    1        1.049   1.796  -0.068  0.00  0.00    +0.000 A 
ATOM     21  C   LIG    1        2.273   1.161  -0.078  0.00  0.00    +0.005 A 
ATOM     22  C   LIG    1        2.358  -0.210  -0.298  0.00  0.00    -0.031 A 
ATOM     23  C   LIG    1        1.212  -0.933  -0.518  0.00  0.00    -0.043 A 
ATOM     24  C   LIG    1        1.225  -2.408  -0.821  0.00  0.00    +0.035 C 
ATOM     25  C   LIG    1        2.058  -3.171   0.213  0.00  0.00    +0.005 C 
ATOM     26  C   LIG    1        3.479  -3.294  -0.331  0.00  0.00    +0.002 C 
ATOM     27  C   LIG    1        3.820  -2.056  -1.163  0.00  0.00    +0.019 C 
ATOM     28  C   LIG    1        3.736  -0.825  -0.263  0.00  0.00    +0.083 C 
ATOM     29  C   LIG    1       -0.023  -0.295  -0.493  0.00  0.00    +0.004 A 
ENDBRANCH  18  28
ENDBRANCH   1  18
TORSDOF 4
