REMARK  Name = ZINC27645447
REMARK                            x       y       z     vdW  Elec       q    Type
REMARK                         _______ _______ _______ _____ _____    ______ ____
ROOT
ATOM      1  C   LIG    1        6.899  -1.710  -5.479  0.00  0.00    +0.053 C 
ENDROOT
BRANCH   1   3
ATOM      2  C   LIG    1        8.311  -3.140  -6.865  0.00  0.00    -0.027 C 
ATOM      3  C   LIG    1        7.631  -2.026  -6.758  0.00  0.00    -0.027 C 
BRANCH   2   4
ATOM      4  C   LIG    1        8.230  -4.180  -5.778  0.00  0.00    +0.053 C 
BRANCH   4   6
ATOM      5  C   LIG    1        8.585  -6.567  -6.149  0.00  0.00    -0.027 C 
ATOM      6  C   LIG    1        7.850  -5.508  -6.380  0.00  0.00    -0.027 C 
BRANCH   5   7
ATOM      7  C   LIG    1        9.705  -6.502  -5.143  0.00  0.00    +0.053 C 
BRANCH   7   9
ATOM      8  C   LIG    1       10.538  -8.439  -3.913  0.00  0.00    -0.031 C 
ATOM      9  C   LIG    1        9.546  -7.614  -4.139  0.00  0.00    -0.027 C 
BRANCH   8  10
ATOM     10  C   LIG    1       11.889  -8.180  -4.529  0.00  0.00    +0.027 C 
BRANCH  10  11
ATOM     11  C   LIG    1       12.961  -8.207  -3.438  0.00  0.00    +0.004 C 
BRANCH  11  12
ATOM     12  C   LIG    1       14.332  -7.945  -4.064  0.00  0.00    +0.000 C 
BRANCH  12  14
ATOM     13  C   LIG    1       16.776  -7.709  -3.598  0.00  0.00    +0.004 C 
ATOM     14  C   LIG    1       15.404  -7.972  -2.972  0.00  0.00    -0.003 C 
ENDBRANCH  12  14
ENDBRANCH  11  12
ENDBRANCH  10  11
ENDBRANCH   8  10
ENDBRANCH   7   9
ENDBRANCH   5   7
ENDBRANCH   4   6
ENDBRANCH   2   4
ENDBRANCH   1   3
BRANCH   1  15
ATOM     15  C   LIG    1        7.293  -0.337  -5.001  0.00  0.00    -0.027 C 
ATOM     16  C   LIG    1        6.371   0.557  -4.744  0.00  0.00    -0.031 C 
BRANCH  16  17
ATOM     17  C   LIG    1        4.916   0.167  -4.768  0.00  0.00    +0.027 C 
BRANCH  17  18
ATOM     18  C   LIG    1        4.251   0.597  -3.459  0.00  0.00    +0.006 C 
BRANCH  18  19
ATOM     19  C   LIG    1        2.773   0.201  -3.484  0.00  0.00    +0.020 C 
BRANCH  19  20
ATOM     20  C   LIG    1        2.108   0.630  -2.175  0.00  0.00    +0.117 C 
BRANCH  20  21
ATOM     21  N   LIG    1        0.693   0.251  -2.198  0.00  0.00    -0.235 N 
ATOM     22  C   LIG    1       -0.309   1.021  -2.659  0.00  0.00    +0.246 C 
ATOM     23  C   LIG    1       -1.578   0.276  -2.508  0.00  0.00    +0.073 C 
ATOM     24  C   LIG    1       -1.269  -0.911  -1.961  0.00  0.00    +0.073 C 
ATOM     25  O   LIG    1       -0.191   2.138  -3.121  0.00  0.00    -0.270 OA
ATOM     26  C   LIG    1        0.197  -0.921  -1.763  0.00  0.00    +0.246 C 
ATOM     27  O   LIG    1        0.843  -1.834  -1.289  0.00  0.00    -0.270 OA
ENDBRANCH  20  21
ENDBRANCH  19  20
ENDBRANCH  18  19
ENDBRANCH  17  18
ENDBRANCH  16  17
ENDBRANCH   1  15
TORSDOF 15
