REMARK  Name = ZINC22010579
REMARK                            x       y       z     vdW  Elec       q    Type
REMARK                         _______ _______ _______ _____ _____    ______ ____
ROOT
ATOM      1  N   LIG    1       -3.959  -1.684  -6.228  0.00  0.00    -0.300 NA
ATOM      2  C   LIG    1       -5.050  -1.318  -5.313  0.00  0.00    +0.066 C 
ATOM      3  C   LIG    1       -6.393  -1.662  -5.962  0.00  0.00    -0.062 C 
ATOM      4  N   LIG    1       -6.526  -0.930  -7.228  0.00  0.00    +0.389 N 
ATOM      5  H   LIG    1       -6.472   0.062  -7.050  0.00  0.00    -0.080 HD
ATOM      6  C   LIG    1       -5.444  -1.323  -8.140  0.00  0.00    -0.056 C 
ATOM      7  C   LIG    1       -5.595  -0.573  -9.465  0.00  0.00    -0.012 C 
ATOM      8  C   LIG    1       -4.094  -0.977  -7.509  0.00  0.00    +0.069 C 
ENDROOT
BRANCH   1  13
ATOM      9  C   LIG    1        0.881  -3.013  -4.247  0.00  0.00    +0.250 C 
ATOM     10  N   LIG    1       -0.127  -2.187  -4.593  0.00  0.00    -0.297 N 
ATOM     11  C   LIG    1       -1.194  -1.868  -3.636  0.00  0.00    +0.110 C 
ATOM     12  C   LIG    1       -2.547  -2.172  -4.287  0.00  0.00    +0.041 C 
ATOM     13  C   LIG    1       -2.650  -1.421  -5.616  0.00  0.00    +0.022 C 
ATOM     14  C   LIG    1       -2.496   0.081  -5.366  0.00  0.00    +0.028 C 
ATOM     15  C   LIG    1       -1.542  -1.896  -6.559  0.00  0.00    +0.041 C 
ATOM     16  C   LIG    1       -0.175  -1.585  -5.932  0.00  0.00    +0.110 C 
ATOM     17  O   LIG    1        1.761  -3.266  -5.047  0.00  0.00    -0.270 OA
BRANCH   9  20
ATOM     18  C   LIG    1        2.246  -1.638  -2.056  0.00  0.00    +0.066 C 
ATOM     19  C   LIG    1        1.565  -2.965  -1.839  0.00  0.00    +0.054 A 
ATOM     20  C   LIG    1        0.916  -3.612  -2.896  0.00  0.00    +0.079 A 
ATOM     21  C   LIG    1        0.300  -4.842  -2.638  0.00  0.00    +0.054 A 
ATOM     22  C   LIG    1       -0.415  -5.586  -3.737  0.00  0.00    +0.066 C 
ATOM     23  N   LIG    1        0.355  -5.340  -1.416  0.00  0.00    -0.240 NA
ATOM     24  C   LIG    1        0.978  -4.696  -0.448  0.00  0.00    +0.221 A 
ATOM     25  N   LIG    1        1.575  -3.538  -0.648  0.00  0.00    -0.240 NA
ENDBRANCH   9  20
ENDBRANCH   1  13
BRANCH   4  26
ATOM     26  C   LIG    1       -7.823  -1.246  -7.842  0.00  0.00    -0.011 C 
BRANCH  26  27
ATOM     27  C   LIG    1       -8.070  -0.316  -9.002  0.00  0.00    -0.059 A 
ATOM     28  C   LIG    1       -7.848   1.041  -8.859  0.00  0.00    +0.002 A 
ATOM     29  C   LIG    1       -8.074   1.894  -9.922  0.00  0.00    +0.012 A 
ATOM     30  C   LIG    1       -8.523   1.391 -11.129  0.00  0.00    +0.055 A 
ATOM     31  C   LIG    1       -8.745   0.034 -11.272  0.00  0.00    +0.012 A 
ATOM     32  C   LIG    1       -8.514  -0.820 -10.210  0.00  0.00    +0.002 A 
BRANCH  30  33
ATOM     33  C   LIG    1       -8.771   2.321 -12.288  0.00  0.00    +0.417 C 
ATOM     34  F   LIG    1       -9.152   3.578 -11.804  0.00  0.00    -0.166 F 
ATOM     35  F   LIG    1       -9.791   1.802 -13.092  0.00  0.00    -0.166 F 
ATOM     36  F   LIG    1       -7.601   2.448 -13.043  0.00  0.00    -0.166 F 
ENDBRANCH  30  33
ENDBRANCH  26  27
BRANCH  26  37
ATOM     37  C   LIG    1       -8.934  -1.075  -6.805  0.00  0.00    +0.149 C 
BRANCH  37  38
ATOM     38  O   LIG    1       -9.021   0.300  -6.424  0.00  0.00    -0.384 OA
ATOM     39  C   LIG    1      -10.034   0.571  -5.453  0.00  0.00    +0.193 C 
ENDBRANCH  37  38
ENDBRANCH  26  37
ENDBRANCH   4  26
TORSDOF 7
