REMARK  Name = ZINC26840105
REMARK                            x       y       z     vdW  Elec       q    Type
REMARK                         _______ _______ _______ _____ _____    ______ ____
ROOT
ATOM      1  C   LIG    1       -4.784   3.982   0.067  0.00  0.00    +0.122 A 
ATOM      2  C   LIG    1       -4.775   5.380   0.074  0.00  0.00    +0.046 A 
ATOM      3  C   LIG    1       -3.587   6.053   0.067  0.00  0.00    +0.031 A 
ATOM      4  C   LIG    1       -2.392   5.309   0.052  0.00  0.00    +0.068 A 
ATOM      5  C   LIG    1       -2.474   3.900   0.046  0.00  0.00    +0.097 A 
ATOM      6  C   LIG    1       -1.227   3.128   0.031  0.00  0.00    +0.015 A 
ATOM      7  C   LIG    1       -1.211   1.735   0.017  0.00  0.00    +0.011 A 
ATOM      8  C   LIG    1       -0.013   1.076   0.008  0.00  0.00    +0.001 A 
ATOM      9  C   LIG    1        1.186   1.778   0.000  0.00  0.00    +0.001 A 
ATOM     10  C   LIG    1        1.201   3.144   0.007  0.00  0.00    +0.014 A 
ATOM     11  C   LIG    1       -0.008   3.845   0.023  0.00  0.00    +0.049 A 
ATOM     12  C   LIG    1       -0.057   5.306   0.031  0.00  0.00    +0.257 A 
ATOM     13  O   LIG    1        1.097   6.016   0.024  0.00  0.00    -0.267 OA
ATOM     14  N   LIG    1       -1.204   5.937   0.044  0.00  0.00    -0.320 N 
ATOM     15  H   LIG    1       -1.164   7.036   0.050  0.00  0.00    +0.169 HD
ATOM     16  N   LIG    1       -3.658   3.293   0.054  0.00  0.00    -0.230 NA
ENDROOT
BRANCH   1  21
ATOM     17  C   LIG    1       -9.252   0.837   1.151  0.00  0.00    +0.105 C 
ATOM     18  N   LIG    1       -7.968   1.552   1.143  0.00  0.00    -0.302 NA
ATOM     19  C   LIG    1       -7.147   1.146  -0.006  0.00  0.00    +0.103 C 
ATOM     20  C   LIG    1       -5.791   1.851   0.066  0.00  0.00    +0.122 C 
ATOM     21  N   LIG    1       -5.997   3.306   0.075  0.00  0.00    -0.313 N 
ATOM     22  C   LIG    1       -6.819   3.712   1.224  0.00  0.00    +0.122 C 
ATOM     23  C   LIG    1       -8.175   3.006   1.152  0.00  0.00    +0.103 C 
ENDBRANCH   1  21
TORSDOF 1
