REMARK  Name = ZINC31866879
REMARK                            x       y       z     vdW  Elec       q    Type
REMARK                         _______ _______ _______ _____ _____    ______ ____
ROOT
ATOM      1  C   LIG    1        0.002  -0.004   0.002  0.00  0.00    +0.123 A 
ATOM      2  C   LIG    1       -0.017   1.388   0.010  0.00  0.00    +0.046 A 
ATOM      3  C   LIG    1        1.155   2.091   0.002  0.00  0.00    +0.017 A 
ATOM      4  C   LIG    1        2.375   1.410  -0.013  0.00  0.00    +0.048 A 
ATOM      5  C   LIG    1        2.406   0.004  -0.021  0.00  0.00    +0.048 A 
ATOM      6  N   LIG    1        3.728  -0.435  -0.037  0.00  0.00    -0.278 N 
ATOM      7  H   LIG    1        3.950  -1.512  -0.045  0.00  0.00    +0.155 HD
ATOM      8  C   LIG    1        4.587   0.599  -0.040  0.00  0.00    +0.289 C 
ATOM      9  O   LIG    1        5.798   0.526  -0.052  0.00  0.00    -0.266 OA
ATOM     10  C   LIG    1        3.776   1.861  -0.025  0.00  0.00    +0.249 C 
ATOM     11  O   LIG    1        4.186   3.004  -0.023  0.00  0.00    -0.282 OA
ATOM     12  C   LIG    1        1.208  -0.694  -0.013  0.00  0.00    +0.069 A 
ENDROOT
BRANCH   1  13
ATOM     13  O   LIG    1       -1.167  -0.693   0.010  0.00  0.00    -0.487 OA
BRANCH  13  14
ATOM     14  C   LIG    1       -2.372   0.075   0.026  0.00  0.00    +0.264 C 
BRANCH  14  18
ATOM     15  C   LIG    1       -5.736  -2.557   0.045  0.00  0.00    +0.000 A 
ATOM     16  C   LIG    1       -5.180  -2.137   1.239  0.00  0.00    +0.000 A 
ATOM     17  C   LIG    1       -4.091  -1.286   1.233  0.00  0.00    +0.007 A 
ATOM     18  C   LIG    1       -3.559  -0.853   0.033  0.00  0.00    -0.010 A 
ATOM     19  C   LIG    1       -4.118  -1.268  -1.161  0.00  0.00    +0.007 A 
ATOM     20  C   LIG    1       -5.204  -2.124  -1.155  0.00  0.00    +0.000 A 
ENDBRANCH  14  18
ENDBRANCH  13  14
ENDBRANCH   1  13
TORSDOF 3
