REMARK  Name = ZINC45285591
REMARK                            x       y       z     vdW  Elec       q    Type
REMARK                         _______ _______ _______ _____ _____    ______ ____
ROOT
ATOM      1  C   LIG    1       -5.030  -3.957   0.524  0.00  0.00    +0.001 C 
ENDROOT
BRANCH   1   2
ATOM      2  C   LIG    1       -3.708  -4.589   0.963  0.00  0.00    +0.008 C 
BRANCH   2   8
ATOM      3  C   LIG    1        0.876  -5.691   0.203  0.00  0.00    +0.124 A 
ATOM      4  C   LIG    1        1.123  -5.598   1.562  0.00  0.00    +0.046 A 
ATOM      5  C   LIG    1        0.167  -5.050   2.396  0.00  0.00    +0.004 A 
ATOM      6  C   LIG    1       -1.025  -4.597   1.868  0.00  0.00    +0.004 A 
ATOM      7  C   LIG    1       -1.276  -4.688   0.505  0.00  0.00    -0.038 A 
ATOM      8  C   LIG    1       -2.596  -4.167  -0.000  0.00  0.00    +0.019 C 
ATOM      9  C   LIG    1       -2.891  -4.707  -1.395  0.00  0.00    +0.008 C 
ATOM     10  C   LIG    1       -1.667  -4.460  -2.285  0.00  0.00    +0.005 C 
ATOM     11  C   LIG    1       -0.536  -5.371  -1.814  0.00  0.00    +0.039 C 
ATOM     12  C   LIG    1       -0.327  -5.232  -0.329  0.00  0.00    -0.002 A 
BRANCH   3  14
ATOM     13  C   LIG    1        3.028  -6.680  -0.010  0.00  0.00    +0.277 C 
ATOM     14  O   LIG    1        1.817  -6.228  -0.618  0.00  0.00    -0.495 OA
ENDBRANCH   3  14
ENDBRANCH   2   8
ENDBRANCH   1   2
BRANCH   1  15
ATOM     15  C   LIG    1       -6.114  -4.273   1.556  0.00  0.00    +0.003 C 
BRANCH  15  16
ATOM     16  C   LIG    1       -7.437  -3.641   1.117  0.00  0.00    -0.014 C 
ATOM     17  C   LIG    1       -7.306  -2.115   1.136  0.00  0.00    -0.015 C 
ATOM     18  C   LIG    1       -8.654  -1.489   0.773  0.00  0.00    -0.078 C 
ATOM     19  N   LIG    1       -9.669  -1.906   1.747  0.00  0.00    +0.382 N 
ATOM     20  H   LIG    1       -9.371  -1.645   2.675  0.00  0.00    -0.081 HD
ATOM     21  C   LIG    1       -9.852  -3.362   1.685  0.00  0.00    -0.078 C 
ATOM     22  C   LIG    1       -8.549  -4.060   2.083  0.00  0.00    -0.015 C 
BRANCH  19  23
ATOM     23  C   LIG    1      -10.943  -1.242   1.440  0.00  0.00    -0.069 C 
ATOM     24  C   LIG    1      -10.757   0.275   1.514  0.00  0.00    -0.015 C 
ATOM     25  C   LIG    1      -12.083   0.968   1.195  0.00  0.00    -0.002 C 
ATOM     26  C   LIG    1      -13.143   0.534   2.210  0.00  0.00    -0.000 C 
ATOM     27  C   LIG    1      -13.329  -0.983   2.136  0.00  0.00    -0.002 C 
ATOM     28  C   LIG    1      -12.002  -1.675   2.455  0.00  0.00    -0.015 C 
ENDBRANCH  19  23
ENDBRANCH  15  16
ENDBRANCH   1  15
TORSDOF 6
