REMARK  Name = ZINC16957895
REMARK                            x       y       z     vdW  Elec       q    Type
REMARK                         _______ _______ _______ _____ _____    ______ ____
ROOT
ATOM      1  C   LIG    1       -3.312   0.563   1.484  0.00  0.00    +0.193 C 
ATOM      2  C   LIG    1       -4.161   0.617   0.394  0.00  0.00    +0.106 C 
ENDROOT
BRANCH   2   3
ATOM      3  C   LIG    1       -5.496   1.230   0.529  0.00  0.00    +0.143 A 
ATOM      4  C   LIG    1       -6.696   0.375   0.603  0.00  0.00    +0.276 A 
ATOM      5  O   LIG    1       -6.594  -0.837   0.553  0.00  0.00    -0.266 OA
ATOM      6  N   LIG    1       -7.909   0.956   0.728  0.00  0.00    -0.319 N 
ATOM      7  H   LIG    1       -8.712   0.413   0.778  0.00  0.00    +0.169 HD
ATOM      8  C   LIG    1       -7.992   2.334   0.781  0.00  0.00    +0.068 A 
ATOM      9  C   LIG    1       -9.229   2.957   0.909  0.00  0.00    +0.028 A 
ATOM     10  C   LIG    1       -9.303   4.332   0.962  0.00  0.00    +0.002 A 
ATOM     11  C   LIG    1       -8.151   5.104   0.889  0.00  0.00    +0.002 A 
ATOM     12  C   LIG    1       -6.927   4.516   0.763  0.00  0.00    +0.030 A 
ATOM     13  C   LIG    1       -6.823   3.116   0.707  0.00  0.00    +0.088 A 
ATOM     14  N   LIG    1       -5.616   2.537   0.588  0.00  0.00    -0.240 NA
ENDBRANCH   2   3
BRANCH   1  17
ATOM     15  N   LIG    1       -1.072   0.099   2.360  0.00  0.00    -0.278 N 
ATOM     16  H   LIG    1       -1.385   0.372   3.236  0.00  0.00    +0.155 HD
ATOM     17  C   LIG    1       -1.925   0.074   1.317  0.00  0.00    +0.284 C 
ATOM     18  O   LIG    1       -1.555  -0.350   0.240  0.00  0.00    -0.266 OA
BRANCH  15  24
ATOM     19  C   LIG    1        1.078   0.464   1.324  0.00  0.00    -0.026 A 
ATOM     20  C   LIG    1        2.399   0.102   1.151  0.00  0.00    +0.005 A 
ATOM     21  C   LIG    1        2.911  -0.992   1.825  0.00  0.00    +0.001 A 
ATOM     22  C   LIG    1        2.103  -1.726   2.674  0.00  0.00    +0.006 A 
ATOM     23  C   LIG    1        0.781  -1.369   2.850  0.00  0.00    -0.023 A 
ATOM     24  C   LIG    1        0.264  -0.268   2.179  0.00  0.00    +0.040 A 
BRANCH  23  25
ATOM     25  C   LIG    1       -0.100  -2.170   3.775  0.00  0.00    +0.015 C 
ATOM     26  C   LIG    1        0.484  -2.139   5.189  0.00  0.00    +0.012 C 
ATOM     27  C   LIG    1       -0.170  -3.618   3.285  0.00  0.00    +0.012 C 
ENDBRANCH  23  25
BRANCH  19  29
ATOM     28  C   LIG    1        0.689   2.910   1.450  0.00  0.00    +0.009 C 
ATOM     29  C   LIG    1        0.520   1.657   0.589  0.00  0.00    +0.033 C 
ENDBRANCH  19  29
ENDBRANCH  15  24
ENDBRANCH   1  17
BRANCH   2  30
ATOM     30  C   LIG    1       -3.734   0.064  -0.899  0.00  0.00    +0.275 C 
ATOM     31  O   LIG    1       -3.570  -1.132  -1.023  0.00  0.00    -0.279 OA
BRANCH  30  32
ATOM     32  C   LIG    1       -3.502   0.973  -2.059  0.00  0.00    +0.380 C 
ATOM     33  O   LIG    1       -3.575   2.175  -1.911  0.00  0.00    -0.241 OA
BRANCH  32  34
ATOM     34  O   LIG    1       -3.213   0.460  -3.268  0.00  0.00    -0.462 OA
ATOM     35  C   LIG    1       -3.003   1.389  -4.334  0.00  0.00    +0.280 C 
ENDBRANCH  32  34
ENDBRANCH  30  32
ENDBRANCH   2  30
BRANCH   1  36
ATOM     36  O   LIG    1       -3.747   0.956   2.699  0.00  0.00    -0.502 OA
ATOM     37  H   LIG    1       -3.172   0.919   3.438  0.00  0.00    +0.292 HD
ENDBRANCH   1  36
TORSDOF 9
