REMARK  Name = ZINC49590055
REMARK                            x       y       z     vdW  Elec       q    Type
REMARK                         _______ _______ _______ _____ _____    ______ ____
ROOT
ATOM      1  C   LIG    1        2.055  -4.465  -3.796  0.00  0.00    +0.161 C 
ENDROOT
BRANCH   1   2
ATOM      2  N   LIG    1        1.530  -4.242  -2.442  0.00  0.00    +0.396 N 
ATOM      3  H   LIG    1        0.568  -4.546  -2.400  0.00  0.00    -0.084 HD
ATOM      4  H   LIG    1        2.078  -4.769  -1.778  0.00  0.00    -0.084 HD
BRANCH   2   5
ATOM      5  C   LIG    1        1.607  -2.812  -2.115  0.00  0.00    -0.081 C 
BRANCH   5   6
ATOM      6  C   LIG    1        0.935  -2.561  -0.764  0.00  0.00    -0.019 C 
BRANCH   6   7
ATOM      7  C   LIG    1        1.015  -1.071  -0.423  0.00  0.00    -0.002 C 
BRANCH   7   9
ATOM      8  C   LIG    1        0.423   0.670   1.268  0.00  0.00    +0.004 C 
ATOM      9  C   LIG    1        0.343  -0.820   0.928  0.00  0.00    -0.003 C 
ENDBRANCH   7   9
ENDBRANCH   6   7
ENDBRANCH   5   6
ENDBRANCH   2   5
ENDBRANCH   1   2
BRANCH   1  10
ATOM     10  P   LIG    1        1.793  -6.205  -4.271  0.00  0.00    +0.326 P 
ATOM     11  O   LIG    1        2.530  -7.127  -3.275  0.00  0.00    -0.260 OA
BRANCH  10  12
ATOM     12  O   LIG    1        2.368  -6.448  -5.755  0.00  0.00    -0.325 OA
ATOM     13  H   LIG    1        2.263  -7.355  -6.074  0.00  0.00    +0.220 HD
ENDBRANCH  10  12
BRANCH  10  14
ATOM     14  O   LIG    1        0.281  -6.524  -4.246  0.00  0.00    -0.325 OA
ATOM     15  H   LIG    1       -0.065  -6.377  -3.352  0.00  0.00    +0.220 HD
ENDBRANCH  10  14
ENDBRANCH   1  10
BRANCH   1  16
ATOM     16  P   LIG    1        3.838  -4.088  -3.825  0.00  0.00    +0.326 P 
ATOM     17  O   LIG    1        4.053  -2.557  -3.575  0.00  0.00    -0.260 OA
BRANCH  16  18
ATOM     18  O   LIG    1        4.432  -4.479  -5.221  0.00  0.00    -0.325 OA
ATOM     19  H   LIG    1        3.983  -3.972  -5.916  0.00  0.00    +0.220 HD
ENDBRANCH  16  18
BRANCH  16  20
ATOM     20  O   LIG    1        4.563  -4.907  -2.703  0.00  0.00    -0.325 OA
ATOM     21  H   LIG    1        4.196  -4.665  -1.838  0.00  0.00    +0.220 HD
ENDBRANCH  16  20
ENDBRANCH   1  16
TORSDOF 11
