REMARK  Name = ZINC49615549
REMARK                            x       y       z     vdW  Elec       q    Type
REMARK                         _______ _______ _______ _____ _____    ______ ____
ROOT
ATOM      1  N   LIG    1       -0.736  -1.165   3.757  0.00  0.00    -0.216 N 
ATOM      2  H   LIG    1       -1.090  -1.995   3.362  0.00  0.00    +0.174 HD
ENDROOT
BRANCH   1   3
ATOM      3  C   LIG    1       -0.881  -0.927   5.128  0.00  0.00    +0.050 A 
ATOM      4  C   LIG    1       -0.388   0.246   5.684  0.00  0.00    +0.028 A 
ATOM      5  C   LIG    1       -0.530   0.484   7.039  0.00  0.00    +0.049 A 
ATOM      6  C   LIG    1       -1.165  -0.446   7.845  0.00  0.00    +0.141 A 
ATOM      7  C   LIG    1       -1.662  -1.623   7.290  0.00  0.00    +0.074 A 
ATOM      8  C   LIG    1       -1.524  -1.859   5.931  0.00  0.00    +0.051 A 
BRANCH   7   9
ATOM      9  N   LIG    1       -2.304  -2.564   8.103  0.00  0.00    -0.331 N 
ATOM     10  C   LIG    1       -3.757  -2.508   8.322  0.00  0.00    +0.086 C 
ATOM     11  C   LIG    1       -4.344  -3.897   8.048  0.00  0.00    -0.063 C 
ATOM     12  N   LIG    1       -3.645  -4.893   8.870  0.00  0.00    +0.381 N 
ATOM     13  H   LIG    1       -4.080  -5.795   8.746  0.00  0.00    -0.086 HD
ATOM     14  H   LIG    1       -3.702  -4.625   9.841  0.00  0.00    -0.086 HD
ATOM     15  C   LIG    1       -2.235  -4.973   8.468  0.00  0.00    -0.063 C 
ATOM     16  C   LIG    1       -1.545  -3.641   8.758  0.00  0.00    +0.086 C 
ENDBRANCH   7   9
BRANCH   6  17
ATOM     17  O   LIG    1       -1.303  -0.210   9.178  0.00  0.00    -0.493 OA
ATOM     18  C   LIG    1       -0.769   1.018   9.678  0.00  0.00    +0.277 C 
ENDBRANCH   6  17
ENDBRANCH   1   3
BRANCH   1  19
ATOM     19  S   LIG    1        0.030  -0.053   2.799  0.00  0.00    +0.079 S 
ATOM     20  O   LIG    1       -0.789   1.108   2.790  0.00  0.00    -0.149 OA
ATOM     21  O   LIG    1        1.388  -0.024   3.217  0.00  0.00    -0.149 OA
BRANCH  19  32
ATOM     22  C   LIG    1       -0.018   1.503   0.010  0.00  0.00    +0.047 C 
ATOM     23  C   LIG    1        0.002  -0.004   0.002  0.00  0.00    -0.009 A 
ATOM     24  C   LIG    1        0.006  -0.732  -1.258  0.00  0.00    -0.005 A 
ATOM     25  C   LIG    1       -0.008  -0.220  -2.577  0.00  0.00    +0.029 A 
ATOM     26  C   LIG    1       -0.002  -1.058  -3.649  0.00  0.00    +0.042 A 
ATOM     27 CL   LIG    1       -0.020  -0.388  -5.250  0.00  0.00    -0.084 Cl
ATOM     28  C   LIG    1        0.018  -2.439  -3.490  0.00  0.00    +0.021 A 
ATOM     29  C   LIG    1        0.032  -2.977  -2.219  0.00  0.00    +0.017 A 
ATOM     30  C   LIG    1        0.026  -2.138  -1.126  0.00  0.00    +0.022 A 
ATOM     31  S   LIG    1        0.039  -2.391   0.630  0.00  0.00    -0.068 S 
ATOM     32  C   LIG    1        0.023  -0.687   1.155  0.00  0.00    +0.150 A 
ENDBRANCH  19  32
ENDBRANCH   1  19
TORSDOF 5
