REMARK  Name = ZINC40935136
REMARK                            x       y       z     vdW  Elec       q    Type
REMARK                         _______ _______ _______ _____ _____    ______ ____
ROOT
ATOM      1  C   LIG    1        0.051  -2.682   2.485  0.00  0.00    +0.094 A 
ATOM      2  C   LIG    1        0.513  -2.178   3.687  0.00  0.00    +0.100 A 
ATOM      3  N   LIG    1        0.345  -3.133   4.622  0.00  0.00    -0.214 NA
ATOM      4  C   LIG    1       -0.191  -4.197   4.073  0.00  0.00    +0.191 A 
ATOM      5  N   LIG    1       -0.398  -3.963   2.749  0.00  0.00    -0.325 N 
ATOM      6  H   LIG    1       -0.785  -4.580   2.109  0.00  0.00    +0.169 HD
ENDROOT
BRANCH   2   7
ATOM      7  C   LIG    1        1.088  -0.831   3.907  0.00  0.00    +0.005 A 
ATOM      8  C   LIG    1        1.863  -0.231   2.900  0.00  0.00    +0.012 A 
ATOM      9  C   LIG    1        2.401   1.002   3.077  0.00  0.00    +0.030 A 
ATOM     10  C   LIG    1        2.186   1.698   4.282  0.00  0.00    +0.089 A 
ATOM     11  C   LIG    1        1.405   1.103   5.306  0.00  0.00    +0.090 A 
ATOM     12  N   LIG    1        1.200   1.765   6.450  0.00  0.00    -0.252 NA
ATOM     13  C   LIG    1        1.723   2.959   6.614  0.00  0.00    +0.131 A 
ATOM     14  C   LIG    1        2.491   3.545   5.606  0.00  0.00    +0.131 A 
ATOM     15  N   LIG    1        2.707   2.914   4.474  0.00  0.00    -0.252 NA
ATOM     16  C   LIG    1        0.853  -0.171   5.100  0.00  0.00    +0.040 A 
ENDBRANCH   2   7
BRANCH   1  23
ATOM     17  C   LIG    1       -0.018   1.503   0.010  0.00  0.00    +0.068 C 
ATOM     18  C   LIG    1        0.002  -0.004   0.002  0.00  0.00    +0.074 A 
ATOM     19  C   LIG    1        0.006  -0.680  -1.206  0.00  0.00    +0.144 A 
ATOM     20  F   LIG    1       -0.010   0.004  -2.371  0.00  0.00    -0.204 F 
ATOM     21  C   LIG    1        0.025  -2.071  -1.210  0.00  0.00    +0.042 A 
ATOM     22  C   LIG    1        0.040  -2.735   0.002  0.00  0.00    +0.033 A 
ATOM     23  C   LIG    1        0.035  -1.989   1.184  0.00  0.00    +0.090 A 
ATOM     24  N   LIG    1        0.022  -0.660   1.144  0.00  0.00    -0.247 NA
ENDBRANCH   1  23
BRANCH   4  25
ATOM     25  N   LIG    1       -0.502  -5.368   4.736  0.00  0.00    -0.329 N 
ATOM     26  H   LIG    1       -0.897  -6.109   4.251  0.00  0.00    +0.145 HD
ATOM     27  H   LIG    1       -0.324  -5.450   5.686  0.00  0.00    +0.145 HD
ENDBRANCH   4  25
TORSDOF 3
