REMARK  Name = ZINC00004982
REMARK                            x       y       z     vdW  Elec       q    Type
REMARK                         _______ _______ _______ _____ _____    ______ ____
ROOT
ATOM      1  C   LIG    1        0.787  -0.621  -0.968  0.00  0.00    +0.162 A 
ATOM      2  C   LIG    1        1.337   0.146  -1.983  0.00  0.00    +0.049 A 
ATOM      3  C   LIG    1        1.738  -0.453  -3.162  0.00  0.00    +0.008 A 
ATOM      4  C   LIG    1        1.592  -1.817  -3.332  0.00  0.00    -0.039 A 
ATOM      5  C   LIG    1        1.044  -2.588  -2.324  0.00  0.00    +0.053 A 
ATOM      6  C   LIG    1        0.645  -1.995  -1.137  0.00  0.00    +0.163 A 
ENDROOT
BRANCH   4   7
ATOM      7  C   LIG    1        2.030  -2.466  -4.620  0.00  0.00    +0.045 C 
ATOM      8  C   LIG    1        1.343  -1.802  -5.836  0.00  0.00    +0.105 C 
ATOM      9  C   LIG    1        2.409  -1.797  -6.909  0.00  0.00    +0.214 C 
ATOM     10  N   LIG    1        3.617  -2.015  -6.361  0.00  0.00    -0.315 N 
ATOM     11  H   LIG    1        4.446  -2.059  -6.863  0.00  0.00    +0.149 HD
ATOM     12  O   LIG    1        2.204  -1.622  -8.091  0.00  0.00    -0.276 OA
ATOM     13  C   LIG    1        3.521  -2.178  -4.905  0.00  0.00    +0.112 C 
ENDBRANCH   4   7
BRANCH   1  15
ATOM     14  C   LIG    1        0.568   1.381   0.297  0.00  0.00    +0.277 C 
ATOM     15  O   LIG    1        0.393  -0.033   0.193  0.00  0.00    -0.491 OA
ENDBRANCH   1  15
BRANCH   6  16
ATOM     16  O   LIG    1        0.112  -2.753  -0.142  0.00  0.00    -0.485 OA
BRANCH  16  17
ATOM     17  C   LIG    1        0.103  -4.168  -0.338  0.00  0.00    +0.174 C 
ATOM     18  C   LIG    1       -1.169  -4.587  -1.104  0.00  0.00    +0.044 C 
ATOM     19  C   LIG    1       -1.568  -5.941  -0.465  0.00  0.00    +0.004 C 
ATOM     20  C   LIG    1       -1.244  -5.720   1.034  0.00  0.00    +0.004 C 
ATOM     21  C   LIG    1        0.055  -4.888   1.021  0.00  0.00    +0.044 C 
ENDBRANCH  16  17
ENDBRANCH   6  16
TORSDOF 4
