REMARK  Name = ZINC17949002
REMARK                            x       y       z     vdW  Elec       q    Type
REMARK                         _______ _______ _______ _____ _____    ______ ____
ROOT
ATOM      1  C   LIG    1        3.693  -0.682  -0.037  0.00  0.00    +0.138 C 
ATOM      2  N   LIG    1        3.714  -1.980  -0.045  0.00  0.00    -0.188 NA
ENDROOT
BRANCH   1   6
ATOM      3  C   LIG    1       -0.017   1.379   0.010  0.00  0.00    +0.000 A 
ATOM      4  C   LIG    1        1.168   2.094   0.002  0.00  0.00    +0.001 A 
ATOM      5  C   LIG    1        2.377   1.431  -0.013  0.00  0.00    +0.009 A 
ATOM      6  C   LIG    1        2.404   0.034  -0.021  0.00  0.00    -0.005 A 
ATOM      7  C   LIG    1        1.204  -0.681  -0.013  0.00  0.00    +0.009 A 
ATOM      8  C   LIG    1        0.002  -0.004   0.002  0.00  0.00    +0.001 A 
ENDBRANCH   1   6
BRANCH   2   9
ATOM      9  N   LIG    1        4.939  -2.660  -0.060  0.00  0.00    -0.219 N 
ATOM     10  H   LIG    1        5.771  -2.161  -0.066  0.00  0.00    +0.176 HD
BRANCH   9  11
ATOM     11  C   LIG    1        4.961  -4.008  -0.068  0.00  0.00    +0.147 C 
ATOM     12  S   LIG    1        6.457  -4.839  -0.087  0.00  0.00    -0.017 S 
BRANCH  11  13
ATOM     13  N   LIG    1        3.805  -4.701  -0.060  0.00  0.00    -0.339 N 
ATOM     14  H   LIG    1        3.821  -5.670  -0.066  0.00  0.00    +0.144 HD
ATOM     15  H   LIG    1        2.957  -4.229  -0.049  0.00  0.00    +0.144 HD
ENDBRANCH  11  13
ENDBRANCH   9  11
ENDBRANCH   2   9
TORSDOF 4
