REMARK VINA RESULT:      -6.0      2.463      4.235
REMARK  Name = ZINC00000931
REMARK                            x       y       z     vdW  Elec       q    Type
REMARK                         _______ _______ _______ _____ _____    ______ ____
ROOT
ATOM      1  C   LIG    1       28.083  32.880  56.181  0.00  0.00    +0.004 A 
ATOM      2  C   LIG    1       28.240  32.254  54.960  0.00  0.00    +0.004 A 
ATOM      3  C   LIG    1       27.131  31.888  54.217  0.00  0.00    +0.051 A 
ATOM      4  C   LIG    1       25.856  32.154  54.689  0.00  0.00    +0.179 A 
ATOM      5  C   LIG    1       25.690  32.808  55.911  0.00  0.00    +0.218 A 
ATOM      6  N   LIG    1       24.458  33.152  56.379  0.00  0.00    -0.038 NA
ATOM      7  C   LIG    1       23.380  32.450  56.314  0.00  0.00    +0.325 C 
ATOM      8  C   LIG    1       23.267  31.123  55.690  0.00  0.00    +0.109 A 
ATOM      9  C   LIG    1       22.466  30.142  56.279  0.00  0.00    +0.039 A 
ATOM     10  C   LIG    1       22.341  28.903  55.682  0.00  0.00    +0.042 A 
ATOM     11 CL   LIG    1       21.349  27.684  56.419  0.00  0.00    -0.084 Cl
ATOM     12  C   LIG    1       23.005  28.629  54.498  0.00  0.00    +0.023 A 
ATOM     13  C   LIG    1       23.806  29.591  53.910  0.00  0.00    +0.048 A 
ATOM     14  C   LIG    1       23.951  30.834  54.505  0.00  0.00    +0.144 A 
ATOM     15  O   LIG    1       24.785  31.751  53.957  0.00  0.00    -0.451 OA
ATOM     16  C   LIG    1       26.819  33.157  56.660  0.00  0.00    +0.059 A 
ENDROOT
BRANCH   7  17
ATOM     17  N   LIG    1       22.242  32.984  56.874  0.00  0.00    -0.224 N 
ATOM     18  C   LIG    1       22.036  32.966  58.331  0.00  0.00    +0.207 C 
ATOM     19  C   LIG    1       21.661  34.380  58.785  0.00  0.00    -0.038 C 
ATOM     20  N   LIG    1       20.502  34.850  58.015  0.00  0.00    +0.384 N 
ATOM     21  H   LIG    1       20.209  35.749  58.367  0.00  0.00    -0.086 HD
ATOM     22  H   LIG    1       19.745  34.190  58.113  0.00  0.00    -0.086 HD
ATOM     23  C   LIG    1       20.862  34.974  56.597  0.00  0.00    -0.038 C 
ATOM     24  C   LIG    1       21.200  33.594  56.034  0.00  0.00    +0.207 C 
ENDBRANCH   7  17
TORSDOF 1
