REMARK VINA RESULT:      -5.4      3.083      5.475
REMARK  Name = ZINC00000931
REMARK                            x       y       z     vdW  Elec       q    Type
REMARK                         _______ _______ _______ _____ _____    ______ ____
ROOT
ATOM      1  C   LIG    1       17.630  34.137  55.929  0.00  0.00    +0.004 A 
ATOM      2  C   LIG    1       17.689  35.106  56.913  0.00  0.00    +0.004 A 
ATOM      3  C   LIG    1       18.867  35.321  57.607  0.00  0.00    +0.051 A 
ATOM      4  C   LIG    1       19.996  34.574  57.315  0.00  0.00    +0.179 A 
ATOM      5  C   LIG    1       19.951  33.610  56.307  0.00  0.00    +0.218 A 
ATOM      6  N   LIG    1       21.055  32.903  55.940  0.00  0.00    -0.038 NA
ATOM      7  C   LIG    1       21.958  32.418  56.719  0.00  0.00    +0.325 C 
ATOM      8  C   LIG    1       21.982  32.556  58.183  0.00  0.00    +0.109 A 
ATOM      9  C   LIG    1       22.397  31.485  58.977  0.00  0.00    +0.039 A 
ATOM     10  C   LIG    1       22.441  31.621  60.351  0.00  0.00    +0.042 A 
ATOM     11 CL   LIG    1       22.953  30.286  61.336  0.00  0.00    -0.084 Cl
ATOM     12  C   LIG    1       22.078  32.818  60.945  0.00  0.00    +0.023 A 
ATOM     13  C   LIG    1       21.659  33.882  60.168  0.00  0.00    +0.048 A 
ATOM     14  C   LIG    1       21.597  33.755  58.790  0.00  0.00    +0.144 A 
ATOM     15  O   LIG    1       21.128  34.781  58.038  0.00  0.00    -0.451 OA
ATOM     16  C   LIG    1       18.749  33.390  55.624  0.00  0.00    +0.059 A 
ENDROOT
BRANCH   7  17
ATOM     17  N   LIG    1       22.985  31.712  56.134  0.00  0.00    -0.224 N 
ATOM     18  C   LIG    1       24.343  32.275  56.059  0.00  0.00    +0.207 C 
ATOM     19  C   LIG    1       25.330  31.233  56.594  0.00  0.00    -0.038 C 
ATOM     20  N   LIG    1       25.156  29.972  55.862  0.00  0.00    +0.384 N 
ATOM     21  H   LIG    1       25.856  29.311  56.162  0.00  0.00    -0.086 HD
ATOM     22  H   LIG    1       25.259  30.142  54.872  0.00  0.00    -0.086 HD
ATOM     23  C   LIG    1       23.821  29.422  56.125  0.00  0.00    -0.038 C 
ATOM     24  C   LIG    1       22.759  30.372  55.571  0.00  0.00    +0.207 C 
ENDBRANCH   7  17
TORSDOF 1
