REMARK VINA RESULT:      -6.2      0.000      0.000
REMARK  Name = ZINC00000931
REMARK                            x       y       z     vdW  Elec       q    Type
REMARK                         _______ _______ _______ _____ _____    ______ ____
ROOT
ATOM      1  C   LIG    1       27.525  33.424  54.068  0.00  0.00    +0.004 A 
ATOM      2  C   LIG    1       27.400  34.451  54.984  0.00  0.00    +0.004 A 
ATOM      3  C   LIG    1       26.450  34.375  55.988  0.00  0.00    +0.051 A 
ATOM      4  C   LIG    1       25.624  33.267  56.086  0.00  0.00    +0.179 A 
ATOM      5  C   LIG    1       25.761  32.216  55.179  0.00  0.00    +0.218 A 
ATOM      6  N   LIG    1       25.019  31.078  55.283  0.00  0.00    -0.038 NA
ATOM      7  C   LIG    1       23.772  30.992  55.590  0.00  0.00    +0.325 C 
ATOM      8  C   LIG    1       22.896  32.128  55.917  0.00  0.00    +0.109 A 
ATOM      9  C   LIG    1       21.573  32.138  55.472  0.00  0.00    +0.039 A 
ATOM     10  C   LIG    1       20.743  33.194  55.797  0.00  0.00    +0.042 A 
ATOM     11 CL   LIG    1       19.100  33.206  55.239  0.00  0.00    -0.084 Cl
ATOM     12  C   LIG    1       21.219  34.242  56.567  0.00  0.00    +0.023 A 
ATOM     13  C   LIG    1       22.530  34.245  57.007  0.00  0.00    +0.048 A 
ATOM     14  C   LIG    1       23.376  33.199  56.677  0.00  0.00    +0.144 A 
ATOM     15  O   LIG    1       24.677  33.237  57.059  0.00  0.00    -0.451 OA
ATOM     16  C   LIG    1       26.713  32.311  54.159  0.00  0.00    +0.059 A 
ENDROOT
BRANCH   7  17
ATOM     17  N   LIG    1       23.212  29.735  55.615  0.00  0.00    -0.224 N 
ATOM     18  C   LIG    1       23.139  28.964  56.867  0.00  0.00    +0.207 C 
ATOM     19  C   LIG    1       21.701  28.466  57.046  0.00  0.00    -0.038 C 
ATOM     20  N   LIG    1       21.289  27.720  55.850  0.00  0.00    +0.384 N 
ATOM     21  H   LIG    1       20.372  27.328  55.999  0.00  0.00    -0.086 HD
ATOM     22  H   LIG    1       21.947  26.974  55.677  0.00  0.00    -0.086 HD
ATOM     23  C   LIG    1       21.253  28.617  54.689  0.00  0.00    -0.038 C 
ATOM     24  C   LIG    1       22.664  29.126  54.393  0.00  0.00    +0.207 C 
ENDBRANCH   7  17
TORSDOF 1
