REMARK VINA RESULT:      -5.3      3.034      4.330
REMARK  Name = ZINC00000931
REMARK                            x       y       z     vdW  Elec       q    Type
REMARK                         _______ _______ _______ _____ _____    ______ ____
ROOT
ATOM      1  C   LIG    1       23.443  29.955  53.657  0.00  0.00    +0.004 A 
ATOM      2  C   LIG    1       24.168  30.930  54.314  0.00  0.00    +0.004 A 
ATOM      3  C   LIG    1       23.640  31.557  55.429  0.00  0.00    +0.051 A 
ATOM      4  C   LIG    1       22.385  31.206  55.899  0.00  0.00    +0.179 A 
ATOM      5  C   LIG    1       21.656  30.206  55.254  0.00  0.00    +0.218 A 
ATOM      6  N   LIG    1       20.450  29.780  55.723  0.00  0.00    -0.038 NA
ATOM      7  C   LIG    1       19.508  30.510  56.212  0.00  0.00    +0.325 C 
ATOM      8  C   LIG    1       19.564  31.970  56.381  0.00  0.00    +0.109 A 
ATOM      9  C   LIG    1       18.429  32.745  56.134  0.00  0.00    +0.039 A 
ATOM     10  C   LIG    1       18.474  34.113  56.314  0.00  0.00    +0.042 A 
ATOM     11 CL   LIG    1       17.062  35.074  56.001  0.00  0.00    -0.084 Cl
ATOM     12  C   LIG    1       19.642  34.722  56.742  0.00  0.00    +0.023 A 
ATOM     13  C   LIG    1       20.774  33.965  56.983  0.00  0.00    +0.048 A 
ATOM     14  C   LIG    1       20.747  32.593  56.794  0.00  0.00    +0.144 A 
ATOM     15  O   LIG    1       21.876  31.864  56.973  0.00  0.00    -0.451 OA
ATOM     16  C   LIG    1       22.194  29.592  54.118  0.00  0.00    +0.059 A 
ENDROOT
BRANCH   7  17
ATOM     17  N   LIG    1       18.355  29.872  56.609  0.00  0.00    -0.224 N 
ATOM     18  C   LIG    1       18.024  29.726  58.035  0.00  0.00    +0.207 C 
ATOM     19  C   LIG    1       16.586  30.208  58.251  0.00  0.00    -0.038 C 
ATOM     20  N   LIG    1       15.686  29.486  57.344  0.00  0.00    +0.384 N 
ATOM     21  H   LIG    1       14.732  29.748  57.539  0.00  0.00    -0.086 HD
ATOM     22  H   LIG    1       15.795  28.493  57.484  0.00  0.00    -0.086 HD
ATOM     23  C   LIG    1       16.008  29.819  55.951  0.00  0.00    -0.038 C 
ATOM     24  C   LIG    1       17.415  29.322  55.619  0.00  0.00    +0.207 C 
ENDBRANCH   7  17
TORSDOF 1
