REMARK VINA RESULT:      -5.6      3.898      5.513
REMARK  Name = ZINC00000931
REMARK                            x       y       z     vdW  Elec       q    Type
REMARK                         _______ _______ _______ _____ _____    ______ ____
ROOT
ATOM      1  C   LIG    1       19.883  34.029  57.596  0.00  0.00    +0.004 A 
ATOM      2  C   LIG    1       20.565  34.553  56.514  0.00  0.00    +0.004 A 
ATOM      3  C   LIG    1       20.830  33.762  55.410  0.00  0.00    +0.051 A 
ATOM      4  C   LIG    1       20.408  32.443  55.378  0.00  0.00    +0.179 A 
ATOM      5  C   LIG    1       19.698  31.914  56.456  0.00  0.00    +0.218 A 
ATOM      6  N   LIG    1       19.203  30.645  56.436  0.00  0.00    -0.038 NA
ATOM      7  C   LIG    1       19.783  29.594  55.970  0.00  0.00    +0.325 C 
ATOM      8  C   LIG    1       21.111  29.566  55.336  0.00  0.00    +0.109 A 
ATOM      9  C   LIG    1       21.976  28.497  55.577  0.00  0.00    +0.039 A 
ATOM     10  C   LIG    1       23.213  28.458  54.965  0.00  0.00    +0.042 A 
ATOM     11 CL   LIG    1       24.288  27.130  55.269  0.00  0.00    -0.084 Cl
ATOM     12  C   LIG    1       23.599  29.476  54.109  0.00  0.00    +0.023 A 
ATOM     13  C   LIG    1       22.753  30.544  53.869  0.00  0.00    +0.048 A 
ATOM     14  C   LIG    1       21.514  30.602  54.487  0.00  0.00    +0.144 A 
ATOM     15  O   LIG    1       20.715  31.680  54.296  0.00  0.00    -0.451 OA
ATOM     16  C   LIG    1       19.452  32.718  57.574  0.00  0.00    +0.059 A 
ENDROOT
BRANCH   7  17
ATOM     17  N   LIG    1       19.107  28.400  56.072  0.00  0.00    -0.224 N 
ATOM     18  C   LIG    1       18.972  27.716  57.369  0.00  0.00    +0.207 C 
ATOM     19  C   LIG    1       17.496  27.368  57.581  0.00  0.00    -0.038 C 
ATOM     20  N   LIG    1       17.005  26.594  56.434  0.00  0.00    +0.384 N 
ATOM     21  H   LIG    1       16.056  26.300  56.609  0.00  0.00    -0.086 HD
ATOM     22  H   LIG    1       17.588  25.780  56.304  0.00  0.00    -0.086 HD
ATOM     23  C   LIG    1       17.044  27.419  55.221  0.00  0.00    -0.038 C 
ATOM     24  C   LIG    1       18.494  27.773  54.891  0.00  0.00    +0.207 C 
ENDBRANCH   7  17
TORSDOF 1
