REMARK VINA RESULT:      -5.1      2.945      5.385
REMARK  Name = ZINC00000566
REMARK                            x       y       z     vdW  Elec       q    Type
REMARK                         _______ _______ _______ _____ _____    ______ ____
ROOT
ATOM      1  C   LIG    1       20.164  32.010  55.486  0.00  0.00    +0.041 A 
ATOM      2  C   LIG    1       19.019  31.544  56.111  0.00  0.00    +0.127 A 
ATOM      3  C   LIG    1       18.817  30.177  56.292  0.00  0.00    +0.047 A 
ATOM      4  C   LIG    1       19.745  29.278  55.855  0.00  0.00    +0.015 A 
ATOM      5  C   LIG    1       20.907  29.731  55.221  0.00  0.00    +0.018 A 
ATOM      6  C   LIG    1       21.922  28.788  54.742  0.00  0.00    +0.018 A 
ATOM      7  C   LIG    1       23.020  29.290  54.119  0.00  0.00    +0.092 A 
ATOM      8  C   LIG    1       23.165  30.684  53.968  0.00  0.00    +0.337 A 
ATOM      9  O   LIG    1       24.160  31.121  53.417  0.00  0.00    -0.245 OA
ATOM     10  O   LIG    1       22.235  31.543  54.413  0.00  0.00    -0.422 OA
ATOM     11  C   LIG    1       21.114  31.110  55.030  0.00  0.00    +0.146 A 
ENDROOT
BRANCH   2  12
ATOM     12  O   LIG    1       18.085  32.427  56.551  0.00  0.00    -0.495 OA
ATOM     13  C   LIG    1       16.717  32.104  56.296  0.00  0.00    +0.277 C 
ENDBRANCH   2  12
BRANCH   1  14
ATOM     14  C   LIG    1       20.372  33.490  55.295  0.00  0.00    +0.069 C 
BRANCH  14  18
ATOM     15  C   LIG    1       19.589  35.588  57.008  0.00  0.00    +0.038 C 
ATOM     16  C   LIG    1       20.980  35.015  57.102  0.00  0.00    -0.079 C 
ATOM     17  C   LIG    1       21.974  35.604  58.069  0.00  0.00    +0.038 C 
ATOM     18  C   LIG    1       21.325  34.004  56.342  0.00  0.00    -0.023 C 
ENDBRANCH  14  18
ENDBRANCH   1  14
TORSDOF 3
