REMARK VINA RESULT:      -5.1      1.751      4.746
REMARK  Name = ZINC00000566
REMARK                            x       y       z     vdW  Elec       q    Type
REMARK                         _______ _______ _______ _____ _____    ______ ____
ROOT
ATOM      1  C   LIG    1       23.793  31.233  56.094  0.00  0.00    +0.041 A 
ATOM      2  C   LIG    1       22.998  32.106  56.818  0.00  0.00    +0.127 A 
ATOM      3  C   LIG    1       22.034  31.620  57.700  0.00  0.00    +0.047 A 
ATOM      4  C   LIG    1       21.860  30.277  57.862  0.00  0.00    +0.015 A 
ATOM      5  C   LIG    1       22.655  29.380  57.139  0.00  0.00    +0.018 A 
ATOM      6  C   LIG    1       22.491  27.932  57.292  0.00  0.00    +0.018 A 
ATOM      7  C   LIG    1       23.281  27.115  56.549  0.00  0.00    +0.092 A 
ATOM      8  C   LIG    1       24.238  27.669  55.674  0.00  0.00    +0.337 A 
ATOM      9  O   LIG    1       24.948  26.925  55.022  0.00  0.00    -0.245 OA
ATOM     10  O   LIG    1       24.388  28.996  55.542  0.00  0.00    -0.422 OA
ATOM     11  C   LIG    1       23.626  29.865  56.242  0.00  0.00    +0.146 A 
ENDROOT
BRANCH   2  12
ATOM     12  O   LIG    1       23.158  33.445  56.668  0.00  0.00    -0.495 OA
ATOM     13  C   LIG    1       22.242  34.291  57.366  0.00  0.00    +0.277 C 
ENDBRANCH   2  12
BRANCH   1  14
ATOM     14  C   LIG    1       24.832  31.769  55.143  0.00  0.00    +0.069 C 
BRANCH  14  18
ATOM     15  C   LIG    1       27.118  32.700  53.781  0.00  0.00    +0.038 C 
ATOM     16  C   LIG    1       27.129  32.584  55.284  0.00  0.00    -0.079 C 
ATOM     17  C   LIG    1       28.383  32.906  56.055  0.00  0.00    +0.038 C 
ATOM     18  C   LIG    1       26.048  32.203  55.919  0.00  0.00    -0.023 C 
ENDBRANCH  14  18
ENDBRANCH   1  14
TORSDOF 3
