REMARK VINA RESULT:      -5.5      1.734      2.097
REMARK  Name = ZINC00000566
REMARK                            x       y       z     vdW  Elec       q    Type
REMARK                         _______ _______ _______ _____ _____    ______ ____
ROOT
ATOM      1  C   LIG    1       24.001  31.223  56.311  0.00  0.00    +0.041 A 
ATOM      2  C   LIG    1       23.994  29.873  56.624  0.00  0.00    +0.127 A 
ATOM      3  C   LIG    1       23.122  29.376  57.590  0.00  0.00    +0.047 A 
ATOM      4  C   LIG    1       22.263  30.211  58.243  0.00  0.00    +0.015 A 
ATOM      5  C   LIG    1       22.258  31.577  57.940  0.00  0.00    +0.018 A 
ATOM      6  C   LIG    1       21.346  32.498  58.623  0.00  0.00    +0.018 A 
ATOM      7  C   LIG    1       21.402  33.816  58.297  0.00  0.00    +0.092 A 
ATOM      8  C   LIG    1       22.306  34.256  57.309  0.00  0.00    +0.337 A 
ATOM      9  O   LIG    1       22.338  35.439  57.018  0.00  0.00    -0.245 OA
ATOM     10  O   LIG    1       23.135  33.407  56.682  0.00  0.00    -0.422 OA
ATOM     11  C   LIG    1       23.140  32.087  56.968  0.00  0.00    +0.146 A 
ENDROOT
BRANCH   2  12
ATOM     12  O   LIG    1       24.842  29.029  55.984  0.00  0.00    -0.495 OA
ATOM     13  C   LIG    1       24.260  27.912  55.309  0.00  0.00    +0.277 C 
ENDBRANCH   2  12
BRANCH   1  14
ATOM     14  C   LIG    1       24.949  31.751  55.265  0.00  0.00    +0.069 C 
BRANCH  14  18
ATOM     15  C   LIG    1       27.117  32.626  53.689  0.00  0.00    +0.038 C 
ATOM     16  C   LIG    1       27.255  32.549  55.189  0.00  0.00    -0.079 C 
ATOM     17  C   LIG    1       28.571  32.880  55.842  0.00  0.00    +0.038 C 
ATOM     18  C   LIG    1       26.229  32.194  55.923  0.00  0.00    -0.023 C 
ENDBRANCH  14  18
ENDBRANCH   1  14
TORSDOF 3
