REMARK VINA RESULT:      -5.5      0.000      0.000
REMARK  Name = ZINC00000566
REMARK                            x       y       z     vdW  Elec       q    Type
REMARK                         _______ _______ _______ _____ _____    ______ ____
ROOT
ATOM      1  C   LIG    1       23.472  31.619  55.620  0.00  0.00    +0.041 A 
ATOM      2  C   LIG    1       22.992  30.587  54.830  0.00  0.00    +0.127 A 
ATOM      3  C   LIG    1       21.662  30.573  54.415  0.00  0.00    +0.047 A 
ATOM      4  C   LIG    1       20.813  31.575  54.782  0.00  0.00    +0.015 A 
ATOM      5  C   LIG    1       21.280  32.625  55.580  0.00  0.00    +0.018 A 
ATOM      6  C   LIG    1       20.392  33.716  55.990  0.00  0.00    +0.018 A 
ATOM      7  C   LIG    1       20.901  34.697  56.780  0.00  0.00    +0.092 A 
ATOM      8  C   LIG    1       22.257  34.654  57.165  0.00  0.00    +0.337 A 
ATOM      9  O   LIG    1       22.704  35.545  57.864  0.00  0.00    -0.245 OA
ATOM     10  O   LIG    1       23.068  33.655  56.782  0.00  0.00    -0.422 OA
ATOM     11  C   LIG    1       22.622  32.642  56.008  0.00  0.00    +0.146 A 
ENDROOT
BRANCH   2  12
ATOM     12  O   LIG    1       23.825  29.582  54.457  0.00  0.00    -0.495 OA
ATOM     13  C   LIG    1       23.407  28.248  54.756  0.00  0.00    +0.277 C 
ENDBRANCH   2  12
BRANCH   1  14
ATOM     14  C   LIG    1       24.912  31.624  56.064  0.00  0.00    +0.069 C 
BRANCH  14  18
ATOM     15  C   LIG    1       27.211  33.079  56.805  0.00  0.00    +0.038 C 
ATOM     16  C   LIG    1       26.798  33.004  55.357  0.00  0.00    -0.079 C 
ATOM     17  C   LIG    1       27.579  33.757  54.311  0.00  0.00    +0.038 C 
ATOM     18  C   LIG    1       25.761  32.282  55.008  0.00  0.00    -0.023 C 
ENDBRANCH  14  18
ENDBRANCH   1  14
TORSDOF 3
