REMARK VINA RESULT:      -5.3      2.796      3.294
REMARK  Name = ZINC00000566
REMARK                            x       y       z     vdW  Elec       q    Type
REMARK                         _______ _______ _______ _____ _____    ______ ____
ROOT
ATOM      1  C   LIG    1       23.954  30.945  56.379  0.00  0.00    +0.041 A 
ATOM      2  C   LIG    1       23.109  31.099  55.292  0.00  0.00    +0.127 A 
ATOM      3  C   LIG    1       21.733  30.932  55.436  0.00  0.00    +0.047 A 
ATOM      4  C   LIG    1       21.198  30.614  56.650  0.00  0.00    +0.015 A 
ATOM      5  C   LIG    1       22.037  30.455  57.759  0.00  0.00    +0.018 A 
ATOM      6  C   LIG    1       21.492  30.114  59.075  0.00  0.00    +0.018 A 
ATOM      7  C   LIG    1       22.360  29.956  60.108  0.00  0.00    +0.092 A 
ATOM      8  C   LIG    1       23.742  30.139  59.897  0.00  0.00    +0.337 A 
ATOM      9  O   LIG    1       24.509  30.005  60.834  0.00  0.00    -0.245 OA
ATOM     10  O   LIG    1       24.236  30.457  58.690  0.00  0.00    -0.422 OA
ATOM     11  C   LIG    1       23.429  30.616  57.618  0.00  0.00    +0.146 A 
ENDROOT
BRANCH   2  12
ATOM     12  O   LIG    1       23.625  31.414  54.077  0.00  0.00    -0.495 OA
ATOM     13  C   LIG    1       23.748  30.352  53.128  0.00  0.00    +0.277 C 
ENDBRANCH   2  12
BRANCH   1  14
ATOM     14  C   LIG    1       25.441  31.127  56.212  0.00  0.00    +0.069 C 
BRANCH  14  18
ATOM     15  C   LIG    1       27.019  32.340  54.215  0.00  0.00    +0.038 C 
ATOM     16  C   LIG    1       26.560  33.142  55.407  0.00  0.00    -0.079 C 
ATOM     17  C   LIG    1       26.997  34.575  55.563  0.00  0.00    +0.038 C 
ATOM     18  C   LIG    1       25.782  32.591  56.306  0.00  0.00    -0.023 C 
ENDBRANCH  14  18
ENDBRANCH   1  14
TORSDOF 3
