REMARK  Name = ZINC01812333
REMARK                            x       y       z     vdW  Elec       q    Type
REMARK                         _______ _______ _______ _____ _____    ______ ____
ROOT
ATOM      1  N   LIG    1        3.429  -0.863  -0.035  0.00  0.00    -0.309 N 
ATOM      2  C   LIG    1        2.418   0.045  -0.021  0.00  0.00    +0.068 A 
ATOM      3  C   LIG    1        2.382   1.442  -0.013  0.00  0.00    +0.028 A 
ATOM      4  C   LIG    1        1.170   2.094   0.002  0.00  0.00    +0.002 A 
ATOM      5  C   LIG    1       -0.017   1.375   0.010  0.00  0.00    +0.002 A 
ATOM      6  C   LIG    1        0.002  -0.004   0.002  0.00  0.00    +0.028 A 
ATOM      7  C   LIG    1        1.214  -0.678  -0.013  0.00  0.00    +0.069 A 
ATOM      8  N   LIG    1        1.568  -2.017  -0.024  0.00  0.00    -0.306 N 
ATOM      9  C   LIG    1        2.933  -2.075  -0.037  0.00  0.00    +0.175 A 
ENDROOT
BRANCH   9  10
ATOM     10  N   LIG    1        3.676  -3.236  -0.050  0.00  0.00    -0.330 N 
ATOM     11  H   LIG    1        4.775  -3.185  -0.061  0.00  0.00    +0.145 HD
ATOM     12  H   LIG    1        3.171  -4.213  -0.051  0.00  0.00    +0.145 HD
ENDBRANCH   9  10
BRANCH   1  13
ATOM     13  C   LIG    1        4.857  -0.536  -0.047  0.00  0.00    +0.160 C 
BRANCH  13  18
ATOM     14  C   LIG    1        6.684  -0.075  -5.510  0.00  0.00    +0.044 C 
ATOM     15  C   LIG    1        6.208  -0.195  -4.085  0.00  0.00    -0.050 A 
ATOM     16  C   LIG    1        5.722   0.917  -3.422  0.00  0.00    +0.004 A 
ATOM     17  C   LIG    1        5.285   0.806  -2.116  0.00  0.00    +0.005 A 
ATOM     18  C   LIG    1        5.334  -0.416  -1.471  0.00  0.00    -0.028 A 
ATOM     19  C   LIG    1        5.825  -1.526  -2.132  0.00  0.00    +0.005 A 
ATOM     20  C   LIG    1        6.258  -1.417  -3.440  0.00  0.00    +0.004 A 
ENDBRANCH  13  18
ENDBRANCH   1  13
BRANCH   8  21
ATOM     21  C   LIG    1        0.650  -3.159  -0.021  0.00  0.00    +0.204 C 
BRANCH  21  22
ATOM     22  C   LIG    1        0.322  -3.543  -1.440  0.00  0.00    +0.183 C 
ATOM     23  O   LIG    1        0.806  -2.924  -2.364  0.00  0.00    -0.290 OA
BRANCH  22  24
ATOM     24  C   LIG    1       -0.586  -4.667  -1.706  0.00  0.00    +0.020 A 
ATOM     25  C   LIG    1       -1.142  -5.387  -0.641  0.00  0.00    +0.019 A 
ATOM     26  C   LIG    1       -1.992  -6.432  -0.894  0.00  0.00    +0.000 A 
ATOM     27  C   LIG    1       -2.294  -6.785  -2.206  0.00  0.00    +0.124 A 
ATOM     28  C   LIG    1       -1.740  -6.076  -3.266  0.00  0.00    +0.000 A 
ATOM     29  C   LIG    1       -0.893  -5.026  -3.024  0.00  0.00    +0.019 A 
BRANCH  26  30
ATOM     30  C   LIG    1       -2.597  -7.204   0.250  0.00  0.00    -0.009 C 
ATOM     31  C   LIG    1       -2.175  -8.672   0.154  0.00  0.00    +0.015 C 
ATOM     32  C   LIG    1       -4.122  -7.106   0.182  0.00  0.00    +0.015 C 
ATOM     33  C   LIG    1       -2.107  -6.618   1.576  0.00  0.00    +0.015 C 
ENDBRANCH  26  30
BRANCH  28  34
ATOM     34  C   LIG    1       -2.071  -6.464  -4.684  0.00  0.00    -0.009 C 
ATOM     35  C   LIG    1       -3.580  -6.343  -4.907  0.00  0.00    +0.015 C 
ATOM     36  C   LIG    1       -1.633  -7.908  -4.934  0.00  0.00    +0.015 C 
ATOM     37  C   LIG    1       -1.337  -5.533  -5.652  0.00  0.00    +0.015 C 
ENDBRANCH  28  34
BRANCH  27  38
ATOM     38  O   LIG    1       -3.132  -7.823  -2.451  0.00  0.00    -0.506 OA
ATOM     39  H   LIG    1       -3.372  -8.103  -3.487  0.00  0.00    +0.292 HD
ENDBRANCH  27  38
ENDBRANCH  22  24
ENDBRANCH  21  22
ENDBRANCH   8  21
TORSDOF 9
