REMARK  Name = ZINC02183611
REMARK                            x       y       z     vdW  Elec       q    Type
REMARK                         _______ _______ _______ _____ _____    ______ ____
ROOT
ATOM      1  C   LIG    1        6.837   3.893  -1.992  0.00  0.00    +0.084 C 
ENDROOT
BRANCH   1   5
ATOM      2  N   LIG    1        3.582   2.123  -0.021  0.00  0.00    -0.327 N 
ATOM      3  C   LIG    1        3.587   3.591  -0.118  0.00  0.00    +0.120 C 
ATOM      4  C   LIG    1        4.535   4.001  -1.249  0.00  0.00    +0.103 C 
ATOM      5  N   LIG    1        5.852   3.389  -1.026  0.00  0.00    -0.299 NA
ATOM      6  C   LIG    1        5.773   1.923  -1.072  0.00  0.00    +0.103 C 
ATOM      7  C   LIG    1        4.875   1.428   0.073  0.00  0.00    +0.120 C 
BRANCH   2  10
ATOM      8  C   LIG    1        1.209  -0.683  -0.026  0.00  0.00    +0.003 A 
ATOM      9  C   LIG    1        2.397   0.021  -0.035  0.00  0.00    +0.023 A 
ATOM     10  C   LIG    1        2.381   1.409  -0.013  0.00  0.00    +0.031 A 
ATOM     11  C   LIG    1        1.169   2.087   0.017  0.00  0.00    +0.038 A 
ATOM     12  C   LIG    1       -0.017   1.377   0.026  0.00  0.00    +0.020 A 
ATOM     13 BR   LIG    1       -1.668   2.298   0.067  0.00  0.00    -0.050 Br
ATOM     14  C   LIG    1        0.003  -0.006   0.004  0.00  0.00    +0.015 A 
ENDBRANCH   2  10
ENDBRANCH   1   5
BRANCH   1  15
ATOM     15  C   LIG    1        8.237   3.432  -1.581  0.00  0.00    +0.017 C 
BRANCH  15  16
ATOM     16  C   LIG    1        9.263   3.958  -2.586  0.00  0.00    +0.021 C 
BRANCH  16  17
ATOM     17  C   LIG    1       10.663   3.497  -2.175  0.00  0.00    +0.118 C 
BRANCH  17  18
ATOM     18  N   LIG    1       11.646   3.999  -3.138  0.00  0.00    -0.224 N 
ATOM     19  C   LIG    1       12.025   3.336  -4.251  0.00  0.00    +0.244 C 
ATOM     20  C   LIG    1       13.089   4.196  -4.895  0.00  0.00    +0.164 C 
ATOM     21  C   LIG    1       12.692   4.573  -6.325  0.00  0.00    +0.032 C 
ATOM     22  C   LIG    1       13.584   5.727  -6.794  0.00  0.00    +0.004 C 
ATOM     23  C   LIG    1       13.351   6.969  -5.934  0.00  0.00    +0.019 C 
ATOM     24  C   LIG    1       13.735   6.670  -4.477  0.00  0.00    +0.110 C 
ATOM     25  N   LIG    1       13.066   5.425  -4.073  0.00  0.00    -0.274 N 
ATOM     26  O   LIG    1       11.601   2.273  -4.650  0.00  0.00    -0.273 OA
ATOM     27  C   LIG    1       12.275   5.179  -3.026  0.00  0.00    +0.312 C 
ATOM     28  O   LIG    1       12.144   5.933  -2.082  0.00  0.00    -0.252 OA
ENDBRANCH  17  18
ENDBRANCH  16  17
ENDBRANCH  15  16
ENDBRANCH   1  15
TORSDOF 6
