REMARK  Name = ZINC01694541
REMARK                            x       y       z     vdW  Elec       q    Type
REMARK                         _______ _______ _______ _____ _____    ______ ____
ROOT
ATOM      1  C   LIG    1        2.624   1.248   0.217  0.00  0.00    +0.098 A 
ATOM      2  C   LIG    1        3.544   1.550  -0.816  0.00  0.00    +0.099 A 
ATOM      3  N   LIG    1        4.572   0.750  -1.050  0.00  0.00    -0.224 NA
ATOM      4  C   LIG    1        4.734  -0.352  -0.314  0.00  0.00    +0.186 A 
ATOM      5  C   LIG    1        3.808  -0.653   0.717  0.00  0.00    +0.148 A 
ATOM      6  C   LIG    1        4.012  -1.833   1.478  0.00  0.00    +0.149 A 
ATOM      7  N   LIG    1        5.057  -2.595   1.192  0.00  0.00    -0.198 NA
ATOM      8  C   LIG    1        5.901  -2.274   0.215  0.00  0.00    +0.216 A 
ATOM      9  N   LIG    1        5.758  -1.190  -0.524  0.00  0.00    -0.193 NA
ATOM     10  N   LIG    1        2.779   0.159   0.951  0.00  0.00    -0.238 NA
ENDROOT
BRANCH   1  16
ATOM     11  C   LIG    1        1.679   3.534   0.518  0.00  0.00    +0.013 A 
ATOM     12  C   LIG    1        0.613   4.374   0.762  0.00  0.00    +0.046 A 
ATOM     13  C   LIG    1       -0.658   3.848   0.954  0.00  0.00    +0.117 A 
ATOM     14  C   LIG    1       -0.858   2.475   0.912  0.00  0.00    +0.046 A 
ATOM     15  C   LIG    1        0.204   1.629   0.673  0.00  0.00    +0.013 A 
ATOM     16  C   LIG    1        1.481   2.154   0.474  0.00  0.00    +0.003 A 
BRANCH  13  17
ATOM     17  O   LIG    1       -1.706   4.679   1.190  0.00  0.00    -0.507 OA
ATOM     18  H   LIG    1       -1.854   4.870   2.126  0.00  0.00    +0.292 HD
ENDBRANCH  13  17
ENDBRANCH   1  16
BRANCH   2  19
ATOM     19  C   LIG    1        3.358   2.769  -1.635  0.00  0.00    +0.003 A 
ATOM     20  C   LIG    1        2.096   3.088  -2.136  0.00  0.00    +0.013 A 
ATOM     21  C   LIG    1        1.925   4.227  -2.895  0.00  0.00    +0.046 A 
ATOM     22  C   LIG    1        3.010   5.050  -3.168  0.00  0.00    +0.117 A 
ATOM     23  C   LIG    1        4.269   4.732  -2.675  0.00  0.00    +0.046 A 
ATOM     24  C   LIG    1        4.446   3.598  -1.912  0.00  0.00    +0.013 A 
BRANCH  22  25
ATOM     25  O   LIG    1        2.840   6.168  -3.919  0.00  0.00    -0.507 OA
ATOM     26  H   LIG    1        2.959   6.026  -4.869  0.00  0.00    +0.292 HD
ENDBRANCH  22  25
ENDBRANCH   2  19
BRANCH   6  27
ATOM     27  N   LIG    1        3.145  -2.177   2.493  0.00  0.00    -0.341 N 
ATOM     28  H   LIG    1        3.295  -2.986   3.006  0.00  0.00    +0.144 HD
ATOM     29  H   LIG    1        2.384  -1.610   2.694  0.00  0.00    +0.144 HD
ENDBRANCH   6  27
BRANCH   8  30
ATOM     30  N   LIG    1        6.972  -3.111  -0.036  0.00  0.00    -0.327 N 
ATOM     31  H   LIG    1        7.095  -3.913   0.495  0.00  0.00    +0.145 HD
ATOM     32  H   LIG    1        7.600  -2.896  -0.743  0.00  0.00    +0.145 HD
ENDBRANCH   8  30
TORSDOF 6
