REMARK  Name = ZINC01685327
REMARK                            x       y       z     vdW  Elec       q    Type
REMARK                         _______ _______ _______ _____ _____    ______ ____
ROOT
ATOM      1  C   LIG    1       -4.301   2.854   1.677  0.00  0.00    +0.064 C 
ATOM      2  C   LIG    1       -3.721   1.546   2.151  0.00  0.00    +0.021 A 
ATOM      3  C   LIG    1       -3.908   1.017   3.370  0.00  0.00    -0.010 A 
ATOM      4  C   LIG    1       -3.173  -0.250   3.405  0.00  0.00    +0.007 A 
ATOM      5  C   LIG    1       -2.987  -1.236   4.376  0.00  0.00    +0.056 A 
ATOM      6  C   LIG    1       -2.225  -2.349   4.081  0.00  0.00    +0.121 A 
ATOM      7  C   LIG    1       -1.635  -2.483   2.827  0.00  0.00    +0.047 A 
ATOM      8  C   LIG    1       -1.807  -1.515   1.863  0.00  0.00    +0.030 A 
ATOM      9  C   LIG    1       -2.578  -0.390   2.139  0.00  0.00    +0.050 A 
ATOM     10  N   LIG    1       -2.927   0.722   1.401  0.00  0.00    -0.339 N 
ENDROOT
BRANCH   6  11
ATOM     11  O   LIG    1       -2.045  -3.315   5.021  0.00  0.00    -0.495 OA
ATOM     12  C   LIG    1       -1.239  -4.437   4.652  0.00  0.00    +0.277 C 
ENDBRANCH   6  11
BRANCH   3  13
ATOM     13  C   LIG    1       -4.719   1.613   4.491  0.00  0.00    +0.133 C 
BRANCH  13  14
ATOM     14  C   LIG    1       -6.143   1.130   4.393  0.00  0.00    +0.215 C 
ATOM     15  N   LIG    1       -7.057   1.536   5.297  0.00  0.00    -0.329 N 
ATOM     16  H   LIG    1       -7.973   1.226   5.233  0.00  0.00    +0.145 HD
ATOM     17  H   LIG    1       -6.797   2.140   6.011  0.00  0.00    +0.145 HD
ATOM     18  O   LIG    1       -6.468   0.376   3.500  0.00  0.00    -0.276 OA
ENDBRANCH  13  14
ENDBRANCH   3  13
BRANCH  10  19
ATOM     19  C   LIG    1       -2.514   0.980   0.019  0.00  0.00    +0.157 C 
BRANCH  19  20
ATOM     20  C   LIG    1       -1.219   1.751   0.017  0.00  0.00    -0.028 A 
ATOM     21  C   LIG    1       -0.013   1.076   0.008  0.00  0.00    +0.005 A 
ATOM     22  C   LIG    1        1.175   1.783   0.000  0.00  0.00    +0.000 A 
ATOM     23  C   LIG    1        1.156   3.165   0.008  0.00  0.00    +0.000 A 
ATOM     24  C   LIG    1       -0.050   3.840   0.022  0.00  0.00    +0.000 A 
ATOM     25  C   LIG    1       -1.238   3.133   0.030  0.00  0.00    +0.005 A 
ENDBRANCH  19  20
ENDBRANCH  10  19
TORSDOF 5
