REMARK  Name = ZINC01849597
REMARK                            x       y       z     vdW  Elec       q    Type
REMARK                         _______ _______ _______ _____ _____    ______ ____
ROOT
ATOM      1  C   LIG    1        1.429  -2.509  -2.486  0.00  0.00    +0.202 C 
ENDROOT
BRANCH   1   2
ATOM      2  C   LIG    1        1.354  -4.003  -2.662  0.00  0.00    -0.007 A 
ATOM      3  C   LIG    1        2.225  -4.825  -1.972  0.00  0.00    +0.007 A 
ATOM      4  C   LIG    1        2.155  -6.197  -2.133  0.00  0.00    +0.000 A 
ATOM      5  C   LIG    1        1.215  -6.746  -2.984  0.00  0.00    +0.000 A 
ATOM      6  C   LIG    1        0.343  -5.924  -3.674  0.00  0.00    +0.000 A 
ATOM      7  C   LIG    1        0.409  -4.553  -3.509  0.00  0.00    +0.007 A 
ENDBRANCH   1   2
BRANCH   1   8
ATOM      8  C   LIG    1        0.724  -2.112  -1.188  0.00  0.00    +0.030 C 
BRANCH   8   9
ATOM      9  C   LIG    1        0.692  -0.586  -1.071  0.00  0.00    -0.079 C 
BRANCH   9  11
ATOM     10  C   LIG    1       -0.017   1.259   0.288  0.00  0.00    -0.101 C 
ATOM     11  N   LIG    1        0.015  -0.205   0.176  0.00  0.00    +0.377 N 
ATOM     12  H   LIG    1       -0.929  -0.562   0.169  0.00  0.00    -0.086 HD
ATOM     13  H   LIG    1        0.515  -0.592   0.962  0.00  0.00    -0.086 HD
ENDBRANCH   9  11
ENDBRANCH   8   9
ENDBRANCH   1   8
BRANCH   1  14
ATOM     14  O   LIG    1        2.799  -2.105  -2.428  0.00  0.00    -0.481 OA
BRANCH  14  15
ATOM     15  C   LIG    1        3.129  -0.949  -3.064  0.00  0.00    +0.163 A 
ATOM     16  C   LIG    1        2.140  -0.160  -3.629  0.00  0.00    +0.049 A 
ATOM     17  C   LIG    1        2.478   1.015  -4.275  0.00  0.00    +0.004 A 
ATOM     18  C   LIG    1        3.801   1.405  -4.359  0.00  0.00    +0.004 A 
ATOM     19  C   LIG    1        4.793   0.622  -3.798  0.00  0.00    +0.049 A 
ATOM     20  C   LIG    1        4.461  -0.553  -3.143  0.00  0.00    +0.162 A 
BRANCH  20  21
ATOM     21  O   LIG    1        5.435  -1.321  -2.586  0.00  0.00    -0.491 OA
ATOM     22  C   LIG    1        6.779  -0.853  -2.706  0.00  0.00    +0.277 C 
ENDBRANCH  20  21
ENDBRANCH  14  15
ENDBRANCH   1  14
TORSDOF 7
