REMARK  Name = ZINC01849892
REMARK                            x       y       z     vdW  Elec       q    Type
REMARK                         _______ _______ _______ _____ _____    ______ ____
ROOT
ATOM      1  C   LIG    1       -1.507  -2.060   0.088  0.00  0.00    +0.004 C 
ENDROOT
BRANCH   1   2
ATOM      2  N   LIG    1       -0.869  -2.656  -1.125  0.00  0.00    +0.386 N 
ATOM      3  H   LIG    1       -1.354  -2.314  -1.963  0.00  0.00    -0.081 HD
ATOM      4  C   LIG    1       -0.940  -4.117  -1.074  0.00  0.00    -0.078 C 
ATOM      5  C   LIG    1        0.343  -4.632  -1.754  0.00  0.00    -0.020 C 
ATOM      6  C   LIG    1        1.131  -3.361  -2.145  0.00  0.00    -0.020 C 
ATOM      7  C   LIG    1        0.554  -2.288  -1.188  0.00  0.00    -0.078 C 
ENDBRANCH   1   2
BRANCH   1   8
ATOM      8  C   LIG    1       -2.978  -2.388   0.101  0.00  0.00    +0.150 C 
ATOM      9  O   LIG    1       -3.518  -2.793  -0.907  0.00  0.00    -0.294 OA
BRANCH   8  10
ATOM     10  C   LIG    1       -3.759  -2.215   1.336  0.00  0.00    +0.016 A 
ATOM     11  C   LIG    1       -3.139  -1.753   2.501  0.00  0.00    +0.011 A 
ATOM     12  C   LIG    1       -3.879  -1.589   3.653  0.00  0.00    +0.004 A 
ATOM     13  C   LIG    1       -5.230  -1.892   3.661  0.00  0.00    -0.050 A 
ATOM     14  C   LIG    1       -6.030  -1.715   4.926  0.00  0.00    +0.044 C 
ATOM     15  C   LIG    1       -5.850  -2.355   2.513  0.00  0.00    +0.004 A 
ATOM     16  C   LIG    1       -5.125  -2.518   1.352  0.00  0.00    +0.011 A 
ENDBRANCH   8  10
ENDBRANCH   1   8
BRANCH   1  17
ATOM     17  C   LIG    1       -1.323  -0.541   0.074  0.00  0.00    -0.008 C 
BRANCH  17  19
ATOM     18  C   LIG    1       -1.653   1.536  -1.275  0.00  0.00    +0.004 C 
ATOM     19  C   LIG    1       -1.947   0.036  -1.198  0.00  0.00    -0.005 C 
ENDBRANCH  17  19
ENDBRANCH   1  17
TORSDOF 5
