REMARK  Name = ZINC01847418
REMARK                            x       y       z     vdW  Elec       q    Type
REMARK                         _______ _______ _______ _____ _____    ______ ____
ROOT
ATOM      1  C   LIG    1       -0.016   1.357   0.009  0.00  0.00    +0.002 A 
ATOM      2  C   LIG    1        1.156   2.100   0.002  0.00  0.00    +0.001 A 
ATOM      3  C   LIG    1        2.375   1.449  -0.013  0.00  0.00    +0.017 A 
ATOM      4  C   LIG    1        2.404   0.076  -0.021  0.00  0.00    +0.039 A 
ATOM      5  C   LIG    1        1.226  -0.705  -0.013  0.00  0.00    +0.055 A 
ATOM      6  N   LIG    1        1.464  -2.033  -0.023  0.00  0.00    -0.333 N 
ATOM      7  H   LIG    1        0.710  -2.644  -0.019  0.00  0.00    +0.168 HD
ATOM      8  C   LIG    1        2.669  -2.521  -0.037  0.00  0.00    +0.212 A 
ATOM      9  S   LIG    1        3.669  -1.167  -0.040  0.00  0.00    -0.049 S 
ATOM     10  C   LIG    1        0.002  -0.004   0.002  0.00  0.00    +0.027 A 
ENDROOT
BRANCH   8  11
ATOM     11  S   LIG    1        3.147  -4.217  -0.051  0.00  0.00    +0.078 S 
ATOM     12  O   LIG    1        2.064  -4.949   0.507  0.00  0.00    -0.151 OA
ATOM     13  O   LIG    1        4.461  -4.273   0.487  0.00  0.00    -0.151 OA
BRANCH  11  14
ATOM     14  N   LIG    1        3.265  -4.680  -1.636  0.00  0.00    -0.202 NA
ATOM     15  H   LIG    1        2.704  -4.260  -2.307  0.00  0.00    +0.144 HD
ATOM     16  H   LIG    1        3.894  -5.372  -1.894  0.00  0.00    +0.144 HD
ENDBRANCH  11  14
ENDBRANCH   8  11
TORSDOF 2
