REMARK  Name = ZINC02047002
REMARK                            x       y       z     vdW  Elec       q    Type
REMARK                         _______ _______ _______ _____ _____    ______ ____
ROOT
ATOM      1  C   LIG    1        0.002  -0.004   0.002  0.00  0.00    +0.225 A 
ATOM      2  N   LIG    1       -0.016   1.317   0.009  0.00  0.00    -0.219 NA
ATOM      3  C   LIG    1        1.111   2.020   0.002  0.00  0.00    +0.147 A 
ATOM      4  C   LIG    1        2.334   1.326  -0.013  0.00  0.00    +0.147 A 
ATOM      5  C   LIG    1        2.299  -0.078  -0.020  0.00  0.00    +0.165 A 
ATOM      6  N   LIG    1        3.608  -0.489  -0.035  0.00  0.00    -0.312 N 
ATOM      7  C   LIG    1        4.387   0.630  -0.036  0.00  0.00    +0.201 A 
ATOM      8  N   LIG    1        3.638   1.694  -0.024  0.00  0.00    -0.231 NA
ATOM      9  N   LIG    1        1.122  -0.695  -0.012  0.00  0.00    -0.216 NA
ENDROOT
BRANCH   3  10
ATOM     10  N   LIG    1        1.083   3.404   0.009  0.00  0.00    -0.341 N 
ATOM     11  H   LIG    1        1.912   3.906   0.004  0.00  0.00    +0.144 HD
ATOM     12  H   LIG    1        0.597   3.731  -0.801  0.00  0.00    +0.144 HD
ENDBRANCH   3  10
BRANCH   6  13
ATOM     13  C   LIG    1        4.082  -1.875  -0.047  0.00  0.00    +0.159 C 
BRANCH  13  14
ATOM     14  C   LIG    1        4.114  -2.390  -1.488  0.00  0.00    +0.174 C 
BRANCH  14  15
ATOM     15  O   LIG    1        5.083  -1.653  -2.236  0.00  0.00    -0.387 OA
ATOM     16  H   LIG    1        5.983  -1.720  -1.888  0.00  0.00    +0.210 HD
ENDBRANCH  14  15
BRANCH  14  17
ATOM     17  C   LIG    1        4.489  -3.873  -1.491  0.00  0.00    +0.253 C 
BRANCH  17  18
ATOM     18  O   LIG    1        3.520  -4.611  -0.743  0.00  0.00    -0.378 OA
ATOM     19  H   LIG    1        2.620  -4.543  -1.090  0.00  0.00    +0.211 HD
ENDBRANCH  17  18
BRANCH  17  20
ATOM     20  C   LIG    1        4.521  -4.381  -2.909  0.00  0.00    +0.336 C 
ATOM     21  O   LIG    1        3.727  -5.218  -3.269  0.00  0.00    -0.248 OA
BRANCH  20  22
ATOM     22  O   LIG    1        5.430  -3.902  -3.773  0.00  0.00    -0.479 OA
ATOM     23  H   LIG    1        6.045  -3.253  -3.493  0.00  0.00    +0.295 HD
ENDBRANCH  20  22
ENDBRANCH  17  20
ENDBRANCH  14  17
ENDBRANCH  13  14
ENDBRANCH   6  13
TORSDOF 8
