REMARK  Name = ZINC02040495
REMARK                            x       y       z     vdW  Elec       q    Type
REMARK                         _______ _______ _______ _____ _____    ______ ____
ROOT
ATOM      1  C   LIG    1        0.313   0.042   2.437  0.00  0.00    +0.140 C 
ATOM      2  C   LIG    1       -0.842  -0.507   3.252  0.00  0.00    +0.036 C 
ATOM      3  C   LIG    1       -0.764  -0.034   4.700  0.00  0.00    +0.038 C 
ATOM      4  C   LIG    1       -0.428   1.435   4.735  0.00  0.00    -0.032 A 
ATOM      5  C   LIG    1       -1.407   2.366   5.010  0.00  0.00    +0.054 A 
ATOM      6  C   LIG    1       -1.087   3.717   5.053  0.00  0.00    +0.165 A 
ATOM      7  C   LIG    1        0.218   4.138   4.822  0.00  0.00    +0.204 A 
ATOM      8  C   LIG    1        1.208   3.205   4.540  0.00  0.00    +0.173 A 
ATOM      9  C   LIG    1        0.876   1.847   4.491  0.00  0.00    +0.031 A 
ATOM     10  C   LIG    1        1.926   0.841   4.157  0.00  0.00    -0.009 A 
ATOM     11  C   LIG    1        3.112   0.923   4.866  0.00  0.00    +0.013 A 
ATOM     12  C   LIG    1        4.206   0.181   4.882  0.00  0.00    +0.055 A 
ATOM     13  C   LIG    1        4.495  -0.955   4.146  0.00  0.00    +0.220 A 
ATOM     14  O   LIG    1        5.570  -1.502   4.353  0.00  0.00    -0.284 OA
ATOM     15  C   LIG    1        3.660  -1.524   3.190  0.00  0.00    +0.164 A 
ATOM     16  C   LIG    1        2.445  -1.119   2.789  0.00  0.00    +0.055 A 
ATOM     17  C   LIG    1        1.635  -0.084   3.168  0.00  0.00    -0.012 A 
ENDROOT
BRANCH   1  20
ATOM     18  C   LIG    1       -0.427   1.301   0.072  0.00  0.00    +0.108 C 
ATOM     19  C   LIG    1        0.114  -0.105   0.062  0.00  0.00    +0.180 C 
ATOM     20  N   LIG    1        0.396  -0.696   1.173  0.00  0.00    -0.247 NA
BRANCH  19  21
ATOM     21  O   LIG    1        0.303  -0.747  -1.110  0.00  0.00    -0.496 OA
ATOM     22  H   LIG    1        0.064  -0.224  -1.888  0.00  0.00    +0.293 HD
ENDBRANCH  19  21
ENDBRANCH   1  20
BRANCH   6  23
ATOM     23  O   LIG    1       -2.055   4.633   5.322  0.00  0.00    -0.491 OA
ATOM     24  C   LIG    1       -3.375   4.134   5.550  0.00  0.00    +0.277 C 
ENDBRANCH   6  23
BRANCH   7  25
ATOM     25  O   LIG    1        0.525   5.463   4.871  0.00  0.00    -0.488 OA
ATOM     26  C   LIG    1        0.907   5.993   6.142  0.00  0.00    +0.277 C 
ENDBRANCH   7  25
BRANCH   8  27
ATOM     27  O   LIG    1        2.485   3.608   4.313  0.00  0.00    -0.491 OA
ATOM     28  C   LIG    1        2.811   4.012   2.981  0.00  0.00    +0.277 C 
ENDBRANCH   8  27
BRANCH  15  29
ATOM     29  O   LIG    1        4.139  -2.635   2.580  0.00  0.00    -0.503 OA
ATOM     30  H   LIG    1        5.016  -2.905   2.886  0.00  0.00    +0.292 HD
ENDBRANCH  15  29
TORSDOF 6
