REMARK  Name = ZINC01846592
REMARK                            x       y       z     vdW  Elec       q    Type
REMARK                         _______ _______ _______ _____ _____    ______ ____
ROOT
ATOM      1  C   LIG    1       -0.018   1.503   0.010  0.00  0.00    +0.046 C 
ATOM      2  C   LIG    1        0.002  -0.004   0.002  0.00  0.00    -0.019 A 
ATOM      3  C   LIG    1        0.006  -0.699  -1.211  0.00  0.00    -0.010 A 
ATOM      4  C   LIG    1       -0.009  -0.029  -2.451  0.00  0.00    +0.028 A 
ATOM      5  C   LIG    1       -0.004  -0.768  -3.594  0.00  0.00    +0.111 A 
ATOM      6  N   LIG    1        0.015  -2.095  -3.571  0.00  0.00    -0.263 NA
ATOM      7  C   LIG    1        0.029  -2.786  -2.456  0.00  0.00    +0.119 A 
ATOM      8  C   LIG    1        0.025  -2.120  -1.218  0.00  0.00    +0.004 A 
ATOM      9  C   LIG    1        0.040  -2.819  -0.004  0.00  0.00    -0.032 A 
ATOM     10  C   LIG    1        0.060  -4.326   0.003  0.00  0.00    +0.045 C 
ATOM     11  C   LIG    1        0.036  -2.117   1.186  0.00  0.00    +0.011 A 
ATOM     12  C   LIG    1        0.049  -2.539   2.601  0.00  0.00    +0.008 A 
ATOM     13  C   LIG    1        0.069  -3.782   3.227  0.00  0.00    +0.010 A 
ATOM     14  C   LIG    1        0.077  -3.855   4.605  0.00  0.00    +0.001 A 
ATOM     15  C   LIG    1        0.065  -2.696   5.365  0.00  0.00    +0.002 A 
ATOM     16  C   LIG    1        0.065  -1.459   4.756  0.00  0.00    +0.026 A 
ATOM     17  C   LIG    1        0.051  -1.365   3.368  0.00  0.00    +0.047 A 
ATOM     18  N   LIG    1        0.029  -0.277   2.511  0.00  0.00    -0.354 N 
ATOM     19  H   LIG    1        0.019   0.651   2.793  0.00  0.00    +0.166 HD
ATOM     20  C   LIG    1        0.023  -0.703   1.193  0.00  0.00    +0.051 A 
ENDROOT
TORSDOF 0
