REMARK  Name = ZINC02049688
REMARK                            x       y       z     vdW  Elec       q    Type
REMARK                         _______ _______ _______ _____ _____    ______ ____
ROOT
ATOM      1  C   LIG    1        1.317   3.981   0.265  0.00  0.00    +0.066 C 
ATOM      2  C   LIG    1        1.180   2.497   0.039  0.00  0.00    +0.053 C 
ATOM      3  C   LIG    1       -0.010   1.985  -0.398  0.00  0.00    +0.085 C 
ATOM      4  C   LIG    1       -0.106   0.492  -0.612  0.00  0.00    +0.162 C 
ATOM      5  N   LIG    1        1.113  -0.315  -0.328  0.00  0.00    -0.275 N 
ATOM      6  C   LIG    1        1.225  -1.644  -0.457  0.00  0.00    +0.268 A 
ATOM      7  C   LIG    1        2.516  -2.263  -0.127  0.00  0.00    +0.081 A 
ATOM      8  S   LIG    1        3.471  -0.831   0.350  0.00  0.00    -0.046 S 
ATOM      9  C   LIG    1        2.883  -3.570  -0.171  0.00  0.00    +0.028 C 
ATOM     10  O   LIG    1        0.284  -2.318  -0.835  0.00  0.00    -0.266 OA
ATOM     11  C   LIG    1        2.207   0.400   0.104  0.00  0.00    +0.178 A 
ATOM     12  N   LIG    1        2.215   1.699   0.266  0.00  0.00    -0.228 NA
ENDROOT
BRANCH   4  13
ATOM     13  C   LIG    1       -0.495   0.254  -2.048  0.00  0.00    -0.020 A 
ATOM     14  C   LIG    1        0.461   0.326  -3.044  0.00  0.00    +0.007 A 
ATOM     15  C   LIG    1        0.105   0.102  -4.361  0.00  0.00    +0.020 A 
ATOM     16  C   LIG    1       -1.210  -0.183  -4.684  0.00  0.00    +0.041 A 
ATOM     17 CL   LIG    1       -1.659  -0.457  -6.338  0.00  0.00    -0.084 Cl
ATOM     18  C   LIG    1       -2.167  -0.249  -3.687  0.00  0.00    +0.020 A 
ATOM     19  C   LIG    1       -1.810  -0.030  -2.370  0.00  0.00    +0.007 A 
ENDBRANCH   4  13
BRANCH   9  20
ATOM     20  C   LIG    1        4.286  -3.946   0.040  0.00  0.00    -0.024 A 
ATOM     21  C   LIG    1        5.307  -3.023  -0.217  0.00  0.00    +0.011 A 
ATOM     22  C   LIG    1        6.621  -3.379  -0.012  0.00  0.00    +0.046 A 
ATOM     23  C   LIG    1        6.936  -4.656   0.439  0.00  0.00    +0.121 A 
ATOM     24  C   LIG    1        5.926  -5.578   0.691  0.00  0.00    +0.046 A 
ATOM     25  C   LIG    1        4.609  -5.231   0.494  0.00  0.00    +0.011 A 
BRANCH  23  26
ATOM     26  O   LIG    1        8.233  -5.004   0.634  0.00  0.00    -0.481 OA
BRANCH  26  27
ATOM     27  C   LIG    1        9.220  -4.009   0.356  0.00  0.00    +0.349 C 
BRANCH  27  28
ATOM     28  C   LIG    1       10.592  -4.572   0.628  0.00  0.00    +0.343 C 
ATOM     29  O   LIG    1       10.711  -5.709   1.020  0.00  0.00    -0.247 OA
BRANCH  28  30
ATOM     30  O   LIG    1       11.680  -3.811   0.435  0.00  0.00    -0.478 OA
ATOM     31  H   LIG    1       11.587  -2.929   0.132  0.00  0.00    +0.295 HD
ENDBRANCH  28  30
ENDBRANCH  27  28
ENDBRANCH  26  27
ENDBRANCH  23  26
ENDBRANCH   9  20
BRANCH   3  32
ATOM     32  C   LIG    1       -1.109   2.823  -0.647  0.00  0.00    +0.339 C 
ATOM     33  O   LIG    1       -1.022   4.020  -0.439  0.00  0.00    -0.245 OA
BRANCH  32  34
ATOM     34  O   LIG    1       -2.264   2.302  -1.116  0.00  0.00    -0.459 OA
BRANCH  34  35
ATOM     35  C   LIG    1       -3.341   3.212  -1.347  0.00  0.00    +0.171 C 
ATOM     36  C   LIG    1       -4.184   3.336  -0.076  0.00  0.00    +0.052 C 
ATOM     37  C   LIG    1       -4.214   2.691  -2.490  0.00  0.00    +0.052 C 
ENDBRANCH  34  35
ENDBRANCH  32  34
ENDBRANCH   3  32
TORSDOF 9
