REMARK  Name = ZINC01677060
REMARK                            x       y       z     vdW  Elec       q    Type
REMARK                         _______ _______ _______ _____ _____    ______ ____
ROOT
ATOM      1  C   LIG    1       -0.013   1.086   0.008  0.00  0.00    +0.021 C 
ENDROOT
BRANCH   1   2
ATOM      2  C   LIG    1       -0.753   1.593  -1.232  0.00  0.00    +0.117 C 
BRANCH   2   6
ATOM      3  C   LIG    1        1.339   0.967  -4.241  0.00  0.00    +0.073 C 
ATOM      4  C   LIG    1        0.579  -0.140  -4.240  0.00  0.00    +0.073 C 
ATOM      5  C   LIG    1       -0.326  -0.036  -3.074  0.00  0.00    +0.246 C 
ATOM      6  N   LIG    1       -0.067   1.120  -2.437  0.00  0.00    -0.235 N 
ATOM      7  O   LIG    1       -1.161  -0.855  -2.747  0.00  0.00    -0.270 OA
ATOM      8  C   LIG    1        0.914   1.779  -3.079  0.00  0.00    +0.246 C 
ATOM      9  O   LIG    1        1.375   2.855  -2.759  0.00  0.00    -0.270 OA
ENDBRANCH   2   6
ENDBRANCH   1   2
BRANCH   1  10
ATOM     10  C   LIG    1       -0.729   1.579   1.267  0.00  0.00    +0.021 C 
BRANCH  10  11
ATOM     11  C   LIG    1        0.011   1.072   2.506  0.00  0.00    +0.117 C 
BRANCH  11  12
ATOM     12  N   LIG    1       -0.675   1.545   3.712  0.00  0.00    -0.235 N 
ATOM     13  C   LIG    1       -0.411   2.698   4.352  0.00  0.00    +0.246 C 
ATOM     14  C   LIG    1       -1.320   2.805   5.514  0.00  0.00    +0.073 C 
ATOM     15  C   LIG    1       -2.081   1.698   5.516  0.00  0.00    +0.073 C 
ATOM     16  O   LIG    1        0.428   3.514   4.029  0.00  0.00    -0.270 OA
ATOM     17  C   LIG    1       -1.660   0.889   4.351  0.00  0.00    +0.246 C 
ATOM     18  O   LIG    1       -2.125  -0.184   4.027  0.00  0.00    -0.270 OA
ENDBRANCH  11  12
ENDBRANCH  10  11
ENDBRANCH   1  10
TORSDOF 5
