REMARK  Name = ZINC01764809
REMARK                            x       y       z     vdW  Elec       q    Type
REMARK                         _______ _______ _______ _____ _____    ______ ____
ROOT
ATOM      1  C   LIG    1        1.167   3.171   0.008  0.00  0.00    +0.001 A 
ATOM      2  C   LIG    1        1.171   1.783   0.001  0.00  0.00    +0.004 A 
ATOM      3  C   LIG    1       -0.013   1.076   0.008  0.00  0.00    +0.047 A 
ATOM      4  C   LIG    1       -1.224   1.756   0.017  0.00  0.00    +0.139 A 
ATOM      5  C   LIG    1       -1.225   3.162   0.031  0.00  0.00    +0.021 A 
ATOM      6  C   LIG    1       -2.507   3.872   0.046  0.00  0.00    -0.019 A 
ATOM      7  C   LIG    1       -3.647   3.136   0.053  0.00  0.00    +0.096 A 
ATOM      8  C   LIG    1       -3.572   1.726   0.044  0.00  0.00    +0.337 A 
ATOM      9  O   LIG    1       -4.602   1.077   0.051  0.00  0.00    -0.245 OA
ATOM     10  O   LIG    1       -2.394   1.083   0.030  0.00  0.00    -0.422 OA
ATOM     11  C   LIG    1       -0.013   3.860   0.023  0.00  0.00    +0.012 A 
ENDROOT
BRANCH   6  12
ATOM     12  C   LIG    1       -2.558   5.378   0.056  0.00  0.00    +0.156 C 
BRANCH  12  13
ATOM     13  C   LIG    1       -2.464   5.892  -1.358  0.00  0.00    +0.309 C 
ATOM     14  O   LIG    1       -2.366   5.115  -2.278  0.00  0.00    -0.251 OA
BRANCH  13  15
ATOM     15  O   LIG    1       -2.489   7.213  -1.594  0.00  0.00    -0.480 OA
ATOM     16  H   LIG    1       -2.566   7.816  -0.881  0.00  0.00    +0.295 HD
ENDBRANCH  13  15
ENDBRANCH  12  13
ENDBRANCH   6  12
TORSDOF 3
