REMARK  Name = ZINC01668162
REMARK                            x       y       z     vdW  Elec       q    Type
REMARK                         _______ _______ _______ _____ _____    ______ ____
ROOT
ATOM      1  C   LIG    1        4.235   4.775  -1.456  0.00  0.00    +0.002 C 
ENDROOT
BRANCH   1   2
ATOM      2  C   LIG    1        2.886   4.052  -1.447  0.00  0.00    +0.015 C 
BRANCH   2   3
ATOM      3  C   LIG    1        2.450   3.804  -0.001  0.00  0.00    +0.084 C 
BRANCH   3   9
ATOM      4  C   LIG    1       -3.619   1.855   0.029  0.00  0.00    +0.000 C 
ATOM      5  C   LIG    1       -3.580   3.248   0.036  0.00  0.00    +0.000 C 
ATOM      6  C   LIG    1       -2.394   3.918   0.044  0.00  0.00    +0.005 C 
ATOM      7  C   LIG    1       -1.191   3.195   0.029  0.00  0.00    +0.006 C 
ATOM      8  C   LIG    1        0.061   3.831   0.021  0.00  0.00    +0.088 C 
ATOM      9  N   LIG    1        1.159   3.112   0.007  0.00  0.00    -0.302 NA
ATOM     10  C   LIG    1        1.149   1.786   0.001  0.00  0.00    +0.084 C 
ATOM     11  C   LIG    1       -0.013   1.076   0.008  0.00  0.00    +0.019 C 
ATOM     12  C   LIG    1       -1.232   1.777   0.018  0.00  0.00    -0.005 C 
ATOM     13  C   LIG    1       -2.472   1.121   0.020  0.00  0.00    +0.004 C 
ENDBRANCH   3   9
ENDBRANCH   2   3
ENDBRANCH   1   2
BRANCH   1  14
ATOM     14  C   LIG    1        4.671   5.023  -2.901  0.00  0.00    +0.015 C 
BRANCH  14  15
ATOM     15  C   LIG    1        6.020   5.746  -2.910  0.00  0.00    +0.084 C 
BRANCH  15  16
ATOM     16  N   LIG    1        6.437   5.983  -4.294  0.00  0.00    -0.302 NA
ATOM     17  C   LIG    1        6.069   7.112  -4.884  0.00  0.00    +0.084 C 
ATOM     18  C   LIG    1        6.419   7.401  -6.167  0.00  0.00    +0.019 C 
ATOM     19  C   LIG    1        7.195   6.469  -6.881  0.00  0.00    -0.005 C 
ATOM     20  C   LIG    1        7.597   6.690  -8.206  0.00  0.00    +0.004 C 
ATOM     21  C   LIG    1        8.348   5.749  -8.844  0.00  0.00    +0.000 C 
ATOM     22  C   LIG    1        8.722   4.571  -8.201  0.00  0.00    +0.000 C 
ATOM     23  C   LIG    1        8.349   4.324  -6.915  0.00  0.00    +0.005 C 
ATOM     24  C   LIG    1        7.575   5.270  -6.225  0.00  0.00    +0.006 C 
ATOM     25  C   LIG    1        7.165   5.072  -4.896  0.00  0.00    +0.088 C 
ENDBRANCH  15  16
ENDBRANCH  14  15
ENDBRANCH   1  14
TORSDOF 6
