REMARK  Name = ZINC02141803
REMARK                            x       y       z     vdW  Elec       q    Type
REMARK                         _______ _______ _______ _____ _____    ______ ____
ROOT
ATOM      1  N   LIG    1        0.425  -6.962   2.453  0.00  0.00    -0.219 N 
ATOM      2  C   LIG    1        1.615  -7.031   3.025  0.00  0.00    +0.261 C 
ATOM      3  C   LIG    1        1.684  -7.491   4.375  0.00  0.00    +0.083 C 
ATOM      4  S   LIG    1       -0.043  -7.797   4.720  0.00  0.00    -0.026 S 
ATOM      5  C   LIG    1        2.772  -7.652   5.183  0.00  0.00    +0.066 C 
ATOM      6  O   LIG    1        2.622  -6.712   2.419  0.00  0.00    -0.269 OA
ATOM      7  C   LIG    1       -0.693  -7.311   3.128  0.00  0.00    +0.286 C 
ATOM      8  O   LIG    1       -1.848  -7.299   2.747  0.00  0.00    -0.262 OA
ENDROOT
BRANCH   5   9
ATOM      9  C   LIG    1        2.608  -8.126   6.503  0.00  0.00    +0.130 A 
ATOM     10  C   LIG    1        3.618  -8.329   7.425  0.00  0.00    +0.050 A 
ATOM     11  C   LIG    1        3.010  -8.802   8.591  0.00  0.00    +0.050 A 
ATOM     12  C   LIG    1        1.667  -8.870   8.346  0.00  0.00    +0.136 A 
ATOM     13  O   LIG    1        1.436  -8.455   7.087  0.00  0.00    -0.455 OA
BRANCH  12  14
ATOM     14  C   LIG    1        0.640  -9.319   9.305  0.00  0.00    +0.021 A 
ATOM     15  C   LIG    1        0.806 -10.522   9.999  0.00  0.00    +0.012 A 
ATOM     16  C   LIG    1       -0.154 -10.943  10.897  0.00  0.00    +0.002 A 
ATOM     17  C   LIG    1       -1.284 -10.181  11.118  0.00  0.00    +0.015 A 
ATOM     18  C   LIG    1       -1.464  -8.976  10.432  0.00  0.00    +0.062 A 
ATOM     19  C   LIG    1       -0.496  -8.541   9.527  0.00  0.00    -0.026 A 
ATOM     20  C   LIG    1       -0.680  -7.241   8.788  0.00  0.00    +0.045 C 
BRANCH  18  21
ATOM     21  C   LIG    1       -2.673  -8.163  10.669  0.00  0.00    +0.337 C 
ATOM     22  O   LIG    1       -2.980  -7.842  11.808  0.00  0.00    -0.245 OA
BRANCH  21  23
ATOM     23  O   LIG    1       -3.368  -7.811   9.726  0.00  0.00    -0.477 OA
ATOM     24  H   LIG    1       -3.132  -8.058   8.853  0.00  0.00    +0.295 HD
ENDBRANCH  21  23
ENDBRANCH  18  21
ENDBRANCH  12  14
ENDBRANCH   5   9
BRANCH   1  25
ATOM     25  C   LIG    1        0.316  -6.494   1.069  0.00  0.00    +0.213 C 
BRANCH  25  28
ATOM     26  N   LIG    1        0.017  -4.343  -0.115  0.00  0.00    -0.284 N 
ATOM     27  H   LIG    1       -0.033  -4.841  -0.946  0.00  0.00    +0.155 HD
ATOM     28  C   LIG    1        0.140  -4.998   1.057  0.00  0.00    +0.235 C 
ATOM     29  O   LIG    1        0.109  -4.382   2.101  0.00  0.00    -0.274 OA
BRANCH  26  34
ATOM     30  C   LIG    1       -0.205   1.325  -0.189  0.00  0.00    +0.044 C 
ATOM     31  C   LIG    1       -0.146  -0.181  -0.169  0.00  0.00    -0.050 A 
ATOM     32  C   LIG    1        0.614  -0.829   0.786  0.00  0.00    +0.005 A 
ATOM     33  C   LIG    1        0.671  -2.209   0.807  0.00  0.00    +0.023 A 
ATOM     34  C   LIG    1       -0.038  -2.945  -0.133  0.00  0.00    +0.033 A 
ATOM     35  C   LIG    1       -0.801  -2.291  -1.091  0.00  0.00    +0.023 A 
ATOM     36  C   LIG    1       -0.857  -0.911  -1.104  0.00  0.00    +0.005 A 
ENDBRANCH  26  34
ENDBRANCH  25  28
ENDBRANCH   1  25
TORSDOF 7
