REMARK  Name = ZINC02171964
REMARK                            x       y       z     vdW  Elec       q    Type
REMARK                         _______ _______ _______ _____ _____    ______ ____
ROOT
ATOM      1  C   LIG    1       -2.606   0.038   2.246  0.00  0.00    +0.042 A 
ATOM      2  C   LIG    1       -3.907   0.328   2.635  0.00  0.00    -0.023 A 
ATOM      3  C   LIG    1       -4.781   0.910   1.738  0.00  0.00    +0.006 A 
ATOM      4  C   LIG    1       -4.362   1.204   0.454  0.00  0.00    +0.001 A 
ATOM      5  C   LIG    1       -3.066   0.921   0.065  0.00  0.00    +0.006 A 
ATOM      6  C   LIG    1       -2.188   0.335   0.955  0.00  0.00    -0.023 A 
ENDROOT
BRANCH   1  10
ATOM      7  N   LIG    1        0.355  -0.571   4.228  0.00  0.00    -0.299 N 
ATOM      8  H   LIG    1        0.130  -1.417   4.645  0.00  0.00    +0.150 HD
ATOM      9  C   LIG    1       -0.525   0.027   3.400  0.00  0.00    +0.304 C 
ATOM     10  N   LIG    1       -1.718  -0.551   3.153  0.00  0.00    -0.269 N 
ATOM     11  H   LIG    1       -1.960  -1.375   3.603  0.00  0.00    +0.156 HD
ATOM     12  O   LIG    1       -0.244   1.087   2.877  0.00  0.00    -0.253 OA
BRANCH   7  13
ATOM     13  C   LIG    1        1.651   0.057   4.497  0.00  0.00    +0.106 C 
BRANCH  13  14
ATOM     14  C   LIG    1        2.452  -0.821   5.460  0.00  0.00    +0.018 C 
BRANCH  14  16
ATOM     15  C   LIG    1        4.608  -1.042   6.704  0.00  0.00    +0.004 C 
ATOM     16  C   LIG    1        3.806  -0.165   5.741  0.00  0.00    -0.002 C 
ENDBRANCH  14  16
ENDBRANCH  13  14
ENDBRANCH   7  13
ENDBRANCH   1  10
BRANCH   2  17
ATOM     17  C   LIG    1       -4.364   0.008   4.035  0.00  0.00    +0.015 C 
ATOM     18  C   LIG    1       -5.495  -1.021   3.980  0.00  0.00    +0.012 C 
ATOM     19  C   LIG    1       -4.869   1.285   4.711  0.00  0.00    +0.012 C 
ENDBRANCH   2  17
BRANCH   6  20
ATOM     20  C   LIG    1       -0.777   0.022   0.529  0.00  0.00    +0.015 C 
ATOM     21  C   LIG    1       -0.136   1.275  -0.072  0.00  0.00    +0.012 C 
ATOM     22  C   LIG    1       -0.795  -1.093  -0.518  0.00  0.00    +0.012 C 
ENDBRANCH   6  20
TORSDOF 6
