REMARK  Name = ZINC02316758
REMARK                            x       y       z     vdW  Elec       q    Type
REMARK                         _______ _______ _______ _____ _____    ______ ____
ROOT
ATOM      1  N   LIG    1        4.152  -0.952   1.338  0.00  0.00    -0.307 N 
ATOM      2  C   LIG    1        4.932  -0.107   2.086  0.00  0.00    +0.122 A 
ATOM      3  C   LIG    1        5.159  -0.628   3.315  0.00  0.00    +0.074 A 
ATOM      4  C   LIG    1        4.499  -1.878   3.390  0.00  0.00    +0.110 A 
ATOM      5  N   LIG    1        4.379  -2.804   4.328  0.00  0.00    -0.242 NA
ATOM      6  C   LIG    1        3.655  -3.902   4.083  0.00  0.00    +0.090 A 
ATOM      7  C   LIG    1        3.514  -4.895   5.071  0.00  0.00    +0.030 A 
ATOM      8  C   LIG    1        2.781  -6.010   4.810  0.00  0.00    +0.002 A 
ATOM      9  C   LIG    1        2.163  -6.187   3.574  0.00  0.00    +0.002 A 
ATOM     10  C   LIG    1        2.276  -5.250   2.594  0.00  0.00    +0.030 A 
ATOM     11  C   LIG    1        3.026  -4.082   2.825  0.00  0.00    +0.092 A 
ATOM     12  N   LIG    1        3.142  -3.154   1.866  0.00  0.00    -0.226 NA
ATOM     13  C   LIG    1        3.844  -2.067   2.090  0.00  0.00    +0.162 A 
ENDROOT
BRANCH   2  14
ATOM     14  N   LIG    1        5.420   1.110   1.646  0.00  0.00    -0.201 N 
ATOM     15  H   LIG    1        5.212   1.423   0.736  0.00  0.00    +0.175 HD
BRANCH  14  16
ATOM     16  S   LIG    1        6.354   2.039   2.649  0.00  0.00    +0.073 S 
ATOM     17  O   LIG    1        7.561   1.321   2.862  0.00  0.00    -0.150 OA
ATOM     18  O   LIG    1        5.514   2.452   3.718  0.00  0.00    -0.150 OA
BRANCH  16  19
ATOM     19  C   LIG    1        6.785   3.496   1.757  0.00  0.00    +0.109 A 
ATOM     20  C   LIG    1        7.936   3.522   0.990  0.00  0.00    +0.029 A 
ATOM     21  C   LIG    1        8.274   4.665   0.290  0.00  0.00    +0.002 A 
ATOM     22  C   LIG    1        7.462   5.782   0.356  0.00  0.00    +0.000 A 
ATOM     23  C   LIG    1        6.312   5.756   1.122  0.00  0.00    +0.002 A 
ATOM     24  C   LIG    1        5.971   4.612   1.818  0.00  0.00    +0.029 A 
ENDBRANCH  16  19
ENDBRANCH  14  16
ENDBRANCH   2  14
BRANCH   1  25
ATOM     25  C   LIG    1        3.711  -0.707  -0.038  0.00  0.00    +0.160 C 
BRANCH  25  29
ATOM     26  C   LIG    1       -0.017   1.378   0.010  0.00  0.00    +0.000 A 
ATOM     27  C   LIG    1        1.171   2.086   0.002  0.00  0.00    +0.000 A 
ATOM     28  C   LIG    1        2.377   1.411  -0.013  0.00  0.00    +0.005 A 
ATOM     29  C   LIG    1        2.396   0.029  -0.020  0.00  0.00    -0.028 A 
ATOM     30  C   LIG    1        1.208  -0.679  -0.012  0.00  0.00    +0.005 A 
ATOM     31  C   LIG    1        0.002  -0.004   0.002  0.00  0.00    +0.000 A 
ENDBRANCH  25  29
ENDBRANCH   1  25
TORSDOF 5
