REMARK  Name = ZINC01706618
REMARK                            x       y       z     vdW  Elec       q    Type
REMARK                         _______ _______ _______ _____ _____    ______ ____
ROOT
ATOM      1  C   LIG    1       -2.881   0.603   1.456  0.00  0.00    +0.102 C 
ENDROOT
BRANCH   1   2
ATOM      2  C   LIG    1       -3.280   1.843   2.214  0.00  0.00    +0.308 C 
ATOM      3  O   LIG    1       -3.359   2.903   1.640  0.00  0.00    -0.251 OA
BRANCH   2   4
ATOM      4  O   LIG    1       -3.547   1.769   3.527  0.00  0.00    -0.480 OA
ATOM      5  H   LIG    1       -3.486   0.947   3.973  0.00  0.00    +0.295 HD
ENDBRANCH   2   4
ENDBRANCH   1   2
BRANCH   1   6
ATOM      6  C   LIG    1       -1.796   0.956   0.436  0.00  0.00    +0.049 C 
BRANCH   6  10
ATOM      7  C   LIG    1        1.751   2.151   2.494  0.00  0.00    +0.000 A 
ATOM      8  C   LIG    1        0.857   3.106   2.046  0.00  0.00    +0.000 A 
ATOM      9  C   LIG    1       -0.289   2.719   1.377  0.00  0.00    +0.003 A 
ATOM     10  C   LIG    1       -0.544   1.377   1.160  0.00  0.00    -0.047 A 
ATOM     11  C   LIG    1        0.353   0.423   1.603  0.00  0.00    +0.003 A 
ATOM     12  C   LIG    1        1.499   0.810   2.272  0.00  0.00    +0.000 A 
ENDBRANCH   6  10
ENDBRANCH   1   6
BRANCH   1  13
ATOM     13  C   LIG    1       -4.101   0.036   0.728  0.00  0.00    +0.026 C 
BRANCH  13  14
ATOM     14  C   LIG    1       -5.135  -0.432   1.754  0.00  0.00    +0.121 C 
BRANCH  14  15
ATOM     15  C   LIG    1       -6.337  -0.991   1.036  0.00  0.00    +0.305 C 
ATOM     16  O   LIG    1       -6.364  -1.012  -0.172  0.00  0.00    -0.251 OA
BRANCH  15  17
ATOM     17  O   LIG    1       -7.378  -1.465   1.739  0.00  0.00    -0.481 OA
ATOM     18  H   LIG    1       -7.357  -1.448   2.675  0.00  0.00    +0.295 HD
ENDBRANCH  15  17
ENDBRANCH  14  15
ENDBRANCH  13  14
ENDBRANCH   1  13
TORSDOF 8
