REMARK  Name = ZINC02008847
REMARK                            x       y       z     vdW  Elec       q    Type
REMARK                         _______ _______ _______ _____ _____    ______ ____
ROOT
ATOM      1  C   LIG    1       -4.750   2.251   1.052  0.00  0.00    +0.037 A 
ATOM      2  C   LIG    1       -6.100   2.261   0.726  0.00  0.00    +0.127 A 
ATOM      3  C   LIG    1       -6.572   3.047  -0.318  0.00  0.00    +0.092 A 
ATOM      4  C   LIG    1       -5.695   3.835  -1.043  0.00  0.00    +0.134 A 
ATOM      5  C   LIG    1       -4.331   3.834  -0.714  0.00  0.00    +0.101 A 
ATOM      6  C   LIG    1       -3.381   4.669  -1.458  0.00  0.00    +0.174 C 
ATOM      7  O   LIG    1       -3.754   5.537  -2.219  0.00  0.00    -0.292 OA
ATOM      8  C   LIG    1       -1.906   4.391  -1.226  0.00  0.00    +0.129 C 
ATOM      9  C   LIG    1       -1.725   4.117   0.274  0.00  0.00    +0.215 C 
ATOM     10  O   LIG    1       -2.539   3.007   0.653  0.00  0.00    -0.482 OA
ATOM     11  C   LIG    1       -3.856   3.030   0.339  0.00  0.00    +0.142 A 
ENDROOT
BRANCH   9  12
ATOM     12  C   LIG    1       -0.279   3.800   0.557  0.00  0.00    +0.035 A 
ATOM     13  C   LIG    1        0.144   2.486   0.597  0.00  0.00    +0.014 A 
ATOM     14  C   LIG    1        1.468   2.192   0.861  0.00  0.00    +0.046 A 
ATOM     15  C   LIG    1        2.378   3.217   1.076  0.00  0.00    +0.120 A 
ATOM     16  C   LIG    1        1.957   4.537   1.031  0.00  0.00    +0.091 A 
ATOM     17  C   LIG    1        0.627   4.829   0.771  0.00  0.00    +0.127 A 
BRANCH  15  18
ATOM     18  O   LIG    1        3.681   2.928   1.331  0.00  0.00    -0.507 OA
ATOM     19  H   LIG    1        4.234   2.870   0.540  0.00  0.00    +0.292 HD
ENDBRANCH  15  18
BRANCH  17  20
ATOM     20  O   LIG    1        0.210   6.122   0.726  0.00  0.00    -0.506 OA
ATOM     21  H   LIG    1        0.265   6.523  -0.152  0.00  0.00    +0.292 HD
ENDBRANCH  17  20
ENDBRANCH   9  12
BRANCH   2  22
ATOM     22  O   LIG    1       -6.967   1.494   1.434  0.00  0.00    -0.506 OA
ATOM     23  H   LIG    1       -7.146   0.632   1.034  0.00  0.00    +0.292 HD
ENDBRANCH   2  22
BRANCH   4  24
ATOM     24  O   LIG    1       -6.151   4.603  -2.064  0.00  0.00    -0.506 OA
ATOM     25  H   LIG    1       -6.148   4.158  -2.922  0.00  0.00    +0.292 HD
ENDBRANCH   4  24
BRANCH   1  26
ATOM     26  C   LIG    1       -4.257   1.390   2.187  0.00  0.00    +0.050 C 
BRANCH  26  27
ATOM     27  C   LIG    1       -4.445   2.135   3.510  0.00  0.00    +0.022 C 
BRANCH  27  28
ATOM     28  C   LIG    1       -3.538   3.337   3.543  0.00  0.00    -0.076 C 
ATOM     29  C   LIG    1       -2.042   3.154   3.559  0.00  0.00    +0.039 C 
ATOM     30  C   LIG    1       -4.049   4.543   3.558  0.00  0.00    +0.007 C 
ENDBRANCH  27  28
BRANCH  27  31
ATOM     31  C   LIG    1       -4.098   1.202   4.673  0.00  0.00    +0.035 C 
BRANCH  31  35
ATOM     32  C   LIG    1       -5.872   0.021   6.515  0.00  0.00    +0.038 C 
ATOM     33  C   LIG    1       -5.222   1.342   6.836  0.00  0.00    -0.080 C 
ATOM     34  C   LIG    1       -5.517   2.030   8.144  0.00  0.00    +0.038 C 
ATOM     35  C   LIG    1       -4.399   1.893   5.978  0.00  0.00    -0.028 C 
ENDBRANCH  31  35
ENDBRANCH  27  31
ENDBRANCH  26  27
ENDBRANCH   1  26
TORSDOF 10
