REMARK  Name = ZINC02040034
REMARK                            x       y       z     vdW  Elec       q    Type
REMARK                         _______ _______ _______ _____ _____    ______ ____
ROOT
ATOM      1  C   LIG    1       -3.160  -1.926   0.654  0.00  0.00    -0.091 C 
ATOM      2  N   LIG    1       -2.261  -2.630  -0.270  0.00  0.00    +0.388 N 
ATOM      3  C   LIG    1       -2.635  -2.311  -1.654  0.00  0.00    -0.091 C 
ENDROOT
BRANCH   2   4
ATOM      4  C   LIG    1       -2.373  -4.079  -0.054  0.00  0.00    +0.022 C 
BRANCH   4   5
ATOM      5  C   LIG    1       -3.795  -4.514  -0.297  0.00  0.00    +0.201 C 
ATOM      6  N   LIG    1       -4.154  -5.795  -0.080  0.00  0.00    -0.287 N 
ATOM      7  H   LIG    1       -3.515  -6.420   0.297  0.00  0.00    +0.155 HD
ATOM      8  O   LIG    1       -4.617  -3.712  -0.688  0.00  0.00    -0.278 OA
BRANCH   6   9
ATOM      9  C   LIG    1       -5.447  -6.223  -0.398  0.00  0.00    +0.033 A 
ATOM     10  C   LIG    1       -6.527  -5.369  -0.214  0.00  0.00    +0.023 A 
ATOM     11  C   LIG    1       -7.802  -5.792  -0.534  0.00  0.00    +0.002 A 
ATOM     12  C   LIG    1       -8.006  -7.068  -1.026  0.00  0.00    +0.000 A 
ATOM     13  C   LIG    1       -6.934  -7.923  -1.204  0.00  0.00    +0.002 A 
ATOM     14  C   LIG    1       -5.655  -7.504  -0.891  0.00  0.00    +0.023 A 
ENDBRANCH   6   9
ENDBRANCH   4   5
ENDBRANCH   2   4
BRANCH   2  15
ATOM     15  C   LIG    1       -0.877  -2.204  -0.026  0.00  0.00    +0.022 C 
BRANCH  15  16
ATOM     16  C   LIG    1       -0.757  -0.721  -0.267  0.00  0.00    +0.201 C 
ATOM     17  N   LIG    1        0.448  -0.122  -0.199  0.00  0.00    -0.287 N 
ATOM     18  H   LIG    1        1.247  -0.654  -0.062  0.00  0.00    +0.155 HD
ATOM     19  O   LIG    1       -1.746  -0.067  -0.523  0.00  0.00    -0.278 OA
BRANCH  17  20
ATOM     20  C   LIG    1        0.547   1.268  -0.327  0.00  0.00    +0.033 A 
ATOM     21  C   LIG    1       -0.300   1.949  -1.191  0.00  0.00    +0.023 A 
ATOM     22  C   LIG    1       -0.204   3.322  -1.310  0.00  0.00    +0.002 A 
ATOM     23  C   LIG    1        0.742   4.016  -0.578  0.00  0.00    +0.000 A 
ATOM     24  C   LIG    1        1.591   3.340   0.279  0.00  0.00    +0.002 A 
ATOM     25  C   LIG    1        1.496   1.968   0.407  0.00  0.00    +0.023 A 
ENDBRANCH  17  20
ENDBRANCH  15  16
ENDBRANCH   2  15
TORSDOF 6
