REMARK  Name = ZINC02380305
REMARK                            x       y       z     vdW  Elec       q    Type
REMARK                         _______ _______ _______ _____ _____    ______ ____
ROOT
ATOM      1  C   LIG    1       -0.742   1.585  -1.213  0.00  0.00    -0.064 A 
ATOM      2  C   LIG    1       -1.750   0.824  -1.774  0.00  0.00    +0.005 A 
ATOM      3  C   LIG    1       -2.423   1.282  -2.890  0.00  0.00    +0.046 A 
ATOM      4  C   LIG    1       -2.080   2.501  -3.454  0.00  0.00    +0.121 A 
ATOM      5  C   LIG    1       -1.064   3.261  -2.892  0.00  0.00    +0.046 A 
ATOM      6  C   LIG    1       -0.397   2.801  -1.773  0.00  0.00    +0.005 A 
ENDROOT
BRANCH   1   7
ATOM      7  C   LIG    1       -0.013   1.086   0.008  0.00  0.00    -0.046 C 
BRANCH   7   8
ATOM      8  N   LIG    1       -0.709   1.566   1.217  0.00  0.00    +0.384 N 
ATOM      9  H   LIG    1       -1.672   1.210   1.216  0.00  0.00    -0.085 HD
ATOM     10  H   LIG    1       -0.723   2.592   1.214  0.00  0.00    -0.085 HD
BRANCH   8  11
ATOM     11  C   LIG    1       -0.016   1.091   2.429  0.00  0.00    -0.046 C 
BRANCH  11  15
ATOM     12  C   LIG    1       -2.092   2.521   5.878  0.00  0.00    +0.000 A 
ATOM     13  C   LIG    1       -2.434   1.303   5.321  0.00  0.00    +0.000 A 
ATOM     14  C   LIG    1       -1.762   0.840   4.205  0.00  0.00    +0.002 A 
ATOM     15  C   LIG    1       -0.749   1.596   3.646  0.00  0.00    -0.064 A 
ATOM     16  C   LIG    1       -0.403   2.811   4.206  0.00  0.00    +0.002 A 
ATOM     17  C   LIG    1       -1.078   3.276   5.319  0.00  0.00    +0.000 A 
ENDBRANCH  11  15
ENDBRANCH   8  11
ENDBRANCH   7   8
ENDBRANCH   1   7
BRANCH   4  18
ATOM     18  O   LIG    1       -2.737   2.952  -4.555  0.00  0.00    -0.487 OA
BRANCH  18  19
ATOM     19  C   LIG    1       -3.772   2.117  -5.079  0.00  0.00    +0.264 C 
BRANCH  19  20
ATOM     20  C   LIG    1       -4.383   2.775  -6.289  0.00  0.00    -0.010 A 
ATOM     21  C   LIG    1       -5.466   3.622  -6.143  0.00  0.00    +0.007 A 
ATOM     22  C   LIG    1       -6.023   4.229  -7.253  0.00  0.00    +0.000 A 
ATOM     23  C   LIG    1       -5.504   3.982  -8.510  0.00  0.00    +0.000 A 
ATOM     24  C   LIG    1       -4.425   3.131  -8.657  0.00  0.00    +0.000 A 
ATOM     25  C   LIG    1       -3.864   2.527  -7.547  0.00  0.00    +0.007 A 
ENDBRANCH  19  20
ENDBRANCH  18  19
ENDBRANCH   4  18
TORSDOF 7
