REMARK  Name = ZINC02097863
REMARK                            x       y       z     vdW  Elec       q    Type
REMARK                         _______ _______ _______ _____ _____    ______ ____
ROOT
ATOM      1  C   LIG    1       -3.334  -1.974  -1.519  0.00  0.00    +0.128 A 
ATOM      2  C   LIG    1       -4.056  -2.398  -2.649  0.00  0.00    +0.140 A 
ATOM      3  C   LIG    1       -5.249  -3.111  -2.444  0.00  0.00    +0.167 A 
ATOM      4  N   LIG    1       -5.739  -3.396  -3.693  0.00  0.00    -0.286 N 
ATOM      5  C   LIG    1       -4.869  -2.872  -4.602  0.00  0.00    +0.203 A 
ATOM      6  N   LIG    1       -5.649  -3.357  -1.200  0.00  0.00    -0.216 NA
ATOM      7  C   LIG    1       -4.940  -2.940  -0.172  0.00  0.00    +0.224 A 
ATOM      8  N   LIG    1       -3.882  -2.287  -3.987  0.00  0.00    -0.231 NA
ATOM      9  N   LIG    1       -3.811  -2.271  -0.314  0.00  0.00    -0.227 NA
ENDROOT
BRANCH   4  10
ATOM     10  C1* LIG    1       -6.970  -4.130  -3.994  0.00  0.00    +0.253 C 
ATOM     11  C2* LIG    1       -8.179  -3.167  -4.012  0.00  0.00    +0.195 C 
ATOM     12  C3* LIG    1       -9.067  -3.701  -5.158  0.00  0.00    +0.178 C 
ATOM     13  C4* LIG    1       -8.290  -4.923  -5.697  0.00  0.00    +0.177 C 
ATOM     14  O4* LIG    1       -6.914  -4.680  -5.329  0.00  0.00    -0.346 OA
BRANCH  11  15
ATOM     15  O2* LIG    1       -8.878  -3.219  -2.767  0.00  0.00    -0.385 OA
ATOM     16  H2* LIG    1       -9.647  -2.634  -2.723  0.00  0.00    +0.210 HD
ENDBRANCH  11  15
BRANCH  12  17
ATOM     17  O3* LIG    1      -10.345  -4.098  -4.658  0.00  0.00    -0.386 OA
ATOM     18  H3* LIG    1      -10.944  -4.442  -5.335  0.00  0.00    +0.210 HD
ENDBRANCH  12  17
BRANCH  13  19
ATOM     19  C5* LIG    1       -8.429  -5.014  -7.218  0.00  0.00    +0.190 C 
BRANCH  19  20
ATOM     20  O5* LIG    1       -7.803  -6.211  -7.683  0.00  0.00    -0.392 OA
ATOM     21  H5* LIG    1       -7.853  -6.335  -8.641  0.00  0.00    +0.210 HD
ENDBRANCH  19  20
ENDBRANCH  13  19
ENDBRANCH   4  10
BRANCH   1  22
ATOM     22  S   LIG    1       -1.828  -1.075  -1.697  0.00  0.00    -0.099 S 
BRANCH  22  23
ATOM     23  C   LIG    1       -1.293  -0.775   0.010  0.00  0.00    +0.111 C 
BRANCH  23  29
ATOM     24  C   LIG    1       -0.017   1.378   0.010  0.00  0.00    +0.006 A 
ATOM     25  C   LIG    1        1.171   2.086   0.002  0.00  0.00    +0.033 A 
ATOM     26  C   LIG    1        2.377   1.411  -0.013  0.00  0.00    +0.122 A 
ATOM     27  C   LIG    1        2.396   0.029  -0.020  0.00  0.00    +0.033 A 
ATOM     28  C   LIG    1        1.208  -0.679  -0.012  0.00  0.00    +0.006 A 
ATOM     29  C   LIG    1        0.002  -0.004   0.002  0.00  0.00    -0.037 A 
BRANCH  26  30
ATOM     30  N   LIG    1        3.649   2.168  -0.022  0.00  0.00    +0.006 N 
ATOM     31  O   LIG    1        3.633   3.377  -0.016  0.00  0.00    -0.130 OA
BRANCH  30  32
ATOM     32  O   LIG    1        4.704   1.578  -0.035  0.00  0.00    -0.396 OA
ATOM     33  H   LIG    1        4.717   0.641  -0.040  0.00  0.00    +0.329 HD
ENDBRANCH  30  32
ENDBRANCH  26  30
ENDBRANCH  23  29
ENDBRANCH  22  23
ENDBRANCH   1  22
TORSDOF 10
