REMARK  Name = ZINC01891930
REMARK                            x       y       z     vdW  Elec       q    Type
REMARK                         _______ _______ _______ _____ _____    ______ ____
ROOT
ATOM      1  C   LIG    1       -2.957   0.492  -3.611  0.00  0.00    +0.080 A 
ATOM      2  C   LIG    1       -2.271   0.759  -2.438  0.00  0.00    +0.056 A 
ATOM      3  C   LIG    1       -2.794   0.347  -1.218  0.00  0.00    +0.071 A 
ATOM      4  C   LIG    1       -4.006  -0.345  -1.181  0.00  0.00    +0.068 A 
ATOM      5  N   LIG    1       -4.543  -0.770   0.032  0.00  0.00    -0.316 N 
ATOM      6  C   LIG    1       -3.889  -0.519   1.184  0.00  0.00    +0.314 A 
ATOM      7  C   LIG    1       -2.591   0.214   1.144  0.00  0.00    +0.317 A 
ATOM      8  O   LIG    1       -1.988   0.449   2.172  0.00  0.00    -0.262 OA
ATOM      9  O   LIG    1       -4.353  -0.888   2.245  0.00  0.00    -0.262 OA
ATOM     10  H   LIG    1       -5.413  -1.261   0.048  0.00  0.00    +0.169 HD
ATOM     11  C   LIG    1       -4.688  -0.609  -2.364  0.00  0.00    +0.062 A 
ATOM     12  N   LIG    1       -2.095   0.614  -0.044  0.00  0.00    -0.292 N 
ATOM     13  C   LIG    1       -4.167  -0.193  -3.571  0.00  0.00    +0.147 A 
ENDROOT
BRANCH   1  16
ATOM     14  C   LIG    1       -1.670   0.926  -6.887  0.00  0.00    +0.130 A 
ATOM     15  C   LIG    1       -2.155   0.119  -5.924  0.00  0.00    +0.112 A 
ATOM     16  N   LIG    1       -2.431   0.913  -4.842  0.00  0.00    -0.304 N 
ATOM     17  C   LIG    1       -2.094   2.183  -5.183  0.00  0.00    +0.204 A 
ATOM     18  N   LIG    1       -1.640   2.178  -6.407  0.00  0.00    -0.244 NA
ENDBRANCH   1  16
BRANCH  13  19
ATOM     19  N   LIG    1       -4.896  -0.476  -4.828  0.00  0.00    +0.008 N 
ATOM     20  O   LIG    1       -4.905   0.347  -5.726  0.00  0.00    -0.130 OA
BRANCH  19  21
ATOM     21  O   LIG    1       -5.489  -1.531  -4.963  0.00  0.00    -0.396 OA
ATOM     22  H   LIG    1       -5.483  -2.164  -4.273  0.00  0.00    +0.329 HD
ENDBRANCH  19  21
ENDBRANCH  13  19
BRANCH  12  23
ATOM     23  C   LIG    1       -0.821   1.336  -0.099  0.00  0.00    +0.245 C 
BRANCH  23  24
ATOM     24  C   LIG    1        0.309   0.349  -0.243  0.00  0.00    +0.325 C 
ATOM     25  O   LIG    1        0.075  -0.835  -0.294  0.00  0.00    -0.249 OA
BRANCH  24  26
ATOM     26  O   LIG    1        1.576   0.787  -0.320  0.00  0.00    -0.479 OA
ATOM     27  H   LIG    1        1.758   1.705  -0.280  0.00  0.00    +0.295 HD
ENDBRANCH  24  26
ENDBRANCH  23  24
ENDBRANCH  12  23
TORSDOF 6
