REMARK  Name = ZINC02015928
REMARK                            x       y       z     vdW  Elec       q    Type
REMARK                         _______ _______ _______ _____ _____    ______ ____
ROOT
ATOM      1  C   LIG    1       -0.202   1.514   0.336  0.00  0.00    +0.202 A 
ATOM      2  N   LIG    1        0.992   2.030   0.292  0.00  0.00    -0.231 NA
ATOM      3  C   LIG    1        1.898   1.051   0.049  0.00  0.00    +0.148 A 
ATOM      4  C   LIG    1        3.295   1.016  -0.101  0.00  0.00    +0.152 A 
ATOM      5  N   LIG    1        3.879  -0.152  -0.340  0.00  0.00    -0.198 NA
ATOM      6  C   LIG    1        3.167  -1.268  -0.438  0.00  0.00    +0.216 A 
ATOM      7  N   LIG    1        1.851  -1.279  -0.305  0.00  0.00    -0.195 NA
ATOM      8  C   LIG    1        1.186  -0.154  -0.063  0.00  0.00    +0.168 A 
ATOM      9  N   LIG    1       -0.135   0.168   0.122  0.00  0.00    -0.308 N 
ENDROOT
BRANCH   9  10
ATOM     10  C   LIG    1       -1.266  -0.763   0.095  0.00  0.00    +0.113 C 
ATOM     11  C   LIG    1       -1.881  -0.904   1.507  0.00  0.00    +0.039 C 
ATOM     12  C   LIG    1       -1.139  -2.152   2.040  0.00  0.00    +0.039 C 
ATOM     13  C   LIG    1       -0.725  -2.911   0.801  0.00  0.00    -0.023 C 
ATOM     14  C   LIG    1       -0.795  -2.153  -0.263  0.00  0.00    -0.006 C 
BRANCH  12  15
ATOM     15  C   LIG    1        0.092  -1.735   2.848  0.00  0.00    +0.163 C 
BRANCH  15  16
ATOM     16  O   LIG    1        0.701  -2.895   3.420  0.00  0.00    -0.394 OA
ATOM     17  H   LIG    1        1.489  -2.705   3.947  0.00  0.00    +0.209 HD
ENDBRANCH  15  16
ENDBRANCH  12  15
ENDBRANCH   9  10
BRANCH   6  18
ATOM     18  N   LIG    1        3.824  -2.461  -0.690  0.00  0.00    -0.327 N 
ATOM     19  H   LIG    1        3.320  -3.286  -0.765  0.00  0.00    +0.145 HD
ATOM     20  H   LIG    1        4.789  -2.471  -0.791  0.00  0.00    +0.145 HD
ENDBRANCH   6  18
BRANCH   4  21
ATOM     21  N   LIG    1        4.046   2.174  -0.000  0.00  0.00    -0.324 N 
ATOM     22  H   LIG    1        3.609   3.022   0.175  0.00  0.00    +0.148 HD
BRANCH  21  23
ATOM     23  C   LIG    1        5.502   2.119  -0.159  0.00  0.00    +0.072 C 
ATOM     24  C   LIG    1        6.161   3.204  -1.012  0.00  0.00    +0.024 C 
ATOM     25  C   LIG    1        6.327   3.221   0.509  0.00  0.00    +0.024 C 
ENDBRANCH  21  23
ENDBRANCH   4  21
TORSDOF 6
