REMARK  Name = ZINC02047514
REMARK                            x       y       z     vdW  Elec       q    Type
REMARK                         _______ _______ _______ _____ _____    ______ ____
ROOT
ATOM      1  C   LIG    1       -0.017   1.376   0.010  0.00  0.00    +0.001 A 
ATOM      2  C   LIG    1        1.172   2.086   0.002  0.00  0.00    +0.002 A 
ATOM      3  C   LIG    1        2.388   1.427  -0.013  0.00  0.00    +0.024 A 
ATOM      4  C   LIG    1        2.430   0.039  -0.021  0.00  0.00    +0.045 A 
ATOM      5  C   LIG    1        1.223  -0.678  -0.013  0.00  0.00    +0.048 A 
ATOM      6  C   LIG    1        1.583  -2.108  -0.024  0.00  0.00    +0.249 C 
ATOM      7  C   LIG    1        3.083  -2.126  -0.039  0.00  0.00    +0.289 C 
ATOM      8  O   LIG    1        3.788  -3.113  -0.051  0.00  0.00    -0.266 OA
ATOM      9  O   LIG    1        0.831  -3.061  -0.022  0.00  0.00    -0.282 OA
ATOM     10  N   LIG    1        3.502  -0.849  -0.036  0.00  0.00    -0.278 N 
ATOM     11  H   LIG    1        4.434  -0.581  -0.043  0.00  0.00    +0.155 HD
ATOM     12  C   LIG    1        0.002  -0.004   0.002  0.00  0.00    +0.014 A 
ENDROOT
TORSDOF 0
