REMARK  Name = ZINC01842633
REMARK                            x       y       z     vdW  Elec       q    Type
REMARK                         _______ _______ _______ _____ _____    ______ ____
ROOT
ATOM      1  C   LIG    1       -0.064  -0.817   3.572  0.00  0.00    +0.202 C 
ENDROOT
BRANCH   1   2
ATOM      2  C   LIG    1        0.548  -0.056   4.721  0.00  0.00    -0.007 A 
ATOM      3  C   LIG    1        0.331   1.304   4.842  0.00  0.00    +0.007 A 
ATOM      4  C   LIG    1        0.891   2.002   5.896  0.00  0.00    +0.000 A 
ATOM      5  C   LIG    1        1.669   1.339   6.828  0.00  0.00    +0.000 A 
ATOM      6  C   LIG    1        1.885  -0.021   6.707  0.00  0.00    +0.000 A 
ATOM      7  C   LIG    1        1.321  -0.719   5.655  0.00  0.00    +0.007 A 
ENDBRANCH   1   2
BRANCH   1   8
ATOM      8  O   LIG    1        0.025  -0.033   2.381  0.00  0.00    -0.484 OA
BRANCH   8  15
ATOM      9  C   LIG    1        0.094   1.487   0.001  0.00  0.00    +0.047 C 
ATOM     10  C   LIG    1        0.259  -0.011   0.013  0.00  0.00    -0.009 A 
ATOM     11  C   LIG    1        0.458  -0.694  -1.171  0.00  0.00    +0.007 A 
ATOM     12  C   LIG    1        0.609  -2.068  -1.160  0.00  0.00    +0.000 A 
ATOM     13  C   LIG    1        0.561  -2.762   0.035  0.00  0.00    +0.004 A 
ATOM     14  C   LIG    1        0.362  -2.084   1.221  0.00  0.00    +0.046 A 
ATOM     15  C   LIG    1        0.216  -0.704   1.214  0.00  0.00    +0.124 A 
ENDBRANCH   8  15
ENDBRANCH   1   8
BRANCH   1  16
ATOM     16  C   LIG    1       -1.533  -1.111   3.880  0.00  0.00    +0.030 C 
BRANCH  16  17
ATOM     17  C   LIG    1       -2.120  -1.990   2.773  0.00  0.00    -0.079 C 
BRANCH  17  18
ATOM     18  N   LIG    1       -3.531  -2.273   3.069  0.00  0.00    +0.377 N 
ATOM     19  H   LIG    1       -4.045  -1.405   3.119  0.00  0.00    -0.086 HD
ATOM     20  H   LIG    1       -3.599  -2.755   3.953  0.00  0.00    -0.086 HD
ATOM     21  C   LIG    1       -4.094  -3.116   2.007  0.00  0.00    -0.101 C 
ENDBRANCH  17  18
ENDBRANCH  16  17
ENDBRANCH   1  16
TORSDOF 6
