REMARK  Name = ZINC01690207
REMARK                            x       y       z     vdW  Elec       q    Type
REMARK                         _______ _______ _______ _____ _____    ______ ____
ROOT
ATOM      1  C   LIG    1       -2.182  -6.037  -0.008  0.00  0.00    +0.001 A 
ATOM      2  C   LIG    1       -2.994  -4.907   0.005  0.00  0.00    +0.001 A 
ATOM      3  C   LIG    1       -2.453  -3.657   0.007  0.00  0.00    +0.010 A 
ATOM      4  C   LIG    1       -1.058  -3.503  -0.006  0.00  0.00    +0.006 A 
ATOM      5  C   LIG    1       -0.231  -4.652  -0.020  0.00  0.00    -0.016 A 
ATOM      6  C   LIG    1        1.170  -4.506  -0.032  0.00  0.00    +0.009 A 
ATOM      7  C   LIG    1        1.727  -3.269  -0.031  0.00  0.00    +0.011 A 
ATOM      8  C   LIG    1        0.924  -2.116  -0.018  0.00  0.00    +0.008 A 
ATOM      9  C   LIG    1        1.235  -0.675  -0.013  0.00  0.00    +0.007 A 
ATOM     10  C   LIG    1        2.424   0.051  -0.021  0.00  0.00    +0.010 A 
ATOM     11  C   LIG    1        2.384   1.428  -0.013  0.00  0.00    +0.001 A 
ATOM     12  C   LIG    1        1.167   2.093   0.002  0.00  0.00    +0.002 A 
ATOM     13  C   LIG    1       -0.017   1.387   0.010  0.00  0.00    +0.026 A 
ATOM     14  C   LIG    1        0.002  -0.004   0.002  0.00  0.00    +0.047 A 
ATOM     15  N   LIG    1       -1.004  -0.951   0.006  0.00  0.00    -0.354 N 
ATOM     16  H   LIG    1       -1.953  -0.751   0.016  0.00  0.00    +0.166 HD
ATOM     17  C   LIG    1       -0.466  -2.220  -0.005  0.00  0.00    +0.055 A 
ATOM     18  C   LIG    1       -0.825  -5.925  -0.020  0.00  0.00    +0.008 A 
ENDROOT
TORSDOF 0
