REMARK  Name = ZINC01679484
REMARK                            x       y       z     vdW  Elec       q    Type
REMARK                         _______ _______ _______ _____ _____    ______ ____
ROOT
ATOM      1  C   LIG    1        3.227  -4.330  -5.639  0.00  0.00    +0.019 A 
ATOM      2  C   LIG    1        2.507  -4.522  -6.830  0.00  0.00    -0.010 A 
ATOM      3  C   LIG    1        1.115  -4.339  -6.878  0.00  0.00    +0.009 A 
ATOM      4  C   LIG    1        0.450  -4.535  -8.049  0.00  0.00    +0.001 A 
ATOM      5  C   LIG    1        1.129  -4.914  -9.205  0.00  0.00    +0.001 A 
ATOM      6  C   LIG    1        2.478  -5.101  -9.196  0.00  0.00    +0.008 A 
ATOM      7  C   LIG    1        3.199  -4.908  -8.006  0.00  0.00    -0.017 A 
ATOM      8  C   LIG    1        4.592  -5.091  -7.960  0.00  0.00    +0.012 A 
ATOM      9  C   LIG    1        5.259  -4.897  -6.791  0.00  0.00    +0.046 A 
ATOM     10  C   LIG    1        4.580  -4.511  -5.631  0.00  0.00    +0.122 A 
ENDROOT
BRANCH  10  11
ATOM     11  O   LIG    1        5.276  -4.319  -4.480  0.00  0.00    -0.506 OA
ATOM     12  H   LIG    1        5.362  -5.113  -3.935  0.00  0.00    +0.292 HD
ENDBRANCH  10  11
BRANCH   1  13
ATOM     13  C   LIG    1        2.510  -3.919  -4.379  0.00  0.00    +0.141 C 
BRANCH  13  14
ATOM     14  N   LIG    1        2.458  -2.457  -4.301  0.00  0.00    -0.340 N 
ATOM     15  H   LIG    1        2.853  -1.920  -5.005  0.00  0.00    +0.146 HD
BRANCH  14  19
ATOM     16  C   LIG    1        0.606  -0.608  -1.056  0.00  0.00    +0.120 A 
ATOM     17  C   LIG    1        1.173   0.162  -2.062  0.00  0.00    +0.047 A 
ATOM     18  C   LIG    1        1.786  -0.451  -3.137  0.00  0.00    +0.026 A 
ATOM     19  C   LIG    1        1.836  -1.836  -3.212  0.00  0.00    +0.028 A 
ATOM     20  C   LIG    1        1.269  -2.605  -2.204  0.00  0.00    +0.026 A 
ATOM     21  C   LIG    1        0.660  -1.992  -1.127  0.00  0.00    +0.047 A 
BRANCH  16  23
ATOM     22  C   LIG    1       -0.017   1.425   0.010  0.00  0.00    +0.277 C 
ATOM     23  O   LIG    1        0.002  -0.004   0.002  0.00  0.00    -0.495 OA
ENDBRANCH  16  23
ENDBRANCH  14  19
ENDBRANCH  13  14
ENDBRANCH   1  13
TORSDOF 5
