REMARK  Name = ZINC02059633
REMARK                            x       y       z     vdW  Elec       q    Type
REMARK                         _______ _______ _______ _____ _____    ______ ____
ROOT
ATOM      1  N   LIG    1       -0.697   1.972   1.219  0.00  0.00    -0.244 N 
ATOM      2  C   LIG    1       -0.028   1.438   0.032  0.00  0.00    +0.198 C 
ATOM      3  N   LIG    1       -0.697   1.916  -1.183  0.00  0.00    -0.321 N 
ATOM      4  H   LIG    1       -0.179   2.227  -1.942  0.00  0.00    +0.148 HD
ATOM      5  C   LIG    1       -2.083   1.916  -1.231  0.00  0.00    +0.041 A 
ATOM      6  C   LIG    1       -2.773   1.783  -2.425  0.00  0.00    +0.024 A 
ATOM      7  C   LIG    1       -4.154   1.816  -2.423  0.00  0.00    +0.002 A 
ATOM      8  C   LIG    1       -4.854   1.985  -1.239  0.00  0.00    +0.001 A 
ATOM      9  C   LIG    1       -4.182   2.115  -0.041  0.00  0.00    +0.015 A 
ATOM     10  C   LIG    1       -2.790   2.070  -0.026  0.00  0.00    +0.058 A 
ATOM     11  C   LIG    1       -2.026   2.199   1.227  0.00  0.00    +0.254 C 
ATOM     12  O   LIG    1       -2.588   2.508   2.260  0.00  0.00    -0.270 OA
ENDROOT
BRANCH   1  16
ATOM     13  C   LIG    1        1.543   2.802   4.631  0.00  0.00    -0.044 A 
ATOM     14  C   LIG    1        1.857   3.418   3.434  0.00  0.00    +0.006 A 
ATOM     15  C   LIG    1        1.116   3.145   2.300  0.00  0.00    +0.024 A 
ATOM     16  C   LIG    1        0.055   2.250   2.365  0.00  0.00    +0.039 A 
ATOM     17  C   LIG    1       -0.261   1.638   3.571  0.00  0.00    +0.024 A 
ATOM     18  C   LIG    1        0.487   1.911   4.699  0.00  0.00    +0.006 A 
BRANCH  13  19
ATOM     19  C   LIG    1        2.354   3.102   5.866  0.00  0.00    +0.016 C 
ATOM     20  C   LIG    1        1.442   3.689   6.945  0.00  0.00    +0.012 C 
BRANCH  19  22
ATOM     21  C   LIG    1        3.913   2.134   7.561  0.00  0.00    +0.004 C 
ATOM     22  C   LIG    1        2.991   1.811   6.384  0.00  0.00    +0.004 C 
ENDBRANCH  19  22
ENDBRANCH  13  19
ENDBRANCH   1  16
BRANCH   2  23
ATOM     23  C   LIG    1       -0.075  -0.068   0.068  0.00  0.00    -0.009 A 
ATOM     24  C   LIG    1       -0.091  -0.730   1.282  0.00  0.00    +0.010 A 
ATOM     25  C   LIG    1       -0.140  -2.110   1.317  0.00  0.00    +0.046 A 
ATOM     26  C   LIG    1       -0.161  -2.833   0.133  0.00  0.00    +0.120 A 
ATOM     27  C   LIG    1       -0.138  -2.167  -1.083  0.00  0.00    +0.046 A 
ATOM     28  C   LIG    1       -0.095  -0.786  -1.113  0.00  0.00    +0.010 A 
BRANCH  26  29
ATOM     29  O   LIG    1       -0.203  -4.190   0.166  0.00  0.00    -0.495 OA
ATOM     30  C   LIG    1       -0.225  -4.809   1.454  0.00  0.00    +0.277 C 
ENDBRANCH  26  29
ENDBRANCH   2  23
TORSDOF 5
