REMARK  Name = ZINC01892655
REMARK                            x       y       z     vdW  Elec       q    Type
REMARK                         _______ _______ _______ _____ _____    ______ ____
ROOT
ATOM      1  C   LIG    1        0.043   1.251   2.490  0.00  0.00    +0.128 A 
ATOM      2  C   LIG    1        1.161   0.516   2.840  0.00  0.00    +0.050 A 
ATOM      3  C   LIG    1        1.431   0.224   4.170  0.00  0.00    -0.035 A 
ATOM      4  C   LIG    1        0.582   0.674   5.163  0.00  0.00    -0.037 A 
ATOM      5  C   LIG    1        0.831   0.405   6.624  0.00  0.00    -0.010 C 
ATOM      6  C   LIG    1       -0.492   0.044   7.303  0.00  0.00    +0.016 C 
ATOM      7  C   LIG    1        1.405   1.663   7.279  0.00  0.00    +0.016 C 
ATOM      8  C   LIG    1        1.817  -0.748   6.798  0.00  0.00    +0.012 C 
ATOM      9  C   LIG    1        3.053  -0.460   5.938  0.00  0.00    +0.012 C 
ATOM     10  C   LIG    1       -0.543   1.409   4.830  0.00  0.00    +0.016 A 
ATOM     11  C   LIG    1        2.660  -0.595   4.468  0.00  0.00    -0.009 C 
ATOM     12  C   LIG    1        3.815  -0.108   3.591  0.00  0.00    +0.016 C 
ATOM     13  C   LIG    1        2.375  -2.065   4.155  0.00  0.00    +0.016 C 
ATOM     14  C   LIG    1       -0.824   1.710   3.495  0.00  0.00    +0.020 A 
ENDROOT
BRANCH  14  15
ATOM     15  C   LIG    1       -2.015   2.493   3.146  0.00  0.00    -0.040 C 
ATOM     16  C   LIG    1       -3.379   1.855   3.200  0.00  0.00    +0.044 C 
ATOM     17  C   LIG    1       -1.888   3.791   2.775  0.00  0.00    +0.004 C 
BRANCH  17  18
ATOM     18  C   LIG    1       -0.614   4.388   2.724  0.00  0.00    +0.001 C 
ATOM     19  C   LIG    1       -0.487   5.692   2.350  0.00  0.00    +0.003 C 
BRANCH  19  20
ATOM     20  C   LIG    1        0.785   6.287   2.299  0.00  0.00    -0.044 C 
ATOM     21  C   LIG    1        2.008   5.483   2.658  0.00  0.00    +0.044 C 
ATOM     22  C   LIG    1        0.912   7.591   1.926  0.00  0.00    +0.094 C 
BRANCH  22  23
ATOM     23  C   LIG    1        2.193   8.146   1.727  0.00  0.00    +0.330 C 
ATOM     24  O   LIG    1        3.180   7.434   1.781  0.00  0.00    -0.246 OA
BRANCH  23  25
ATOM     25  O   LIG    1        2.326   9.466   1.477  0.00  0.00    -0.478 OA
ATOM     26  H   LIG    1        1.567  10.014   1.436  0.00  0.00    +0.295 HD
ENDBRANCH  23  25
ENDBRANCH  22  23
ENDBRANCH  19  20
ENDBRANCH  17  18
ENDBRANCH  14  15
BRANCH   1  27
ATOM     27  O   LIG    1       -0.210   1.531   1.186  0.00  0.00    -0.491 OA
BRANCH  27  28
ATOM     28  C   LIG    1        0.721   1.034   0.222  0.00  0.00    +0.229 C 
BRANCH  28  30
ATOM     29  C   LIG    1        1.268   0.915  -2.212  0.00  0.00    +0.007 C 
ATOM     30  C   LIG    1        0.271   1.447  -1.181  0.00  0.00    +0.038 C 
ENDBRANCH  28  30
ENDBRANCH  27  28
ENDBRANCH   1  27
TORSDOF 8
