REMARK  Name = ZINC01712041
REMARK                            x       y       z     vdW  Elec       q    Type
REMARK                         _______ _______ _______ _____ _____    ______ ____
ROOT
ATOM      1  N   LIG    1        4.124  -0.938  -1.425  0.00  0.00    -0.277 N 
ATOM      2  C   LIG    1        3.719  -2.152  -2.111  0.00  0.00    +0.133 C 
ATOM      3  C   LIG    1        3.803  -1.983  -3.652  0.00  0.00    +0.196 C 
ATOM      4  S   LIG    1        5.082  -0.658  -3.721  0.00  0.00    +0.049 S 
ATOM      5  O   LIG    1        6.390  -1.210  -3.774  0.00  0.00    -0.165 OA
ATOM      6  O   LIG    1        4.684   0.394  -4.590  0.00  0.00    -0.165 OA
ATOM      7  C   LIG    1        4.883  -0.026  -2.063  0.00  0.00    +0.354 C 
ATOM      8  O   LIG    1        5.335   1.003  -1.609  0.00  0.00    -0.249 OA
ENDROOT
BRANCH   1   9
ATOM      9  C   LIG    1        3.711  -0.707  -0.039  0.00  0.00    +0.144 C 
BRANCH   9  13
ATOM     10  C   LIG    1       -0.017   1.378   0.010  0.00  0.00    +0.000 A 
ATOM     11  C   LIG    1        1.171   2.086   0.002  0.00  0.00    +0.000 A 
ATOM     12  C   LIG    1        2.377   1.411  -0.014  0.00  0.00    +0.005 A 
ATOM     13  C   LIG    1        2.396   0.029  -0.022  0.00  0.00    -0.030 A 
ATOM     14  C   LIG    1        1.208  -0.679  -0.014  0.00  0.00    +0.005 A 
ATOM     15  C   LIG    1        0.002  -0.004   0.002  0.00  0.00    +0.000 A 
ENDBRANCH   9  13
ENDBRANCH   1   9
TORSDOF 2
