REMARK  Name = ZINC01851108
REMARK                            x       y       z     vdW  Elec       q    Type
REMARK                         _______ _______ _______ _____ _____    ______ ____
ROOT
ATOM      1  C   LIG    1       -0.809   3.866   1.366  0.00  0.00    +0.129 A 
ATOM      2  C   LIG    1       -1.358   4.713   2.312  0.00  0.00    +0.085 A 
ATOM      3  N   LIG    1       -1.248   5.998   2.102  0.00  0.00    -0.194 NA
ATOM      4  S   LIG    1       -0.477   6.133   0.734  0.00  0.00    +0.117 S 
ATOM      5  N   LIG    1       -0.241   4.489   0.349  0.00  0.00    -0.184 NA
ENDROOT
BRANCH   2   6
ATOM      6  C   LIG    1       -2.051   4.175   3.538  0.00  0.00    +0.027 C 
ATOM      7  C   LIG    1       -1.335   4.678   4.794  0.00  0.00    -0.069 C 
ATOM      8  N   LIG    1       -2.259   5.473   5.632  0.00  0.00    +0.380 N 
ATOM      9  H   LIG    1       -1.756   5.798   6.466  0.00  0.00    -0.082 HD
ATOM     10  C   LIG    1       -2.744   6.647   4.875  0.00  0.00    -0.079 C 
ATOM     11  C   LIG    1       -3.499   6.200   3.620  0.00  0.00    -0.015 C 
ATOM     12  C   LIG    1       -3.403   4.638   6.056  0.00  0.00    -0.079 C 
ATOM     13  C   LIG    1       -4.178   4.133   4.835  0.00  0.00    -0.015 C 
ATOM     14  C   LIG    1       -3.503   4.667   3.565  0.00  0.00    -0.007 C 
ENDBRANCH   2   6
BRANCH   1  15
ATOM     15  S   LIG    1       -0.868   2.111   1.503  0.00  0.00    -0.103 S 
BRANCH  15  16
ATOM     16  C   LIG    1       -0.019   1.526   0.010  0.00  0.00    +0.076 C 
BRANCH  16  17
ATOM     17  C   LIG    1        0.002  -0.004   0.002  0.00  0.00    +0.011 C 
BRANCH  17  19
ATOM     18  C   LIG    1        0.739  -2.027  -1.265  0.00  0.00    +0.004 C 
ATOM     19  C   LIG    1        0.718  -0.497  -1.257  0.00  0.00    -0.003 C 
ENDBRANCH  17  19
ENDBRANCH  16  17
ENDBRANCH  15  16
ENDBRANCH   1  15
TORSDOF 5
