REMARK  Name = ZINC02041733
REMARK                            x       y       z     vdW  Elec       q    Type
REMARK                         _______ _______ _______ _____ _____    ______ ____
ROOT
ATOM      1  C   LIG    1       -1.412  -0.526   0.013  0.00  0.00    +0.000 A 
ATOM      2  C   LIG    1       -2.187  -0.148   1.106  0.00  0.00    +0.007 A 
ATOM      3  C   LIG    1       -3.499  -0.465   1.389  0.00  0.00    +0.001 A 
ATOM      4  C   LIG    1       -4.390  -1.246   0.656  0.00  0.00    +0.004 A 
ATOM      5  C   LIG    1       -4.183  -1.899  -0.538  0.00  0.00    +0.054 A 
ATOM      6  C   LIG    1       -3.015  -1.940  -1.320  0.00  0.00    +0.220 A 
ATOM      7  O   LIG    1       -3.084  -2.596  -2.350  0.00  0.00    -0.284 OA
ATOM      8  C   LIG    1       -1.769  -1.312  -1.067  0.00  0.00    +0.167 A 
ENDROOT
BRANCH   1  10
ATOM      9  C   LIG    1       -0.019   1.526   0.010  0.00  0.00    +0.012 C 
ATOM     10  C   LIG    1        0.002  -0.004   0.002  0.00  0.00    +0.017 C 
ATOM     11  C   LIG    1        0.742  -0.511   1.242  0.00  0.00    +0.012 C 
ENDBRANCH   1  10
BRANCH   8  12
ATOM     12  O   LIG    1       -0.805  -1.514  -1.996  0.00  0.00    -0.503 OA
ATOM     13  H   LIG    1       -1.084  -2.067  -2.739  0.00  0.00    +0.292 HD
ENDBRANCH   8  12
TORSDOF 2
