REMARK  Name = ZINC02043204
REMARK                            x       y       z     vdW  Elec       q    Type
REMARK                         _______ _______ _______ _____ _____    ______ ____
ROOT
ATOM      1  N   LIG    1        1.706  -2.933  -1.517  0.00  0.00    -0.192 NA
ATOM      2  H   LIG    1        1.068  -3.264  -2.168  0.00  0.00    +0.148 HD
ENDROOT
BRANCH   1   3
ATOM      3  S   LIG    1        1.214  -2.594   0.027  0.00  0.00    +0.059 S 
ATOM      4  O   LIG    1       -0.186  -2.833   0.068  0.00  0.00    -0.153 OA
ATOM      5  O   LIG    1        2.124  -3.252   0.897  0.00  0.00    -0.153 OA
BRANCH   3  14
ATOM      6  C   LIG    1        2.516   0.950   1.417  0.00  0.00    +0.003 A 
ATOM      7  C   LIG    1        1.818   1.875   0.703  0.00  0.00    +0.010 A 
ATOM      8  C   LIG    1        0.892   1.450  -0.263  0.00  0.00    +0.002 A 
ATOM      9  C   LIG    1        0.144   2.357  -1.030  0.00  0.00    +0.119 A 
ATOM     10  N   LIG    1       -0.710   1.911  -1.921  0.00  0.00    -0.263 NA
ATOM     11  C   LIG    1       -0.908   0.618  -2.142  0.00  0.00    +0.111 A 
ATOM     12  C   LIG    1       -0.233  -0.341  -1.450  0.00  0.00    +0.030 A 
ATOM     13  C   LIG    1        0.701   0.059  -0.477  0.00  0.00    +0.011 A 
ATOM     14  C   LIG    1        1.437  -0.865   0.277  0.00  0.00    +0.113 A 
ATOM     15  C   LIG    1        2.327  -0.415   1.206  0.00  0.00    +0.029 A 
ENDBRANCH   3  14
ENDBRANCH   1   3
BRANCH   1  16
ATOM     16  C   LIG    1        3.106  -2.733  -1.900  0.00  0.00    +0.087 C 
BRANCH  16  17
ATOM     17  C   LIG    1        3.389  -3.477  -3.207  0.00  0.00    -0.065 C 
BRANCH  17  18
ATOM     18  N   LIG    1        4.793  -3.276  -3.591  0.00  0.00    +0.382 N 
ATOM     19  H   LIG    1        5.395  -3.632  -2.863  0.00  0.00    -0.085 HD
ATOM     20  H   LIG    1        4.968  -2.291  -3.720  0.00  0.00    -0.085 HD
BRANCH  18  21
ATOM     21  C   LIG    1        5.065  -3.990  -4.845  0.00  0.00    -0.055 C 
BRANCH  21  22
ATOM     22  C   LIG    1        6.505  -3.784  -5.239  0.00  0.00    -0.045 C 
ATOM     23  C   LIG    1        7.288  -4.830  -5.459  0.00  0.00    +0.002 C 
BRANCH  23  24
ATOM     24  C   LIG    1        8.700  -4.628  -5.845  0.00  0.00    -0.025 A 
ATOM     25  C   LIG    1        9.213  -3.337  -5.973  0.00  0.00    +0.009 A 
ATOM     26  C   LIG    1       10.532  -3.154  -6.334  0.00  0.00    +0.016 A 
ATOM     27  C   LIG    1       11.347  -4.249  -6.568  0.00  0.00    +0.018 A 
ATOM     28 BR   LIG    1       13.153  -3.990  -7.063  0.00  0.00    -0.050 Br
ATOM     29  C   LIG    1       10.844  -5.532  -6.442  0.00  0.00    +0.016 A 
ATOM     30  C   LIG    1        9.528  -5.728  -6.077  0.00  0.00    +0.009 A 
ENDBRANCH  23  24
ENDBRANCH  21  22
ENDBRANCH  18  21
ENDBRANCH  17  18
ENDBRANCH  16  17
ENDBRANCH   1  16
TORSDOF 8
