REMARK  Name = ZINC02276490
REMARK                            x       y       z     vdW  Elec       q    Type
REMARK                         _______ _______ _______ _____ _____    ______ ____
ROOT
ATOM      1  C   LIG    1        3.306  -5.042  -1.580  0.00  0.00    +0.080 C 
ENDROOT
BRANCH   1   2
ATOM      2  S   LIG    1        2.132  -3.668  -1.740  0.00  0.00    -0.152 S 
BRANCH   2   3
ATOM      3  C   LIG    1        1.748  -3.219  -0.025  0.00  0.00    +0.143 C 
BRANCH   3   8
ATOM      4  C   LIG    1       -0.018   1.503   0.010  0.00  0.00    +0.087 C 
ATOM      5  C   LIG    1        0.002  -0.004   0.002  0.00  0.00    +0.116 A 
ATOM      6  C   LIG    1       -1.095  -0.819   0.003  0.00  0.00    +0.100 A 
ATOM      7  C   LIG    1       -0.567  -2.192  -0.008  0.00  0.00    +0.060 A 
ATOM      8  C   LIG    1        0.769  -2.073  -0.014  0.00  0.00    +0.116 A 
ATOM      9  O   LIG    1        1.095  -0.771  -0.013  0.00  0.00    -0.463 OA
BRANCH   6  10
ATOM     10  C   LIG    1       -2.506  -0.409   0.012  0.00  0.00    +0.340 C 
ATOM     11  O   LIG    1       -3.389  -1.257   0.011  0.00  0.00    -0.245 OA
BRANCH  10  12
ATOM     12  O   LIG    1       -2.799   0.779   0.021  0.00  0.00    -0.477 OA
ATOM     13  H   LIG    1       -2.123   1.428   0.021  0.00  0.00    +0.295 HD
ENDBRANCH  10  12
ENDBRANCH   6  10
ENDBRANCH   3   8
ENDBRANCH   2   3
ENDBRANCH   1   2
BRANCH   1  14
ATOM     14  C   LIG    1        3.718  -5.525  -2.972  0.00  0.00    +0.080 C 
BRANCH  14  15
ATOM     15  S   LIG    1        4.892  -6.899  -2.813  0.00  0.00    -0.152 S 
BRANCH  15  16
ATOM     16  C   LIG    1        5.277  -7.349  -4.528  0.00  0.00    +0.143 C 
BRANCH  16  17
ATOM     17  C   LIG    1        6.256  -8.494  -4.539  0.00  0.00    +0.116 A 
ATOM     18  C   LIG    1        5.929  -9.795  -4.550  0.00  0.00    +0.060 A 
ATOM     19  C   LIG    1        7.203 -10.531  -4.559  0.00  0.00    +0.100 A 
ATOM     20  C   LIG    1        8.179  -9.575  -4.551  0.00  0.00    +0.116 A 
ATOM     21  C   LIG    1        9.665  -9.830  -4.556  0.00  0.00    +0.087 C 
ATOM     22  O   LIG    1        7.593  -8.375  -4.545  0.00  0.00    -0.463 OA
BRANCH  19  23
ATOM     23  C   LIG    1        7.387 -11.989  -4.571  0.00  0.00    +0.340 C 
ATOM     24  O   LIG    1        6.413 -12.729  -4.576  0.00  0.00    -0.245 OA
BRANCH  23  25
ATOM     25  O   LIG    1        8.515 -12.463  -4.577  0.00  0.00    -0.477 OA
ATOM     26  H   LIG    1        9.262 -11.897  -4.573  0.00  0.00    +0.295 HD
ENDBRANCH  23  25
ENDBRANCH  19  23
ENDBRANCH  16  17
ENDBRANCH  15  16
ENDBRANCH  14  15
ENDBRANCH   1  14
TORSDOF 11
