REMARK  Name = ZINC02040495
REMARK                            x       y       z     vdW  Elec       q    Type
REMARK                         _______ _______ _______ _____ _____    ______ ____
ROOT
ATOM      1  C   LIG    1        2.285   0.204  -0.265  0.00  0.00    +0.140 C 
ATOM      2  C   LIG    1        3.177  -0.364   0.820  0.00  0.00    +0.036 C 
ATOM      3  C   LIG    1        4.622   0.091   0.637  0.00  0.00    +0.038 C 
ATOM      4  C   LIG    1        4.654   1.562   0.314  0.00  0.00    -0.032 A 
ATOM      5  C   LIG    1        5.018   2.477   1.280  0.00  0.00    +0.054 A 
ATOM      6  C   LIG    1        5.057   3.831   0.976  0.00  0.00    +0.165 A 
ATOM      7  C   LIG    1        4.732   4.274  -0.301  0.00  0.00    +0.204 A 
ATOM      8  C   LIG    1        4.361   3.359  -1.278  0.00  0.00    +0.173 A 
ATOM      9  C   LIG    1        4.318   1.998  -0.963  0.00  0.00    +0.031 A 
ATOM     10  C   LIG    1        3.894   1.012  -2.001  0.00  0.00    -0.009 A 
ATOM     11  C   LIG    1        4.497   1.110  -3.229  0.00  0.00    +0.012 A 
ATOM     12  C   LIG    1        4.394   0.382  -4.358  0.00  0.00    +0.050 A 
ATOM     13  C   LIG    1        3.642  -0.726  -4.592  0.00  0.00    +0.164 A 
ATOM     14  C   LIG    1        2.798  -1.337  -3.672  0.00  0.00    +0.220 A 
ATOM     15  O   LIG    1        2.262  -2.372  -4.046  0.00  0.00    -0.284 OA
ATOM     16  C   LIG    1        2.488  -0.934  -2.403  0.00  0.00    +0.061 A 
ATOM     17  C   LIG    1        2.920   0.081  -1.635  0.00  0.00    -0.011 A 
ENDROOT
BRANCH   1  20
ATOM     18  C   LIG    1        0.028   1.422   0.809  0.00  0.00    +0.108 C 
ATOM     19  C   LIG    1       -0.058   0.059   0.172  0.00  0.00    +0.180 C 
ATOM     20  N   LIG    1        1.010  -0.518  -0.263  0.00  0.00    -0.247 NA
BRANCH  19  21
ATOM     21  O   LIG    1       -1.253  -0.557   0.057  0.00  0.00    -0.496 OA
ATOM     22  H   LIG    1       -1.208  -1.426  -0.364  0.00  0.00    +0.293 HD
ENDBRANCH  19  21
ENDBRANCH   1  20
BRANCH   6  23
ATOM     23  O   LIG    1        5.415   4.729   1.932  0.00  0.00    -0.491 OA
ATOM     24  C   LIG    1        5.737   4.208   3.223  0.00  0.00    +0.277 C 
ENDBRANCH   6  23
BRANCH   7  25
ATOM     25  O   LIG    1        4.777   5.603  -0.594  0.00  0.00    -0.488 OA
ATOM     26  C   LIG    1        6.038   6.134  -1.004  0.00  0.00    +0.277 C 
ENDBRANCH   7  25
BRANCH   8  27
ATOM     27  O   LIG    1        4.042   3.784  -2.529  0.00  0.00    -0.491 OA
ATOM     28  C   LIG    1        2.691   4.195  -2.750  0.00  0.00    +0.277 C 
ENDBRANCH   8  27
BRANCH  13  29
ATOM     29  O   LIG    1        3.722  -1.282  -5.826  0.00  0.00    -0.503 OA
ATOM     30  H   LIG    1        4.322  -0.820  -6.428  0.00  0.00    +0.292 HD
ENDBRANCH  13  29
TORSDOF 6
