REMARK  Name = ZINC02302986
REMARK                            x       y       z     vdW  Elec       q    Type
REMARK                         _______ _______ _______ _____ _____    ______ ____
ROOT
ATOM      1  N   LIG    1        4.152  -0.952   1.338  0.00  0.00    -0.306 N 
ATOM      2  C   LIG    1        4.937  -0.091   2.075  0.00  0.00    +0.163 A 
ATOM      3  C   LIG    1        5.141  -0.714   3.386  0.00  0.00    +0.128 A 
ATOM      4  N   LIG    1        5.864  -0.103   4.305  0.00  0.00    -0.241 NA
ATOM      5  C   LIG    1        6.409   1.088   4.031  0.00  0.00    +0.090 A 
ATOM      6  C   LIG    1        7.184   1.755   4.999  0.00  0.00    +0.030 A 
ATOM      7  C   LIG    1        7.733   2.965   4.710  0.00  0.00    +0.002 A 
ATOM      8  C   LIG    1        7.540   3.559   3.464  0.00  0.00    +0.002 A 
ATOM      9  C   LIG    1        6.798   2.945   2.503  0.00  0.00    +0.030 A 
ATOM     10  C   LIG    1        6.213   1.692   2.764  0.00  0.00    +0.092 A 
ATOM     11  C   LIG    1        4.411  -1.990   3.329  0.00  0.00    +0.120 A 
ATOM     12  N   LIG    1        5.481   1.081   1.824  0.00  0.00    -0.226 NA
ATOM     13  C   LIG    1        3.837  -2.060   2.066  0.00  0.00    +0.140 A 
ENDROOT
BRANCH  11  14
ATOM     14  C   LIG    1        4.309  -2.966   4.372  0.00  0.00    +0.105 C 
ATOM     15  N   LIG    1        4.228  -3.740   5.200  0.00  0.00    -0.191 NA
ENDBRANCH  11  14
BRANCH  13  16
ATOM     16  N   LIG    1        3.064  -3.100   1.614  0.00  0.00    -0.200 N 
ATOM     17  H   LIG    1        2.693  -3.078   0.703  0.00  0.00    +0.175 HD
BRANCH  16  18
ATOM     18  S   LIG    1        2.756  -4.392   2.603  0.00  0.00    +0.073 S 
ATOM     19  O   LIG    1        1.959  -3.904   3.673  0.00  0.00    -0.150 OA
ATOM     20  O   LIG    1        3.999  -5.047   2.815  0.00  0.00    -0.150 OA
BRANCH  18  21
ATOM     21  C   LIG    1        1.745  -5.513   1.694  0.00  0.00    +0.109 A 
ATOM     22  C   LIG    1        0.368  -5.400   1.745  0.00  0.00    +0.029 A 
ATOM     23  C   LIG    1       -0.425  -6.280   1.032  0.00  0.00    +0.002 A 
ATOM     24  C   LIG    1        0.159  -7.272   0.268  0.00  0.00    +0.000 A 
ATOM     25  C   LIG    1        1.536  -7.385   0.215  0.00  0.00    +0.002 A 
ATOM     26  C   LIG    1        2.329  -6.503   0.925  0.00  0.00    +0.029 A 
ENDBRANCH  18  21
ENDBRANCH  16  18
ENDBRANCH  13  16
BRANCH   1  27
ATOM     27  C   LIG    1        3.711  -0.707  -0.038  0.00  0.00    +0.160 C 
BRANCH  27  31
ATOM     28  C   LIG    1       -0.017   1.378   0.010  0.00  0.00    +0.000 A 
ATOM     29  C   LIG    1        1.171   2.086   0.002  0.00  0.00    +0.000 A 
ATOM     30  C   LIG    1        2.377   1.411  -0.013  0.00  0.00    +0.005 A 
ATOM     31  C   LIG    1        2.396   0.029  -0.020  0.00  0.00    -0.028 A 
ATOM     32  C   LIG    1        1.208  -0.679  -0.012  0.00  0.00    +0.005 A 
ATOM     33  C   LIG    1        0.002  -0.004   0.002  0.00  0.00    +0.000 A 
ENDBRANCH  27  31
ENDBRANCH   1  27
TORSDOF 6
