REMARK  Name = ZINC02009579
REMARK                            x       y       z     vdW  Elec       q    Type
REMARK                         _______ _______ _______ _____ _____    ______ ____
ROOT
ATOM      1  C   LIG    1        0.162   0.960  -4.895  0.00  0.00    +0.131 C 
ENDROOT
BRANCH   1   2
ATOM      2  C   LIG    1       -0.567   1.459  -6.115  0.00  0.00    -0.035 A 
ATOM      3  C   LIG    1       -1.575   0.698  -6.676  0.00  0.00    +0.008 A 
ATOM      4  C   LIG    1       -2.251   1.154  -7.793  0.00  0.00    +0.050 A 
ATOM      5  C   LIG    1       -1.910   2.372  -8.359  0.00  0.00    +0.162 A 
ATOM      6  C   LIG    1       -0.891   3.136  -7.798  0.00  0.00    +0.162 A 
ATOM      7  C   LIG    1       -0.222   2.675  -6.675  0.00  0.00    +0.053 A 
BRANCH   6   8
ATOM      8  O   LIG    1       -0.554   4.332  -8.350  0.00  0.00    -0.491 OA
ATOM      9  C   LIG    1        0.501   5.062  -7.720  0.00  0.00    +0.277 C 
ENDBRANCH   6   8
BRANCH   5  10
ATOM     10  O   LIG    1       -2.569   2.819  -9.461  0.00  0.00    -0.490 OA
BRANCH  10  11
ATOM     11  C   LIG    1       -3.603   1.982  -9.983  0.00  0.00    +0.210 C 
BRANCH  11  12
ATOM     12  C   LIG    1       -4.226   2.647 -11.213  0.00  0.00    -0.045 C 
BRANCH  12  13
ATOM     13  N   LIG    1       -3.205   2.751 -12.270  0.00  0.00    +0.380 N 
ATOM     14  H   LIG    1       -2.433   3.341 -11.937  0.00  0.00    -0.090 HD
ATOM     15  H   LIG    1       -3.609   3.172 -13.105  0.00  0.00    -0.090 HD
ATOM     16  H   LIG    1       -2.842   1.827 -12.498  0.00  0.00    -0.090 HD
ENDBRANCH  12  13
ENDBRANCH  11  12
ENDBRANCH  10  11
ENDBRANCH   5  10
ENDBRANCH   1   2
BRANCH   1  19
ATOM     17  N   LIG    1       -0.067   1.120  -2.437  0.00  0.00    -0.315 N 
ATOM     18  H   LIG    1        0.730   0.573  -2.358  0.00  0.00    +0.149 HD
ATOM     19  C   LIG    1       -0.543   1.446  -3.655  0.00  0.00    +0.217 C 
ATOM     20  O   LIG    1       -1.540   2.130  -3.753  0.00  0.00    -0.275 OA
BRANCH  17  21
ATOM     21  C   LIG    1       -0.753   1.593  -1.232  0.00  0.00    +0.104 C 
BRANCH  21  22
ATOM     22  C   LIG    1       -0.013   1.086   0.008  0.00  0.00    +0.023 C 
BRANCH  22  23
ATOM     23  C   LIG    1       -0.729   1.579   1.267  0.00  0.00    +0.036 C 
BRANCH  23  28
ATOM     24  C   LIG    1        2.066  -0.335   5.948  0.00  0.00    +0.044 C 
ATOM     25  C   LIG    1        1.337   0.164   4.728  0.00  0.00    -0.048 A 
ATOM     26  C   LIG    1        0.325  -0.594   4.169  0.00  0.00    +0.004 A 
ATOM     27  C   LIG    1       -0.347  -0.133   3.052  0.00  0.00    +0.004 A 
ATOM     28  C   LIG    1        0.000   1.080   2.488  0.00  0.00    -0.047 A 
ATOM     29  C   LIG    1        1.012   1.838   3.046  0.00  0.00    +0.007 A 
ATOM     30  C   LIG    1        1.680   1.380   4.167  0.00  0.00    -0.047 A 
ATOM     31  C   LIG    1        2.784   2.206   4.776  0.00  0.00    +0.044 C 
ENDBRANCH  23  28
ENDBRANCH  22  23
ENDBRANCH  21  22
ENDBRANCH  17  21
ENDBRANCH   1  19
TORSDOF 11
