REMARK  Name = ZINC02041003
REMARK                            x       y       z     vdW  Elec       q    Type
REMARK                         _______ _______ _______ _____ _____    ______ ____
ROOT
ATOM      1  C   LIG    1       -0.017   1.392   0.010  0.00  0.00    +0.151 A 
ATOM      2  C   LIG    1       -1.351   1.780   0.018  0.00  0.00    +0.169 A 
ATOM      3  N   LIG    1       -1.660   3.082   0.026  0.00  0.00    -0.177 NA
ATOM      4  C   LIG    1       -0.723   4.002   0.027  0.00  0.00    +0.298 A 
ATOM      5  N   LIG    1        0.598   3.678   0.019  0.00  0.00    -0.275 N 
ATOM      6  H   LIG    1        1.268   4.379   0.020  0.00  0.00    +0.173 HD
ATOM      7  N   LIG    1       -2.105   0.625   0.015  0.00  0.00    -0.291 N 
ATOM      8  H   LIG    1       -3.074   0.583   0.019  0.00  0.00    +0.172 HD
ATOM      9  C   LIG    1       -1.275  -0.435   0.005  0.00  0.00    +0.326 A 
ATOM     10  O   LIG    1       -1.623  -1.601   0.001  0.00  0.00    -0.247 OA
ATOM     11  C   LIG    1        0.979   2.381   0.005  0.00  0.00    +0.280 A 
ATOM     12  O   LIG    1        2.161   2.077  -0.006  0.00  0.00    -0.265 OA
ATOM     13  N   LIG    1        0.002  -0.004   0.002  0.00  0.00    -0.301 N 
ATOM     14  H   LIG    1        0.794  -0.564  -0.008  0.00  0.00    +0.171 HD
ENDROOT
BRANCH   4  15
ATOM     15  O   LIG    1       -1.080   5.303   0.035  0.00  0.00    -0.480 OA
ATOM     16  H   LIG    1       -1.986   5.541   0.041  0.00  0.00    +0.295 HD
ENDBRANCH   4  15
TORSDOF 1
