REMARK  Name = ZINC02170223
REMARK                            x       y       z     vdW  Elec       q    Type
REMARK                         _______ _______ _______ _____ _____    ______ ____
ROOT
ATOM      1  S   LIG    1        1.214  -2.594   0.027  0.00  0.00    +0.059 S 
ATOM      2  O   LIG    1       -0.186  -2.833   0.068  0.00  0.00    -0.153 OA
ATOM      3  O   LIG    1        2.124  -3.252   0.897  0.00  0.00    -0.153 OA
ENDROOT
BRANCH   1  12
ATOM      4  C   LIG    1        2.516   0.950   1.417  0.00  0.00    +0.003 A 
ATOM      5  C   LIG    1        1.818   1.875   0.703  0.00  0.00    +0.010 A 
ATOM      6  C   LIG    1        0.892   1.450  -0.263  0.00  0.00    +0.002 A 
ATOM      7  C   LIG    1        0.144   2.357  -1.030  0.00  0.00    +0.119 A 
ATOM      8  N   LIG    1       -0.710   1.911  -1.921  0.00  0.00    -0.263 NA
ATOM      9  C   LIG    1       -0.908   0.618  -2.142  0.00  0.00    +0.111 A 
ATOM     10  C   LIG    1       -0.233  -0.341  -1.450  0.00  0.00    +0.030 A 
ATOM     11  C   LIG    1        0.701   0.059  -0.477  0.00  0.00    +0.011 A 
ATOM     12  C   LIG    1        1.437  -0.865   0.277  0.00  0.00    +0.113 A 
ATOM     13  C   LIG    1        2.327  -0.415   1.206  0.00  0.00    +0.029 A 
ENDBRANCH   1  12
BRANCH   1  14
ATOM     14  N   LIG    1        1.706  -2.933  -1.517  0.00  0.00    -0.187 NA
ATOM     15  H   LIG    1        1.068  -3.264  -2.168  0.00  0.00    +0.148 HD
BRANCH  14  16
ATOM     16  C   LIG    1        3.106  -2.733  -1.900  0.00  0.00    +0.142 C 
BRANCH  16  17
ATOM     17  C   LIG    1        3.389  -3.477  -3.207  0.00  0.00    +0.212 C 
BRANCH  17  18
ATOM     18  N   LIG    1        4.789  -3.276  -3.590  0.00  0.00    -0.277 N 
ATOM     19  H   LIG    1        5.371  -2.736  -3.033  0.00  0.00    +0.258 HD
BRANCH  18  20
ATOM     20  C   LIG    1        5.275  -3.851  -4.732  0.00  0.00    +0.341 C 
ATOM     21  N   LIG    1        6.548  -3.669  -5.080  0.00  0.00    -0.292 N 
ATOM     22  H   LIG    1        6.892  -4.077  -5.890  0.00  0.00    +0.255 HD
ATOM     23  H   LIG    1        7.130  -3.128  -4.523  0.00  0.00    +0.255 HD
BRANCH  20  24
ATOM     24  N   LIG    1        4.475  -4.593  -5.496  0.00  0.00    -0.292 N 
ATOM     25  H   LIG    1        4.820  -5.001  -6.306  0.00  0.00    +0.255 HD
ATOM     26  H   LIG    1        3.548  -4.726  -5.242  0.00  0.00    +0.255 HD
ENDBRANCH  20  24
ENDBRANCH  18  20
ENDBRANCH  17  18
ENDBRANCH  16  17
ENDBRANCH  14  16
ENDBRANCH   1  14
TORSDOF 7
