REMARK  Name = ZINC02273180
REMARK                            x       y       z     vdW  Elec       q    Type
REMARK                         _______ _______ _______ _____ _____    ______ ____
ROOT
ATOM      1  C   LIG    1        1.708   2.135  -0.003  0.00  0.00    +0.115 A 
ATOM      2  C   LIG    1        2.168   3.464   0.000  0.00  0.00    +0.092 A 
ATOM      3  C   LIG    1        3.561   3.687  -0.018  0.00  0.00    +0.014 A 
ATOM      4  C   LIG    1        4.421   2.575  -0.032  0.00  0.00    -0.017 A 
ATOM      5  C   LIG    1        3.886   1.311  -0.028  0.00  0.00    +0.046 A 
ATOM      6  C   LIG    1        4.748   0.072  -0.032  0.00  0.00    +0.056 C 
ATOM      7  C   LIG    1        6.168   0.407  -0.483  0.00  0.00    +0.006 C 
ATOM      8  C   LIG    1        6.677   1.585   0.355  0.00  0.00    +0.005 C 
ATOM      9  C   LIG    1        5.903   2.836  -0.057  0.00  0.00    +0.037 C 
ATOM     10  N   LIG    1        2.568   1.134  -0.011  0.00  0.00    -0.244 NA
ENDROOT
BRANCH   3  11
ATOM     11  C   LIG    1        4.103   5.057  -0.022  0.00  0.00    +0.021 A 
ATOM     12  C   LIG    1        4.011   6.026   0.945  0.00  0.00    +0.016 A 
ATOM     13  C   LIG    1        4.608   7.245   0.719  0.00  0.00    +0.008 A 
ATOM     14  C   LIG    1        5.259   7.456  -0.456  0.00  0.00    +0.046 A 
ATOM     15  S   LIG    1        5.045   5.892  -1.289  0.00  0.00    -0.097 S 
ENDBRANCH   3  11
BRANCH   2  16
ATOM     16  C   LIG    1        1.247   4.561   0.021  0.00  0.00    +0.102 C 
ATOM     17  N   LIG    1        0.517   5.431   0.038  0.00  0.00    -0.191 NA
ENDBRANCH   2  16
BRANCH   1  18
ATOM     18  S   LIG    1       -0.022   1.806   0.012  0.00  0.00    -0.100 S 
BRANCH  18  19
ATOM     19  C   LIG    1        0.002  -0.004   0.002  0.00  0.00    +0.111 C 
BRANCH  19  23
ATOM     20  C   LIG    1       -4.005  -1.483   0.032  0.00  0.00    +0.000 A 
ATOM     21  C   LIG    1       -3.368  -1.237  -1.170  0.00  0.00    +0.000 A 
ATOM     22  C   LIG    1       -2.072  -0.758  -1.179  0.00  0.00    +0.004 A 
ATOM     23  C   LIG    1       -1.412  -0.526   0.013  0.00  0.00    -0.037 A 
ATOM     24  C   LIG    1       -2.047  -0.777   1.215  0.00  0.00    +0.004 A 
ATOM     25  C   LIG    1       -3.345  -1.250   1.224  0.00  0.00    +0.000 A 
ENDBRANCH  19  23
ENDBRANCH  18  19
ENDBRANCH   1  18
TORSDOF 5
