REMARK  Name = ZINC01893694
REMARK                            x       y       z     vdW  Elec       q    Type
REMARK                         _______ _______ _______ _____ _____    ______ ____
ROOT
ATOM      1  C   LIG    1        8.462   2.950  -2.938  0.00  0.00    +0.115 C 
ATOM      2  C   LIG    1        9.300   1.821  -2.336  0.00  0.00    +0.042 C 
ENDROOT
BRANCH   1   5
ATOM      3  N   LIG    1        7.620   2.038  -5.078  0.00  0.00    -0.307 N 
ATOM      4  H   LIG    1        6.977   1.520  -4.568  0.00  0.00    +0.149 HD
ATOM      5  C   LIG    1        8.488   2.849  -4.442  0.00  0.00    +0.237 C 
ATOM      6  O   LIG    1        9.291   3.496  -5.079  0.00  0.00    -0.273 OA
BRANCH   3   8
ATOM      7  C   LIG    1        8.692   0.907  -6.962  0.00  0.00    +0.033 C 
ATOM      8  C   LIG    1        7.646   1.939  -6.539  0.00  0.00    +0.100 C 
BRANCH   8   9
ATOM      9  C   LIG    1        6.289   1.513  -7.038  0.00  0.00    -0.027 A 
ATOM     10  C   LIG    1        5.572   0.549  -6.353  0.00  0.00    +0.005 A 
ATOM     11  C   LIG    1        4.326   0.161  -6.809  0.00  0.00    +0.000 A 
ATOM     12  C   LIG    1        3.800   0.730  -7.953  0.00  0.00    +0.000 A 
ATOM     13  C   LIG    1        4.519   1.690  -8.641  0.00  0.00    +0.000 A 
ATOM     14  C   LIG    1        5.763   2.081  -8.184  0.00  0.00    +0.005 A 
ENDBRANCH   8   9
ENDBRANCH   3   8
ENDBRANCH   1   5
BRANCH   1  15
ATOM     15  N   LIG    1        7.080   2.837  -2.466  0.00  0.00    -0.267 N 
ATOM     16  H   LIG    1        6.358   2.712  -3.102  0.00  0.00    +0.153 HD
ATOM     17  C   LIG    1        6.811   2.907  -1.147  0.00  0.00    +0.401 C 
ATOM     18  O   LIG    1        7.714   3.064  -0.350  0.00  0.00    -0.226 OA
BRANCH  17  19
ATOM     19  O   LIG    1        5.540   2.803  -0.713  0.00  0.00    -0.442 OA
BRANCH  19  20
ATOM     20  C   LIG    1        5.325   2.888   0.721  0.00  0.00    +0.308 C 
BRANCH  20  21
ATOM     21  C   LIG    1        3.853   2.752   1.017  0.00  0.00    +0.144 A 
ATOM     22  C   LIG    1        3.222   1.593   1.249  0.00  0.00    +0.056 A 
ATOM     23  C   LIG    1        1.814   1.936   1.486  0.00  0.00    +0.021 A 
ATOM     24  C   LIG    1        0.667   1.198   1.777  0.00  0.00    +0.011 A 
ATOM     25  C   LIG    1       -0.529   1.841   1.939  0.00  0.00    +0.001 A 
ATOM     26  C   LIG    1       -0.605   3.222   1.826  0.00  0.00    +0.004 A 
ATOM     27  C   LIG    1        0.518   3.967   1.539  0.00  0.00    +0.047 A 
ATOM     28  C   LIG    1        1.742   3.333   1.366  0.00  0.00    +0.135 A 
ATOM     29  O   LIG    1        2.985   3.776   1.085  0.00  0.00    -0.456 OA
ENDBRANCH  20  21
ENDBRANCH  19  20
ENDBRANCH  17  19
ENDBRANCH   1  15
BRANCH   1  30
ATOM     30  C   LIG    1        9.039   4.300  -2.508  0.00  0.00    +0.072 C 
BRANCH  30  31
ATOM     31  C   LIG    1        8.180   5.411  -3.054  0.00  0.00    -0.020 A 
ATOM     32  C   LIG    1        7.080   5.271  -3.811  0.00  0.00    +0.087 A 
ATOM     33  N   LIG    1        6.565   6.502  -4.117  0.00  0.00    -0.360 N 
ATOM     34  C   LIG    1        7.341   7.488  -3.551  0.00  0.00    +0.047 A 
ATOM     35  C   LIG    1        7.271   8.877  -3.548  0.00  0.00    +0.026 A 
ATOM     36  C   LIG    1        8.216   9.608  -2.859  0.00  0.00    +0.002 A 
ATOM     37  C   LIG    1        9.244   8.972  -2.178  0.00  0.00    +0.001 A 
ATOM     38  C   LIG    1        9.334   7.608  -2.172  0.00  0.00    +0.010 A 
ATOM     39  H   LIG    1        5.771   6.656  -4.653  0.00  0.00    +0.165 HD
ATOM     40  C   LIG    1        8.383   6.848  -2.856  0.00  0.00    +0.003 A 
ENDBRANCH  30  31
ENDBRANCH   1  30
TORSDOF 9
