REMARK  Name = ZINC01702555
REMARK                            x       y       z     vdW  Elec       q    Type
REMARK                         _______ _______ _______ _____ _____    ______ ____
ROOT
ATOM      1  C   LIG    1       -2.243   1.875  -0.703  0.00  0.00    +0.002 C 
ATOM      2  C   LIG    1       -0.809   1.622  -1.200  0.00  0.00    +0.002 C 
ATOM      3  C   LIG    1       -0.013   1.086   0.008  0.00  0.00    +0.022 C 
ATOM      4  C   LIG    1       -0.789   1.611   1.242  0.00  0.00    +0.073 C 
ATOM      5  C   LIG    1       -2.268   1.485   0.789  0.00  0.00    +0.022 C 
ENDROOT
BRANCH   4   6
ATOM      6  N   LIG    1       -0.528   0.772   2.414  0.00  0.00    -0.315 N 
ATOM      7  H   LIG    1       -0.258  -0.152   2.299  0.00  0.00    +0.149 HD
ATOM      8  C   LIG    1       -0.663   1.286   3.653  0.00  0.00    +0.325 C 
ATOM      9  O   LIG    1       -1.000   2.442   3.797  0.00  0.00    -0.280 OA
ENDBRANCH   4   6
TORSDOF 1
