REMARK  Name = ZINC01747054
REMARK                            x       y       z     vdW  Elec       q    Type
REMARK                         _______ _______ _______ _____ _____    ______ ____
ROOT
ATOM      1  C   LIG    1        1.419   2.052  -0.001  0.00  0.00    -0.067 C 
ATOM      2  N   LIG    1        2.116   1.567  -1.207  0.00  0.00    +0.383 N 
ATOM      3  H   LIG    1        1.606   1.881  -2.041  0.00  0.00    -0.085 HD
ATOM      4  H   LIG    1        3.068   1.951  -1.224  0.00  0.00    -0.085 HD
ATOM      5  C   LIG    1        2.186   0.094  -1.205  0.00  0.00    -0.067 C 
ATOM      6  C   LIG    1        0.771  -0.489  -1.230  0.00  0.00    -0.016 C 
ATOM      7  C   LIG    1        0.002  -0.004   0.002  0.00  0.00    -0.003 C 
ATOM      8  C   LIG    1       -0.019   1.527   0.010  0.00  0.00    -0.016 C 
ENDROOT
BRANCH   1   9
ATOM      9  C   LIG    1        1.403   3.582  -0.012  0.00  0.00    +0.019 C 
BRANCH   9  13
ATOM     10  C   LIG    1        5.401   5.050   0.308  0.00  0.00    +0.000 A 
ATOM     11  C   LIG    1        4.853   4.804  -0.937  0.00  0.00    +0.000 A 
ATOM     12  C   LIG    1        3.559   4.329  -1.040  0.00  0.00    +0.003 A 
ATOM     13  C   LIG    1        2.813   4.100   0.101  0.00  0.00    -0.049 A 
ATOM     14  C   LIG    1        3.360   4.351   1.345  0.00  0.00    +0.003 A 
ATOM     15  C   LIG    1        4.655   4.822   1.449  0.00  0.00    +0.000 A 
ENDBRANCH   9  13
ENDBRANCH   1   9
BRANCH   5  16
ATOM     16  C   LIG    1        2.951  -0.372  -2.445  0.00  0.00    +0.019 C 
BRANCH  16  17
ATOM     17  C   LIG    1        4.380   0.100  -2.360  0.00  0.00    -0.049 A 
ATOM     18  C   LIG    1        4.736   1.325  -2.892  0.00  0.00    +0.003 A 
ATOM     19  C   LIG    1        6.045   1.760  -2.811  0.00  0.00    +0.000 A 
ATOM     20  C   LIG    1        7.001   0.965  -2.205  0.00  0.00    +0.000 A 
ATOM     21  C   LIG    1        6.646  -0.262  -1.677  0.00  0.00    +0.000 A 
ATOM     22  C   LIG    1        5.336  -0.695  -1.755  0.00  0.00    +0.003 A 
ENDBRANCH  16  17
ENDBRANCH   5  16
TORSDOF 4
