REMARK  Name = ZINC01742345
REMARK                            x       y       z     vdW  Elec       q    Type
REMARK                         _______ _______ _______ _____ _____    ______ ____
ROOT
ATOM      1  C   LIG    1        0.172   0.958  -1.077  0.00  0.00    +0.200 C 
ENDROOT
BRANCH   1   2
ATOM      2  N   LIG    1        0.520   0.717  -2.480  0.00  0.00    -0.278 N 
ATOM      3  H   LIG    1        1.299   0.182  -2.701  0.00  0.00    +0.258 HD
BRANCH   2   4
ATOM      4  C   LIG    1       -0.256   1.249  -3.482  0.00  0.00    +0.341 C 
ATOM      5  N   LIG    1        0.112   0.994  -4.729  0.00  0.00    -0.292 N 
ATOM      6  H   LIG    1        0.945   0.422  -4.912  0.00  0.00    +0.255 HD
ATOM      7  H   LIG    1       -0.431   1.367  -5.508  0.00  0.00    +0.255 HD
BRANCH   4   8
ATOM      8  N   LIG    1       -1.359   2.007  -3.168  0.00  0.00    -0.292 N 
ATOM      9  H   LIG    1       -1.907   2.382  -3.876  0.00  0.00    +0.255 HD
ATOM     10  H   LIG    1       -1.590   2.166  -2.240  0.00  0.00    +0.255 HD
ENDBRANCH   4   8
ENDBRANCH   2   4
ENDBRANCH   1   2
BRANCH   1  11
ATOM     11  C   LIG    1        1.189   0.260  -0.172  0.00  0.00    +0.072 C 
BRANCH  11  18
ATOM     12  C   LIG    1        1.349   1.605   1.932  0.00  0.00    +0.005 A 
ATOM     13  C   LIG    1        1.016   1.837   3.254  0.00  0.00    +0.020 A 
ATOM     14  C   LIG    1        0.173   0.963   3.917  0.00  0.00    +0.041 A 
ATOM     15 CL   LIG    1       -0.240   1.249   5.579  0.00  0.00    -0.084 Cl
ATOM     16  C   LIG    1       -0.341  -0.138   3.256  0.00  0.00    +0.020 A 
ATOM     17  C   LIG    1       -0.011  -0.365   1.933  0.00  0.00    +0.005 A 
ATOM     18  C   LIG    1        0.831   0.508   1.270  0.00  0.00    -0.044 A 
ENDBRANCH  11  18
ENDBRANCH   1  11
TORSDOF 5
