REMARK  Name = ZINC02002752
REMARK                            x       y       z     vdW  Elec       q    Type
REMARK                         _______ _______ _______ _____ _____    ______ ____
ROOT
ATOM      1  N   LIG    1       -1.372  -0.511   0.012  0.00  0.00    -0.312 N 
ATOM      2  C   LIG    1       -2.313  -0.275   0.972  0.00  0.00    +0.201 A 
ATOM      3  N   LIG    1       -3.423  -0.878   0.664  0.00  0.00    -0.231 NA
ATOM      4  C   LIG    1       -3.267  -1.538  -0.510  0.00  0.00    +0.148 A 
ATOM      5  C   LIG    1       -4.101  -2.339  -1.310  0.00  0.00    +0.152 A 
ATOM      6  N   LIG    1       -3.612  -2.832  -2.442  0.00  0.00    -0.197 NA
ATOM      7  C   LIG    1       -2.362  -2.589  -2.813  0.00  0.00    +0.219 A 
ATOM      8  N   LIG    1       -1.542  -1.845  -2.088  0.00  0.00    -0.195 NA
ATOM      9  C   LIG    1       -1.952  -1.306  -0.944  0.00  0.00    +0.167 A 
ENDROOT
BRANCH   1  11
ATOM     10  C   LIG    1       -0.019   1.526   0.010  0.00  0.00    +0.030 C 
ATOM     11  C   LIG    1        0.002  -0.004   0.002  0.00  0.00    +0.084 C 
ATOM     12  C   LIG    1        0.742  -0.511   1.242  0.00  0.00    +0.030 C 
ENDBRANCH   1  11
BRANCH   5  13
ATOM     13  N   LIG    1       -5.407  -2.596  -0.932  0.00  0.00    -0.323 N 
ATOM     14  H   LIG    1       -5.757  -2.222  -0.108  0.00  0.00    +0.148 HD
BRANCH  13  15
ATOM     15  C   LIG    1       -6.263  -3.433  -1.778  0.00  0.00    +0.138 C 
BRANCH  15  16
ATOM     16  C   LIG    1       -7.626  -3.556  -1.147  0.00  0.00    -0.030 A 
ATOM     17  C   LIG    1       -7.886  -4.582  -0.258  0.00  0.00    +0.005 A 
ATOM     18  C   LIG    1       -9.136  -4.696   0.321  0.00  0.00    +0.000 A 
ATOM     19  C   LIG    1      -10.126  -3.782   0.011  0.00  0.00    +0.000 A 
ATOM     20  C   LIG    1       -9.866  -2.756  -0.878  0.00  0.00    +0.000 A 
ATOM     21  C   LIG    1       -8.614  -2.640  -1.453  0.00  0.00    +0.005 A 
ENDBRANCH  15  16
ENDBRANCH  13  15
ENDBRANCH   5  13
BRANCH   7  22
ATOM     22  N   LIG    1       -1.898  -3.134  -3.999  0.00  0.00    -0.313 N 
ATOM     23  H   LIG    1       -0.986  -2.966  -4.286  0.00  0.00    +0.149 HD
BRANCH  22  24
ATOM     24  C   LIG    1       -2.784  -3.962  -4.821  0.00  0.00    +0.106 C 
BRANCH  24  25
ATOM     25  C   LIG    1       -2.031  -4.434  -6.066  0.00  0.00    +0.046 C 
BRANCH  25  26
ATOM     26  C   LIG    1       -2.957  -5.298  -6.925  0.00  0.00    +0.157 C 
BRANCH  26  27
ATOM     27  O   LIG    1       -2.253  -5.739  -8.088  0.00  0.00    -0.395 OA
ATOM     28  H   LIG    1       -2.780  -6.294  -8.680  0.00  0.00    +0.209 HD
ENDBRANCH  26  27
ENDBRANCH  25  26
ENDBRANCH  24  25
ENDBRANCH  22  24
ENDBRANCH   7  22
TORSDOF 9
