REMARK  Name = ZINC01717010
REMARK                            x       y       z     vdW  Elec       q    Type
REMARK                         _______ _______ _______ _____ _____    ______ ____
ROOT
ATOM      1  N   LIG    1       -1.200  -0.719   0.009  0.00  0.00    -0.281 N 
ATOM      2  H   LIG    1       -2.044  -0.248   0.097  0.00  0.00    +0.155 HD
ATOM      3  C   LIG    1       -1.186  -2.062  -0.100  0.00  0.00    +0.249 C 
ATOM      4  O   LIG    1       -0.128  -2.660  -0.113  0.00  0.00    -0.270 OA
ENDROOT
BRANCH   1  14
ATOM      5  C   LIG    1        6.089  -0.009  -2.594  0.00  0.00    +0.000 A 
ATOM      6  C   LIG    1        5.192  -1.013  -2.911  0.00  0.00    +0.001 A 
ATOM      7  C   LIG    1        3.923  -1.008  -2.369  0.00  0.00    +0.009 A 
ATOM      8  C   LIG    1        3.541   0.012  -1.496  0.00  0.00    -0.014 A 
ATOM      9  C   LIG    1        4.451   1.018  -1.183  0.00  0.00    -0.035 A 
ATOM     10  C   LIG    1        3.768   1.969  -0.231  0.00  0.00    +0.071 C 
ATOM     11  C   LIG    1        2.377   1.421  -0.021  0.00  0.00    -0.035 A 
ATOM     12  C   LIG    1        1.314   1.865   0.739  0.00  0.00    +0.006 A 
ATOM     13  C   LIG    1        0.127   1.157   0.750  0.00  0.00    +0.023 A 
ATOM     14  C   LIG    1        0.002  -0.004  -0.004  0.00  0.00    +0.034 A 
ATOM     15  C   LIG    1        1.066  -0.454  -0.769  0.00  0.00    +0.032 A 
ATOM     16  C   LIG    1        2.265   0.260  -0.781  0.00  0.00    -0.012 A 
ATOM     17  C   LIG    1        5.717   1.006  -1.729  0.00  0.00    +0.004 A 
ENDBRANCH   1  14
BRANCH   3  18
ATOM     18  C   LIG    1       -2.456  -2.807  -0.203  0.00  0.00    +0.045 A 
ATOM     19  C   LIG    1       -3.673  -2.126  -0.189  0.00  0.00    +0.013 A 
ATOM     20  C   LIG    1       -4.857  -2.827  -0.287  0.00  0.00    +0.001 A 
ATOM     21  C   LIG    1       -4.848  -4.208  -0.399  0.00  0.00    +0.001 A 
ATOM     22  C   LIG    1       -3.653  -4.900  -0.416  0.00  0.00    +0.009 A 
ATOM     23  C   LIG    1       -2.447  -4.209  -0.324  0.00  0.00    -0.005 A 
BRANCH  23  24
ATOM     24  C   LIG    1       -1.163  -4.946  -0.346  0.00  0.00    -0.003 A 
ATOM     25  C   LIG    1       -0.774  -5.641  -1.489  0.00  0.00    +0.009 A 
ATOM     26  C   LIG    1        0.424  -6.326  -1.505  0.00  0.00    +0.001 A 
ATOM     27  C   LIG    1        1.246  -6.330  -0.391  0.00  0.00    +0.001 A 
ATOM     28  C   LIG    1        0.879  -5.647   0.751  0.00  0.00    +0.015 A 
ATOM     29  C   LIG    1       -0.326  -4.944   0.785  0.00  0.00    +0.067 A 
BRANCH  29  30
ATOM     30  C   LIG    1       -0.721  -4.208   2.001  0.00  0.00    +0.337 C 
ATOM     31  O   LIG    1       -1.773  -3.600   2.027  0.00  0.00    -0.245 OA
BRANCH  30  32
ATOM     32  O   LIG    1        0.084  -4.209   3.081  0.00  0.00    -0.477 OA
ATOM     33  H   LIG    1        0.895  -4.678   3.060  0.00  0.00    +0.295 HD
ENDBRANCH  30  32
ENDBRANCH  29  30
ENDBRANCH  23  24
ENDBRANCH   3  18
TORSDOF 5
