REMARK  Name = ZINC02169415
REMARK                            x       y       z     vdW  Elec       q    Type
REMARK                         _______ _______ _______ _____ _____    ______ ____
ROOT
ATOM      1  N   LIG    1        0.531  -2.047  -1.236  0.00  0.00    +0.382 N 
ATOM      2  H   LIG    1        0.900  -2.254  -0.320  0.00  0.00    -0.081 HD
ENDROOT
BRANCH   1   3
ATOM      3  C   LIG    1        1.338  -2.730  -2.255  0.00  0.00    -0.064 C 
ATOM      4  C   LIG    1        2.795  -2.262  -2.159  0.00  0.00    -0.010 C 
ATOM      5  C   LIG    1        3.554  -2.799  -3.371  0.00  0.00    +0.037 C 
ATOM      6  C   LIG    1        3.332  -4.281  -3.521  0.00  0.00    -0.003 A 
ATOM      7  C   LIG    1        2.293  -4.941  -2.906  0.00  0.00    -0.042 A 
ATOM      8  C   LIG    1        2.140  -6.309  -3.091  0.00  0.00    +0.004 A 
ATOM      9  C   LIG    1        3.023  -7.015  -3.882  0.00  0.00    +0.004 A 
ATOM     10  C   LIG    1        4.071  -6.358  -4.497  0.00  0.00    +0.046 A 
ATOM     11  C   LIG    1        4.226  -4.994  -4.318  0.00  0.00    +0.120 A 
ATOM     12  C   LIG    1        1.299  -4.238  -2.018  0.00  0.00    +0.020 C 
BRANCH  11  13
ATOM     13  O   LIG    1        5.255  -4.345  -4.923  0.00  0.00    -0.506 OA
ATOM     14  H   LIG    1        6.063  -4.309  -4.393  0.00  0.00    +0.292 HD
ENDBRANCH  11  13
ENDBRANCH   1   3
BRANCH   1  15
ATOM     15  C   LIG    1        0.576  -0.597  -1.465  0.00  0.00    -0.079 C 
BRANCH  15  17
ATOM     16  C   LIG    1        0.121   1.220  -3.118  0.00  0.00    +0.002 C 
ATOM     17  C   LIG    1        0.121  -0.293  -2.894  0.00  0.00    -0.022 C 
ENDBRANCH  15  17
ENDBRANCH   1  15
BRANCH   1  18
ATOM     18  C   LIG    1       -0.860  -2.514  -1.319  0.00  0.00    -0.074 C 
BRANCH  18  19
ATOM     19  C   LIG    1       -1.674  -1.894  -0.181  0.00  0.00    +0.016 C 
BRANCH  19  20
ATOM     20  C   LIG    1       -3.064  -2.478  -0.183  0.00  0.00    -0.049 A 
ATOM     21  C   LIG    1       -4.065  -1.879  -0.924  0.00  0.00    +0.003 A 
ATOM     22  C   LIG    1       -5.339  -2.414  -0.925  0.00  0.00    +0.000 A 
ATOM     23  C   LIG    1       -5.612  -3.550  -0.185  0.00  0.00    +0.000 A 
ATOM     24  C   LIG    1       -4.611  -4.150   0.555  0.00  0.00    +0.000 A 
ATOM     25  C   LIG    1       -3.335  -3.617   0.552  0.00  0.00    +0.003 A 
ENDBRANCH  19  20
ENDBRANCH  18  19
ENDBRANCH   1  18
TORSDOF 7
