REMARK  Name = ZINC01849595
REMARK                            x       y       z     vdW  Elec       q    Type
REMARK                         _______ _______ _______ _____ _____    ______ ____
ROOT
ATOM      1  C   LIG    1        1.470  -2.523  -2.511  0.00  0.00    +0.202 C 
ENDROOT
BRANCH   1   2
ATOM      2  C   LIG    1        1.762  -3.999  -2.600  0.00  0.00    -0.007 A 
ATOM      3  C   LIG    1        0.816  -4.861  -3.122  0.00  0.00    +0.007 A 
ATOM      4  C   LIG    1        1.084  -6.214  -3.204  0.00  0.00    +0.000 A 
ATOM      5  C   LIG    1        2.299  -6.706  -2.764  0.00  0.00    +0.000 A 
ATOM      6  C   LIG    1        3.246  -5.844  -2.243  0.00  0.00    +0.000 A 
ATOM      7  C   LIG    1        2.979  -4.490  -2.165  0.00  0.00    +0.007 A 
ENDBRANCH   1   2
BRANCH   1   8
ATOM      8  C   LIG    1        0.711  -2.231  -1.214  0.00  0.00    +0.030 C 
BRANCH   8   9
ATOM      9  C   LIG    1        0.523  -0.720  -1.062  0.00  0.00    -0.079 C 
BRANCH   9  11
ATOM     10  C   LIG    1       -0.385   1.011   0.328  0.00  0.00    -0.101 C 
ATOM     11  N   LIG    1       -0.205  -0.440   0.182  0.00  0.00    +0.377 N 
ATOM     12  H   LIG    1       -1.108  -0.890   0.152  0.00  0.00    -0.086 HD
ATOM     13  H   LIG    1        0.321  -0.794   0.967  0.00  0.00    -0.086 HD
ENDBRANCH   9  11
ENDBRANCH   8   9
ENDBRANCH   1   8
BRANCH   1  14
ATOM     14  O   LIG    1        0.672  -2.127  -3.628  0.00  0.00    -0.481 OA
BRANCH  14  15
ATOM     15  C   LIG    1        0.884  -0.879  -4.126  0.00  0.00    +0.163 A 
ATOM     16  C   LIG    1        1.870  -0.072  -3.582  0.00  0.00    +0.049 A 
ATOM     17  C   LIG    1        2.084   1.196  -4.089  0.00  0.00    +0.004 A 
ATOM     18  C   LIG    1        1.316   1.662  -5.140  0.00  0.00    +0.004 A 
ATOM     19  C   LIG    1        0.330   0.862  -5.688  0.00  0.00    +0.049 A 
ATOM     20  C   LIG    1        0.115  -0.412  -5.188  0.00  0.00    +0.162 A 
BRANCH  20  21
ATOM     21  O   LIG    1       -0.851  -1.203  -5.729  0.00  0.00    -0.491 OA
ATOM     22  C   LIG    1       -1.601  -0.657  -6.816  0.00  0.00    +0.277 C 
ENDBRANCH  20  21
ENDBRANCH  14  15
ENDBRANCH   1  14
TORSDOF 7
