REMARK  Name = ZINC01677582
REMARK                            x       y       z     vdW  Elec       q    Type
REMARK                         _______ _______ _______ _____ _____    ______ ____
ROOT
ATOM      1  C   LIG    1       -5.251   1.437  -3.380  0.00  0.00    -0.000 C 
ENDROOT
BRANCH   1   2
ATOM      2  C   LIG    1       -6.663   0.848  -3.336  0.00  0.00    -0.002 C 
BRANCH   2   3
ATOM      3  C   LIG    1       -7.479   1.392  -4.510  0.00  0.00    -0.020 C 
BRANCH   3   4
ATOM      4  C   LIG    1       -8.891   0.803  -4.466  0.00  0.00    -0.086 C 
BRANCH   4   5
ATOM      5  N   LIG    1       -9.674   1.349  -5.587  0.00  0.00    +0.378 N 
ATOM      6  H   LIG    1       -9.744   2.369  -5.485  0.00  0.00    -0.090 HD
ATOM      7  H   LIG    1      -10.611   0.951  -5.586  0.00  0.00    -0.090 HD
ATOM      8  H   LIG    1       -9.216   1.135  -6.471  0.00  0.00    -0.090 HD
ENDBRANCH   4   5
ENDBRANCH   3   4
ENDBRANCH   2   3
ENDBRANCH   1   2
BRANCH   1   9
ATOM      9  C   LIG    1       -4.435   0.893  -2.206  0.00  0.00    -0.000 C 
BRANCH   9  10
ATOM     10  C   LIG    1       -3.023   1.482  -2.250  0.00  0.00    -0.002 C 
BRANCH  10  11
ATOM     11  C   LIG    1       -2.207   0.938  -1.076  0.00  0.00    -0.020 C 
BRANCH  11  12
ATOM     12  C   LIG    1       -0.795   1.527  -1.120  0.00  0.00    -0.086 C 
BRANCH  12  13
ATOM     13  N   LIG    1       -0.025   1.014   0.027  0.00  0.00    +0.378 N 
ATOM     14  H   LIG    1       -0.476   1.316   0.899  0.00  0.00    -0.090 HD
ATOM     15  H   LIG    1        0.925   1.379   0.001  0.00  0.00    -0.090 HD
ATOM     16  H   LIG    1        0.002  -0.004   0.002  0.00  0.00    -0.090 HD
ENDBRANCH  12  13
ENDBRANCH  11  12
ENDBRANCH  10  11
ENDBRANCH   9  10
ENDBRANCH   1   9
TORSDOF 9
