REMARK  Name = ZINC01698387
REMARK                            x       y       z     vdW  Elec       q    Type
REMARK                         _______ _______ _______ _____ _____    ______ ____
ROOT
ATOM      1  C   LIG    1       -1.653   2.877   1.094  0.00  0.00    +0.027 C 
ATOM      2  C   LIG    1       -1.359   2.041   0.061  0.00  0.00    +0.059 C 
ENDROOT
BRANCH   1   8
ATOM      3  C   LIG    1       -3.409   4.104  -0.167  0.00  0.00    +0.011 A 
ATOM      4  C   LIG    1       -4.563   4.856  -0.193  0.00  0.00    +0.046 A 
ATOM      5  C   LIG    1       -5.196   5.204   0.995  0.00  0.00    +0.117 A 
ATOM      6  C   LIG    1       -4.672   4.792   2.214  0.00  0.00    +0.046 A 
ATOM      7  C   LIG    1       -3.522   4.036   2.253  0.00  0.00    +0.011 A 
ATOM      8  C   LIG    1       -2.880   3.683   1.060  0.00  0.00    -0.024 A 
BRANCH   5   9
ATOM      9  O   LIG    1       -6.330   5.950   0.963  0.00  0.00    -0.507 OA
ATOM     10  H   LIG    1       -6.175   6.904   0.995  0.00  0.00    +0.292 HD
ENDBRANCH   5   9
ENDBRANCH   1   8
BRANCH   2  11
ATOM     11  C   LIG    1       -0.053   1.343   0.023  0.00  0.00    -0.007 A 
ATOM     12  C   LIG    1        1.127   2.075  -0.118  0.00  0.00    +0.013 A 
ATOM     13  C   LIG    1        2.340   1.421  -0.159  0.00  0.00    +0.046 A 
ATOM     14  C   LIG    1        2.389   0.037  -0.061  0.00  0.00    +0.117 A 
ATOM     15  C   LIG    1        1.217  -0.694   0.079  0.00  0.00    +0.046 A 
ATOM     16  C   LIG    1        0.000  -0.048   0.121  0.00  0.00    +0.013 A 
BRANCH  14  17
ATOM     17  O   LIG    1        3.587  -0.604  -0.102  0.00  0.00    -0.507 OA
ATOM     18  H   LIG    1        3.869  -0.854  -0.993  0.00  0.00    +0.292 HD
ENDBRANCH  14  17
ENDBRANCH   2  11
BRANCH   2  19
ATOM     19  C   LIG    1       -2.312   1.835  -0.988  0.00  0.00    +0.100 C 
ATOM     20  N   LIG    1       -3.067   1.672  -1.820  0.00  0.00    -0.191 NA
ENDBRANCH   2  19
TORSDOF 5
