REMARK  Name = ZINC02184757
REMARK                            x       y       z     vdW  Elec       q    Type
REMARK                         _______ _______ _______ _____ _____    ______ ____
ROOT
ATOM      1  S   LIG    1        5.028  -4.117  -5.905  0.00  0.00    +0.073 S 
ATOM      2  O   LIG    1        5.252  -5.204  -5.018  0.00  0.00    -0.150 OA
ATOM      3  O   LIG    1        5.639  -2.847  -5.723  0.00  0.00    -0.150 OA
ENDROOT
BRANCH   1   4
ATOM      4  C   LIG    1        5.493  -4.673  -7.511  0.00  0.00    +0.116 A 
ATOM      5  C   LIG    1        6.321  -3.921  -8.300  0.00  0.00    +0.031 A 
ATOM      6  C   LIG    1        6.721  -4.311  -9.577  0.00  0.00    +0.028 A 
ATOM      7  C   LIG    1        6.279  -5.511 -10.104  0.00  0.00    +0.051 A 
ATOM      8  C   LIG    1        5.439  -6.264  -9.291  0.00  0.00    +0.020 A 
ATOM      9  C   LIG    1        5.063  -7.452  -9.936  0.00  0.00    +0.049 A 
ATOM     10  C   LIG    1        5.740  -7.386 -11.236  0.00  0.00    +0.257 A 
ATOM     11  O   LIG    1        5.683  -8.224 -12.116  0.00  0.00    -0.267 OA
ATOM     12  C   LIG    1        4.236  -8.308  -9.230  0.00  0.00    +0.014 A 
ATOM     13  C   LIG    1        3.811  -7.958  -7.949  0.00  0.00    +0.001 A 
ATOM     14  C   LIG    1        4.179  -6.795  -7.329  0.00  0.00    +0.010 A 
ATOM     15  N   LIG    1        6.443  -6.223 -11.285  0.00  0.00    -0.322 N 
ATOM     16  H   LIG    1        6.983  -5.933 -12.037  0.00  0.00    +0.169 HD
ATOM     17  C   LIG    1        5.027  -5.902  -8.008  0.00  0.00    +0.011 A 
ENDBRANCH   1   4
BRANCH   1  18
ATOM     18  N   LIG    1        3.393  -3.857  -5.931  0.00  0.00    -0.216 N 
ATOM     19  H   LIG    1        2.882  -4.020  -6.756  0.00  0.00    +0.174 HD
BRANCH  18  23
ATOM     20  C   LIG    1        1.444  -2.513  -2.505  0.00  0.00    -0.047 A 
ATOM     21  C   LIG    1        0.725  -2.741  -3.664  0.00  0.00    +0.005 A 
ATOM     22  C   LIG    1        1.368  -3.187  -4.802  0.00  0.00    +0.025 A 
ATOM     23  C   LIG    1        2.740  -3.406  -4.782  0.00  0.00    +0.048 A 
ATOM     24  C   LIG    1        3.459  -3.176  -3.616  0.00  0.00    +0.025 A 
ATOM     25  C   LIG    1        2.811  -2.725  -2.483  0.00  0.00    +0.005 A 
BRANCH  20  26
ATOM     26  C   LIG    1        0.739  -2.027  -1.265  0.00  0.00    +0.035 C 
BRANCH  26  27
ATOM     27  C   LIG    1        0.718  -0.497  -1.257  0.00  0.00    +0.004 C 
BRANCH  27  29
ATOM     28  C   LIG    1       -0.019   1.526   0.010  0.00  0.00    +0.004 C 
ATOM     29  C   LIG    1        0.002  -0.004   0.002  0.00  0.00    -0.003 C 
ENDBRANCH  27  29
ENDBRANCH  26  27
ENDBRANCH  20  26
ENDBRANCH  18  23
ENDBRANCH   1  18
TORSDOF 6
