REMARK  Name = ZINC01702791
REMARK                            x       y       z     vdW  Elec       q    Type
REMARK                         _______ _______ _______ _____ _____    ______ ____
ROOT
ATOM      1  C   LIG    1        2.370   1.401  -0.012  0.00  0.00    +0.005 A 
ATOM      2  C   LIG    1        1.135   2.066   0.002  0.00  0.00    +0.018 A 
ATOM      3  C   LIG    1       -0.016   1.359   0.009  0.00  0.00    +0.096 A 
ATOM      4  N   LIG    1        0.002  -0.004   0.002  0.00  0.00    -0.268 N 
ATOM      5  C   LIG    1        1.190  -0.680  -0.013  0.00  0.00    +0.142 A 
ATOM      6  N   LIG    1        1.220  -2.010  -0.020  0.00  0.00    -0.214 NA
ATOM      7  C   LIG    1        0.098  -2.725  -0.013  0.00  0.00    +0.129 A 
ATOM      8  C   LIG    1       -1.135  -2.078   0.002  0.00  0.00    +0.114 A 
ATOM      9  C   LIG    1       -1.163  -0.685   0.009  0.00  0.00    +0.260 A 
ATOM     10  O   LIG    1       -2.229  -0.088   0.022  0.00  0.00    -0.267 OA
ATOM     11  C   LIG    1        2.401   0.040  -0.021  0.00  0.00    +0.047 A 
ENDROOT
BRANCH   7  12
ATOM     12  N   LIG    1        0.156  -4.107  -0.021  0.00  0.00    -0.311 N 
ATOM     13  C   LIG    1       -0.467  -4.667   1.187  0.00  0.00    +0.134 C 
ATOM     14  C   LIG    1       -0.435  -6.195   1.110  0.00  0.00    +0.178 C 
ATOM     15  O   LIG    1        0.918  -6.631   0.947  0.00  0.00    -0.377 OA
ATOM     16  C   LIG    1        1.555  -6.105  -0.220  0.00  0.00    +0.178 C 
ATOM     17  C   LIG    1        1.543  -4.575  -0.156  0.00  0.00    +0.134 C 
ENDBRANCH   7  12
TORSDOF 1
