REMARK  Name = ZINC01680445
REMARK                            x       y       z     vdW  Elec       q    Type
REMARK                         _______ _______ _______ _____ _____    ______ ____
ROOT
ATOM      1  N   LIG    1        1.431   3.336   0.006  0.00  0.00    -0.214 N 
ATOM      2  C   LIG    1        1.120   2.006   0.002  0.00  0.00    +0.168 A 
ATOM      3  C   LIG    1        2.344   1.308  -0.013  0.00  0.00    +0.078 A 
ATOM      4  C   LIG    1        2.308  -0.099  -0.021  0.00  0.00    +0.130 A 
ATOM      5  N   LIG    1        1.124  -0.702  -0.013  0.00  0.00    -0.220 NA
ATOM      6  C   LIG    1        0.002  -0.004   0.002  0.00  0.00    +0.225 A 
ATOM      7  C   LIG    1        3.372   2.276  -0.018  0.00  0.00    +0.148 A 
ATOM      8  N   LIG    1       -0.016   1.311   0.009  0.00  0.00    -0.216 NA
ATOM      9  N   LIG    1        2.826   3.459  -0.006  0.00  0.00    -0.172 NA
ENDROOT
BRANCH   1  15
ATOM     10  C   LIG    1       -0.691   4.280  -0.662  0.00  0.00    +0.030 A 
ATOM     11  C   LIG    1       -1.596   5.323  -0.641  0.00  0.00    +0.034 A 
ATOM     12  C   LIG    1       -1.299   6.484   0.050  0.00  0.00    +0.122 A 
ATOM     13  C   LIG    1       -0.099   6.603   0.726  0.00  0.00    +0.034 A 
ATOM     14  C   LIG    1        0.808   5.561   0.713  0.00  0.00    +0.030 A 
ATOM     15  C   LIG    1        0.513   4.394   0.021  0.00  0.00    +0.068 A 
BRANCH  12  16
ATOM     16  N   LIG    1       -2.269   7.602   0.065  0.00  0.00    +0.006 N 
ATOM     17  O   LIG    1       -2.010   8.625   0.673  0.00  0.00    -0.130 OA
BRANCH  16  18
ATOM     18  O   LIG    1       -3.327   7.499  -0.530  0.00  0.00    -0.396 OA
ATOM     19  H   LIG    1       -3.527   6.712  -0.998  0.00  0.00    +0.329 HD
ENDBRANCH  16  18
ENDBRANCH  12  16
ENDBRANCH   1  15
BRANCH   4  20
ATOM     20  N   LIG    1        3.477  -0.836  -0.035  0.00  0.00    -0.342 N 
ATOM     21  H   LIG    1        4.335  -0.384  -0.041  0.00  0.00    +0.144 HD
ATOM     22  H   LIG    1        3.439  -1.805  -0.040  0.00  0.00    +0.144 HD
ENDBRANCH   4  20
TORSDOF 4
