REMARK  Name = ZINC01884638
REMARK                            x       y       z     vdW  Elec       q    Type
REMARK                         _______ _______ _______ _____ _____    ______ ____
ROOT
ATOM      1  S   LIG    1       -5.440   4.116  -1.339  0.00  0.00    +0.144 S 
ATOM      2  O   LIG    1       -4.326   4.474  -2.145  0.00  0.00    -0.132 OA
ATOM      3  O   LIG    1       -6.553   4.979  -1.153  0.00  0.00    -0.132 OA
ENDROOT
BRANCH   1   5
ATOM      4  C   LIG    1       -7.372   2.486  -2.238  0.00  0.00    +0.030 C 
ATOM      5  C   LIG    1       -6.074   2.610  -1.998  0.00  0.00    +0.178 C 
BRANCH   4   9
ATOM      6  C   LIG    1       -8.902  -1.144  -3.826  0.00  0.00    +0.000 A 
ATOM      7  C   LIG    1       -9.761  -0.093  -3.559  0.00  0.00    +0.001 A 
ATOM      8  C   LIG    1       -9.271   1.089  -3.043  0.00  0.00    +0.008 A 
ATOM      9  C   LIG    1       -7.905   1.223  -2.790  0.00  0.00    -0.024 A 
ATOM     10  C   LIG    1       -7.043   0.161  -3.066  0.00  0.00    +0.008 A 
ATOM     11  C   LIG    1       -7.547  -1.018  -3.576  0.00  0.00    +0.001 A 
ENDBRANCH   4   9
ENDBRANCH   1   5
BRANCH   1  12
ATOM     12  O   LIG    1       -4.893   3.806   0.046  0.00  0.00    -0.343 OA
BRANCH  12  13
ATOM     13  C   LIG    1       -3.709   3.143   0.037  0.00  0.00    +0.157 A 
ATOM     14  C   LIG    1       -2.515   3.857   0.035  0.00  0.00    +0.049 A 
ATOM     15  C   LIG    1       -1.316   3.193   0.026  0.00  0.00    +0.015 A 
ATOM     16  C   LIG    1       -1.294   1.793   0.018  0.00  0.00    +0.014 A 
ATOM     17  C   LIG    1       -2.499   1.079   0.014  0.00  0.00    +0.015 A 
ATOM     18  C   LIG    1       -3.693   1.753   0.029  0.00  0.00    +0.049 A 
BRANCH  16  19
ATOM     19  C   LIG    1       -0.013   1.076   0.008  0.00  0.00    +0.258 C 
ATOM     20  O   LIG    1        1.030   1.696   0.001  0.00  0.00    -0.296 OA
ENDBRANCH  16  19
ENDBRANCH  12  13
ENDBRANCH   1  12
TORSDOF 5
