REMARK  Name = ZINC01999261
REMARK                            x       y       z     vdW  Elec       q    Type
REMARK                         _______ _______ _______ _____ _____    ______ ____
ROOT
ATOM      1  C   LIG    1        1.468  -2.339   2.582  0.00  0.00    +0.080 A 
ATOM      2  C   LIG    1        0.956  -2.797   3.788  0.00  0.00    +0.221 A 
ATOM      3  N   LIG    1        1.954  -3.439   4.449  0.00  0.00    -0.213 N 
ATOM      4  N   LIG    1        3.109  -3.378   3.659  0.00  0.00    -0.209 N 
ATOM      5  C   LIG    1        2.805  -2.704   2.519  0.00  0.00    +0.279 A 
ATOM      6  O   LIG    1        3.644  -2.440   1.514  0.00  0.00    -0.265 OA
ENDROOT
BRANCH   3   7
ATOM      7  C   LIG    1        1.849  -4.049   5.704  0.00  0.00    +0.068 A 
ATOM      8  C   LIG    1        0.800  -4.920   5.967  0.00  0.00    +0.028 A 
ATOM      9  C   LIG    1        0.699  -5.521   7.207  0.00  0.00    +0.002 A 
ATOM     10  C   LIG    1        1.639  -5.255   8.185  0.00  0.00    +0.000 A 
ATOM     11  C   LIG    1        2.684  -4.387   7.926  0.00  0.00    +0.002 A 
ATOM     12  C   LIG    1        2.795  -3.788   6.686  0.00  0.00    +0.028 A 
ENDBRANCH   3   7
BRANCH   4  13
ATOM     13  C   LIG    1        4.358  -3.916   3.986  0.00  0.00    +0.068 A 
ATOM     14  C   LIG    1        4.455  -5.229   4.429  0.00  0.00    +0.028 A 
ATOM     15  C   LIG    1        5.690  -5.758   4.751  0.00  0.00    +0.002 A 
ATOM     16  C   LIG    1        6.828  -4.982   4.633  0.00  0.00    +0.000 A 
ATOM     17  C   LIG    1        6.735  -3.674   4.193  0.00  0.00    +0.002 A 
ATOM     18  C   LIG    1        5.504  -3.141   3.863  0.00  0.00    +0.028 A 
ENDBRANCH   4  13
BRANCH   2  19
ATOM     19  O   LIG    1       -0.297  -2.637   4.220  0.00  0.00    -0.492 OA
ATOM     20  H   LIG    1       -0.920  -2.178   3.692  0.00  0.00    +0.294 HD
ENDBRANCH   2  19
BRANCH   1  21
ATOM     21  C   LIG    1        0.707  -1.574   1.529  0.00  0.00    +0.046 C 
BRANCH  21  22
ATOM     22  C   LIG    1        0.920  -0.073   1.735  0.00  0.00    +0.005 C 
BRANCH  22  24
ATOM     23  C   LIG    1        0.361   2.204   0.871  0.00  0.00    +0.004 C 
ATOM     24  C   LIG    1        0.148   0.703   0.666  0.00  0.00    -0.003 C 
ENDBRANCH  22  24
ENDBRANCH  21  22
ENDBRANCH   1  21
TORSDOF 6
