REMARK  Name = ZINC02033994
REMARK                            x       y       z     vdW  Elec       q    Type
REMARK                         _______ _______ _______ _____ _____    ______ ____
ROOT
ATOM      1  N   LIG    1       -3.253   1.993   2.123  0.00  0.00    +0.381 N 
ATOM      2  H   LIG    1       -2.617   2.717   1.770  0.00  0.00    -0.086 HD
ATOM      3  H   LIG    1       -4.223   2.258   1.912  0.00  0.00    -0.086 HD
ENDROOT
BRANCH   1   5
ATOM      4  C   LIG    1       -4.191  -0.178   1.465  0.00  0.00    -0.013 C 
ATOM      5  C   LIG    1       -2.945   0.711   1.462  0.00  0.00    -0.071 C 
BRANCH   5   6
ATOM      6  C   LIG    1       -2.514   0.980   0.019  0.00  0.00    +0.019 C 
BRANCH   6   7
ATOM      7  C   LIG    1       -1.219   1.751   0.017  0.00  0.00    -0.049 A 
ATOM      8  C   LIG    1       -0.013   1.076   0.008  0.00  0.00    +0.003 A 
ATOM      9  C   LIG    1        1.175   1.783   0.000  0.00  0.00    +0.000 A 
ATOM     10  C   LIG    1        1.156   3.165   0.008  0.00  0.00    +0.000 A 
ATOM     11  C   LIG    1       -0.050   3.840   0.022  0.00  0.00    +0.000 A 
ATOM     12  C   LIG    1       -1.238   3.133   0.030  0.00  0.00    +0.003 A 
ENDBRANCH   6   7
ENDBRANCH   5   6
ENDBRANCH   1   5
BRANCH   1  13
ATOM     13  C   LIG    1       -3.088   1.870   3.583  0.00  0.00    -0.078 C 
BRANCH  13  14
ATOM     14  C   LIG    1       -3.414   3.213   4.239  0.00  0.00    +0.016 C 
BRANCH  14  15
ATOM     15  C   LIG    1       -3.248   3.096   5.733  0.00  0.00    -0.049 A 
ATOM     16  C   LIG    1       -4.320   2.720   6.520  0.00  0.00    +0.003 A 
ATOM     17  C   LIG    1       -4.167   2.608   7.889  0.00  0.00    +0.000 A 
ATOM     18  C   LIG    1       -2.943   2.882   8.472  0.00  0.00    +0.000 A 
ATOM     19  C   LIG    1       -1.873   3.264   7.685  0.00  0.00    +0.000 A 
ATOM     20  C   LIG    1       -2.025   3.371   6.316  0.00  0.00    +0.003 A 
ENDBRANCH  14  15
ENDBRANCH  13  14
ENDBRANCH   1  13
TORSDOF 6
