REMARK  Name = ZINC01841718
REMARK                            x       y       z     vdW  Elec       q    Type
REMARK                         _______ _______ _______ _____ _____    ______ ____
ROOT
ATOM      1  C   LIG    1       -0.019   1.526   0.010  0.00  0.00    +0.070 C 
ATOM      2  C   LIG    1        0.002  -0.004   0.002  0.00  0.00    +0.194 C 
ATOM      3  C   LIG    1        0.791  -0.515  -1.188  0.00  0.00    +0.207 C 
ATOM      4  C   LIG    1        1.896  -1.271  -0.590  0.00  0.00    +0.103 C 
ATOM      5  C   LIG    1        1.773  -1.213   0.751  0.00  0.00    +0.209 C 
ATOM      6  O   LIG    1        0.560  -0.337  -2.366  0.00  0.00    -0.288 OA
ATOM      7  O   LIG    1        0.705  -0.499   1.147  0.00  0.00    -0.466 OA
ENDROOT
BRANCH   2   8
ATOM      8  C   LIG    1       -1.404  -0.547  -0.025  0.00  0.00    +0.003 A 
ATOM      9  C   LIG    1       -2.020  -0.807  -1.235  0.00  0.00    +0.008 A 
ATOM     10  C   LIG    1       -3.310  -1.305  -1.260  0.00  0.00    +0.000 A 
ATOM     11  C   LIG    1       -3.982  -1.542  -0.076  0.00  0.00    +0.000 A 
ATOM     12  C   LIG    1       -3.365  -1.282   1.134  0.00  0.00    +0.000 A 
ATOM     13  C   LIG    1       -2.074  -0.789   1.159  0.00  0.00    +0.008 A 
ENDBRANCH   2   8
BRANCH   5  14
ATOM     14  C   LIG    1        2.716  -1.867   1.690  0.00  0.00    +0.372 C 
ATOM     15  O   LIG    1        3.667  -2.502   1.258  0.00  0.00    -0.242 OA
BRANCH  14  16
ATOM     16  O   LIG    1        2.542  -1.772   2.896  0.00  0.00    -0.475 OA
ATOM     17  H   LIG    1        1.813  -1.286   3.227  0.00  0.00    +0.296 HD
ENDBRANCH  14  16
ENDBRANCH   5  14
TORSDOF 3
