REMARK  Name = ZINC02149995
REMARK                            x       y       z     vdW  Elec       q    Type
REMARK                         _______ _______ _______ _____ _____    ______ ____
ROOT
ATOM      1  C   LIG    1        4.873  -3.937   2.375  0.00  0.00    +0.189 C 
ENDROOT
BRANCH   1   2
ATOM      2  N   LIG    1        5.677  -3.066   1.513  0.00  0.00    -0.176 NA
ATOM      3  H   LIG    1        6.469  -2.632   1.866  0.00  0.00    +0.149 HD
BRANCH   2   4
ATOM      4  S   LIG    1        5.231  -2.823  -0.063  0.00  0.00    +0.059 S 
ATOM      5  O   LIG    1        6.181  -1.923  -0.619  0.00  0.00    -0.153 OA
ATOM      6  O   LIG    1        4.984  -4.107  -0.618  0.00  0.00    -0.153 OA
BRANCH   4  12
ATOM      7  C   LIG    1       -0.016   1.357   0.009  0.00  0.00    +0.001 A 
ATOM      8  C   LIG    1        1.169   2.091   0.002  0.00  0.00    +0.001 A 
ATOM      9  C   LIG    1        2.378   1.468  -0.013  0.00  0.00    +0.008 A 
ATOM     10  C   LIG    1        2.438   0.063  -0.021  0.00  0.00    -0.016 A 
ATOM     11  C   LIG    1        3.668  -0.615  -0.036  0.00  0.00    +0.037 A 
ATOM     12  C   LIG    1        3.687  -1.976  -0.043  0.00  0.00    +0.106 A 
ATOM     13  C   LIG    1        2.502  -2.710  -0.036  0.00  0.00    +0.029 A 
ATOM     14  C   LIG    1        1.292  -2.087  -0.021  0.00  0.00    +0.010 A 
ATOM     15  C   LIG    1        1.233  -0.683  -0.013  0.00  0.00    -0.018 A 
ATOM     16  C   LIG    1        0.002  -0.004   0.002  0.00  0.00    +0.008 A 
ENDBRANCH   4  12
ENDBRANCH   2   4
ENDBRANCH   1   2
BRANCH   1  17
ATOM     17  C   LIG    1        5.459  -5.325   2.372  0.00  0.00    +0.324 C 
ATOM     18  O   LIG    1        6.657  -5.481   2.212  0.00  0.00    -0.249 OA
BRANCH  17  19
ATOM     19  O   LIG    1        4.734  -6.293   2.530  0.00  0.00    -0.479 OA
ATOM     20  H   LIG    1        3.813  -6.173   2.653  0.00  0.00    +0.295 HD
ENDBRANCH  17  19
ENDBRANCH   1  17
BRANCH   1  21
ATOM     21  C   LIG    1        4.877  -3.385   3.802  0.00  0.00    +0.069 C 
BRANCH  21  22
ATOM     22  C   LIG    1        4.181  -2.049   3.826  0.00  0.00    -0.020 A 
ATOM     23  C   LIG    1        4.764  -0.843   3.733  0.00  0.00    +0.087 A 
ATOM     24  N   LIG    1        3.814   0.140   3.792  0.00  0.00    -0.360 N 
ATOM     25  C   LIG    1        2.565  -0.423   3.927  0.00  0.00    +0.047 A 
ATOM     26  C   LIG    1        1.282   0.105   4.032  0.00  0.00    +0.026 A 
ATOM     27  C   LIG    1        0.201  -0.741   4.144  0.00  0.00    +0.002 A 
ATOM     28  C   LIG    1        0.378  -2.117   4.169  0.00  0.00    +0.001 A 
ATOM     29  C   LIG    1        1.630  -2.657   4.072  0.00  0.00    +0.010 A 
ATOM     30  H   LIG    1        3.994   1.092   3.745  0.00  0.00    +0.165 HD
ATOM     31  C   LIG    1        2.739  -1.819   3.948  0.00  0.00    +0.003 A 
ENDBRANCH  21  22
ENDBRANCH   1  21
TORSDOF 7
