REMARK  Name = ZINC02086480
REMARK                            x       y       z     vdW  Elec       q    Type
REMARK                         _______ _______ _______ _____ _____    ______ ____
ROOT
ATOM      1  N   LIG    1       -3.226   5.673  -0.804  0.00  0.00    -0.281 N 
ATOM      2  H   LIG    1       -2.586   5.463  -0.107  0.00  0.00    +0.155 HD
ATOM      3  C   LIG    1       -2.861   6.452  -1.842  0.00  0.00    +0.254 C 
ATOM      4  O   LIG    1       -3.687   6.789  -2.669  0.00  0.00    -0.270 OA
ENDROOT
BRANCH   1   8
ATOM      5  C   LIG    1       -7.111   4.170  -0.591  0.00  0.00    +0.030 A 
ATOM      6  C   LIG    1       -6.499   4.341  -1.826  0.00  0.00    +0.025 A 
ATOM      7  C   LIG    1       -5.213   4.839  -1.897  0.00  0.00    +0.025 A 
ATOM      8  C   LIG    1       -4.531   5.168  -0.733  0.00  0.00    +0.034 A 
ATOM      9  C   LIG    1       -5.141   4.992   0.503  0.00  0.00    +0.025 A 
ATOM     10  C   LIG    1       -6.428   4.499   0.573  0.00  0.00    +0.025 A 
BRANCH   5  11
ATOM     11  N   LIG    1       -8.414   3.666  -0.519  0.00  0.00    -0.330 N 
BRANCH  11  13
ATOM     12  C   LIG    1       -9.806   4.765   1.164  0.00  0.00    +0.024 C 
ATOM     13  C   LIG    1       -9.059   3.485   0.783  0.00  0.00    +0.102 C 
ENDBRANCH  11  13
BRANCH  11  14
ATOM     14  C   LIG    1       -9.133   3.319  -1.748  0.00  0.00    +0.102 C 
ATOM     15  C   LIG    1       -8.861   1.856  -2.102  0.00  0.00    +0.024 C 
ENDBRANCH  11  14
ENDBRANCH   5  11
ENDBRANCH   1   8
BRANCH   3  16
ATOM     16  C   LIG    1       -1.463   6.894  -1.974  0.00  0.00    +0.106 A 
ATOM     17  C   LIG    1       -0.454   6.333  -2.716  0.00  0.00    +0.147 A 
ATOM     18  C   LIG    1       -0.551   5.106  -3.585  0.00  0.00    +0.090 C 
ATOM     19  O   LIG    1        0.629   7.087  -2.517  0.00  0.00    -0.359 OA
ATOM     20  N   LIG    1        0.435   8.020  -1.777  0.00  0.00    -0.077 NA
ATOM     21  C   LIG    1       -0.799   8.054  -1.341  0.00  0.00    +0.129 A 
BRANCH  21  22
ATOM     22  C   LIG    1       -1.403   9.044  -0.418  0.00  0.00    +0.041 A 
ATOM     23  C   LIG    1       -0.864   9.234   0.855  0.00  0.00    +0.052 A 
ATOM     24 CL   LIG    1        0.516   8.311   1.362  0.00  0.00    -0.083 Cl
ATOM     25  C   LIG    1       -1.430  10.159   1.711  0.00  0.00    +0.021 A 
ATOM     26  C   LIG    1       -2.529  10.896   1.308  0.00  0.00    +0.003 A 
ATOM     27  C   LIG    1       -3.071  10.709   0.049  0.00  0.00    +0.021 A 
ATOM     28  C   LIG    1       -2.511   9.791  -0.818  0.00  0.00    +0.052 A 
ATOM     29 CL   LIG    1       -3.188   9.562  -2.400  0.00  0.00    -0.083 Cl
ENDBRANCH  21  22
ENDBRANCH   3  16
TORSDOF 6
