REMARK  Name = ZINC01891034
REMARK                            x       y       z     vdW  Elec       q    Type
REMARK                         _______ _______ _______ _____ _____    ______ ____
ROOT
ATOM      1  N   LIG    1       -4.926   5.080   0.064  0.00  0.00    -0.309 N 
ATOM      2  H   LIG    1       -4.088   5.569   0.064  0.00  0.00    +0.149 HD
ATOM      3  C   LIG    1       -4.918   3.732   0.050  0.00  0.00    +0.248 C 
ATOM      4  O   LIG    1       -5.968   3.118   0.049  0.00  0.00    -0.270 OA
ENDROOT
BRANCH   3   5
ATOM      5  C   LIG    1       -3.640   3.003   0.036  0.00  0.00    +0.080 A 
ATOM      6  C   LIG    1       -2.433   3.708   0.036  0.00  0.00    +0.038 A 
ATOM      7  C   LIG    1       -1.242   3.041   0.030  0.00  0.00    +0.063 A 
ATOM      8 CL   LIG    1        0.250   3.927   0.033  0.00  0.00    -0.082 Cl
ATOM      9  C   LIG    1       -1.225   1.645   0.017  0.00  0.00    +0.050 A 
ATOM     10  C   LIG    1       -2.414   0.935   0.019  0.00  0.00    +0.020 A 
ATOM     11  C   LIG    1       -2.713  -0.552   0.029  0.00  0.00    +0.081 C 
ATOM     12  C   LIG    1       -4.205  -0.574   0.436  0.00  0.00    +0.234 C 
ATOM     13  O   LIG    1       -4.670   0.717   0.005  0.00  0.00    -0.491 OA
ATOM     14  C   LIG    1       -3.633   1.594   0.021  0.00  0.00    +0.138 A 
BRANCH   9  15
ATOM     15  N   LIG    1       -0.011   0.966   0.007  0.00  0.00    -0.357 N 
ATOM     16  H   LIG    1        0.822   1.462   0.002  0.00  0.00    +0.142 HD
ATOM     17  H   LIG    1        0.002  -0.004   0.002  0.00  0.00    +0.142 HD
ENDBRANCH   9  15
ENDBRANCH   3   5
BRANCH   1  22
ATOM     18  N   LIG    1       -7.734   8.111  -0.751  0.00  0.00    +0.380 N 
ATOM     19  H   LIG    1       -6.979   8.562  -1.281  0.00  0.00    -0.082 HD
ATOM     20  C   LIG    1       -8.006   6.782  -1.340  0.00  0.00    -0.077 C 
ATOM     21  C   LIG    1       -6.709   5.971  -1.356  0.00  0.00    +0.003 C 
ATOM     22  C   LIG    1       -6.198   5.805   0.078  0.00  0.00    +0.070 C 
ATOM     23  C   LIG    1       -5.991   7.189   0.701  0.00  0.00    +0.003 C 
ATOM     24  C   LIG    1       -7.310   7.965   0.657  0.00  0.00    -0.077 C 
BRANCH  18  25
ATOM     25  C   LIG    1       -8.945   8.954  -0.828  0.00  0.00    -0.077 C 
BRANCH  25  26
ATOM     26  C   LIG    1       -9.525   8.870  -2.241  0.00  0.00    +0.009 C 
BRANCH  26  27
ATOM     27  C   LIG    1      -10.764   9.763  -2.338  0.00  0.00    +0.157 C 
BRANCH  27  29
ATOM     28  C   LIG    1      -12.473  10.486  -3.856  0.00  0.00    +0.193 C 
ATOM     29  O   LIG    1      -11.306   9.684  -3.658  0.00  0.00    -0.383 OA
ENDBRANCH  27  29
ENDBRANCH  26  27
ENDBRANCH  25  26
ENDBRANCH  18  25
ENDBRANCH   1  22
TORSDOF 7
