REMARK  Name = ZINC02041003
REMARK                            x       y       z     vdW  Elec       q    Type
REMARK                         _______ _______ _______ _____ _____    ______ ____
ROOT
ATOM      1  C   LIG    1       -0.017   1.395   0.010  0.00  0.00    +0.146 A 
ATOM      2  C   LIG    1       -1.368   1.779   0.018  0.00  0.00    +0.169 A 
ATOM      3  N   LIG    1       -1.681   3.070   0.026  0.00  0.00    -0.173 NA
ATOM      4  C   LIG    1       -0.734   4.003   0.026  0.00  0.00    +0.350 A 
ATOM      5  N   LIG    1        0.572   3.681   0.019  0.00  0.00    -0.276 N 
ATOM      6  H   LIG    1        1.242   4.383   0.020  0.00  0.00    +0.173 HD
ATOM      7  O   LIG    1       -1.058   5.179   0.034  0.00  0.00    -0.245 OA
ATOM      8  N   LIG    1       -2.111   0.620   0.015  0.00  0.00    -0.291 N 
ATOM      9  C   LIG    1       -1.275  -0.435   0.005  0.00  0.00    +0.326 A 
ATOM     10  O   LIG    1       -1.620  -1.601  -0.000  0.00  0.00    -0.247 OA
ATOM     11  H   LIG    1       -3.080   0.571   0.019  0.00  0.00    +0.172 HD
ATOM     12  C   LIG    1        0.958   2.370   0.006  0.00  0.00    +0.222 A 
ATOM     13  N   LIG    1        0.002  -0.004   0.002  0.00  0.00    -0.301 N 
ATOM     14  H   LIG    1        0.794  -0.564  -0.009  0.00  0.00    +0.171 HD
ENDROOT
BRANCH  12  15
ATOM     15  O   LIG    1        2.267   2.036  -0.008  0.00  0.00    -0.492 OA
ATOM     16  H   LIG    1        2.521   1.134  -0.017  0.00  0.00    +0.294 HD
ENDBRANCH  12  15
TORSDOF 1
