REMARK  Name = ZINC02041362
REMARK                            x       y       z     vdW  Elec       q    Type
REMARK                         _______ _______ _______ _____ _____    ______ ____
ROOT
ATOM      1  C   LIG    1        6.503   0.868  -2.575  0.00  0.00    +0.405 C 
ATOM      2  N   LIG    1        7.192   0.467  -3.662  0.00  0.00    -0.251 N 
ATOM      3  H   LIG    1        6.790  -0.154  -4.289  0.00  0.00    +0.158 HD
ATOM      4  O   LIG    1        7.035   1.579  -1.746  0.00  0.00    -0.226 OA
ENDROOT
BRANCH   2   5
ATOM      5  C   LIG    1        8.488   0.946  -3.885  0.00  0.00    +0.038 A 
ATOM      6  C   LIG    1        8.927   1.187  -5.180  0.00  0.00    +0.023 A 
ATOM      7  C   LIG    1       10.206   1.659  -5.398  0.00  0.00    +0.003 A 
ATOM      8  C   LIG    1       11.051   1.892  -4.327  0.00  0.00    +0.020 A 
ATOM      9  C   LIG    1       10.616   1.653  -3.036  0.00  0.00    +0.043 A 
ATOM     10 CL   LIG    1       11.680   1.946  -1.695  0.00  0.00    -0.083 Cl
ATOM     11  C   LIG    1        9.335   1.186  -2.812  0.00  0.00    +0.043 A 
ENDBRANCH   2   5
BRANCH   1  12
ATOM     12  O   LIG    1        5.224   0.482  -2.409  0.00  0.00    -0.437 OA
BRANCH  12  13
ATOM     13  C   LIG    1        4.554   0.945  -1.234  0.00  0.00    +0.322 C 
BRANCH  13  15
ATOM     14  C   LIG    1        2.077   0.015  -1.208  0.00  0.00    -0.117 C 
ATOM     15  C   LIG    1        3.176   0.427  -1.220  0.00  0.00    -0.063 C 
BRANCH  14  16
ATOM     16  C   LIG    1        0.699  -0.502  -1.193  0.00  0.00    +0.015 C 
BRANCH  16  18
ATOM     17  C   LIG    1       -0.018   1.442   0.016  0.00  0.00    -0.091 C 
ATOM     18  N   LIG    1        0.010  -0.026   0.015  0.00  0.00    +0.382 N 
ATOM     19  C   LIG    1       -1.365  -0.543   0.029  0.00  0.00    -0.091 C 
ATOM     20  C   LIG    1        0.725  -0.503   1.206  0.00  0.00    -0.091 C 
ENDBRANCH  16  18
ENDBRANCH  14  16
ENDBRANCH  13  15
ENDBRANCH  12  13
ENDBRANCH   1  12
TORSDOF 6
