REMARK  Name = ZINC01690194
REMARK                            x       y       z     vdW  Elec       q    Type
REMARK                         _______ _______ _______ _____ _____    ______ ____
ROOT
ATOM      1  C   LIG    1        0.049   1.361  -0.481  0.00  0.00    +0.001 A 
ATOM      2  C   LIG    1        1.244   2.064  -0.468  0.00  0.00    +0.002 A 
ATOM      3  C   LIG    1        2.446   1.403  -0.330  0.00  0.00    +0.026 A 
ATOM      4  C   LIG    1        2.466   0.018  -0.203  0.00  0.00    +0.047 A 
ATOM      5  C   LIG    1        1.254  -0.691  -0.217  0.00  0.00    +0.007 A 
ATOM      6  C   LIG    1        1.618  -2.114  -0.065  0.00  0.00    +0.001 A 
ATOM      7  C   LIG    1        2.996  -2.151   0.027  0.00  0.00    +0.091 A 
ATOM      8  N   LIG    1        3.487  -0.899  -0.054  0.00  0.00    -0.360 N 
ATOM      9  H   LIG    1        4.429  -0.673  -0.014  0.00  0.00    +0.165 HD
ATOM     10  C   LIG    1        0.048  -0.011  -0.357  0.00  0.00    +0.010 A 
ENDROOT
BRANCH   6  11
ATOM     11  C   LIG    1        0.734  -3.216  -0.022  0.00  0.00    +0.034 C 
ATOM     12  C   LIG    1        1.169  -4.433   0.474  0.00  0.00    +0.114 C 
BRANCH  12  13
ATOM     13  C   LIG    1        0.305  -5.616   0.377  0.00  0.00    +0.252 C 
ATOM     14  N   LIG    1        0.728  -6.801   0.861  0.00  0.00    -0.325 N 
ATOM     15  H   LIG    1        0.158  -7.582   0.796  0.00  0.00    +0.145 HD
ATOM     16  H   LIG    1        1.603  -6.872   1.273  0.00  0.00    +0.145 HD
ATOM     17  O   LIG    1       -0.793  -5.527  -0.140  0.00  0.00    -0.270 OA
ENDBRANCH  12  13
BRANCH  12  18
ATOM     18  C   LIG    1        2.461  -4.537   1.083  0.00  0.00    +0.104 C 
ATOM     19  N   LIG    1        3.486  -4.620   1.565  0.00  0.00    -0.191 NA
ENDBRANCH  12  18
ENDBRANCH   6  11
TORSDOF 3
