REMARK  Name = ZINC01671629
REMARK                            x       y       z     vdW  Elec       q    Type
REMARK                         _______ _______ _______ _____ _____    ______ ____
ROOT
ATOM      1  C   LIG    1        2.380   1.425  -0.013  0.00  0.00    +0.001 A 
ATOM      2  C   LIG    1        1.156   2.092   0.002  0.00  0.00    +0.001 A 
ATOM      3  C   LIG    1       -0.017   1.402   0.010  0.00  0.00    +0.008 A 
ATOM      4  C   LIG    1        0.002  -0.004   0.002  0.00  0.00    -0.017 A 
ATOM      5  C   LIG    1       -1.189  -0.746   0.009  0.00  0.00    +0.017 A 
ATOM      6  C   LIG    1       -1.130  -2.127   0.001  0.00  0.00    -0.017 A 
ATOM      7  C   LIG    1        0.109  -2.789  -0.015  0.00  0.00    +0.009 A 
ATOM      8  C   LIG    1        1.273  -2.089  -0.022  0.00  0.00    +0.009 A 
ATOM      9  C   LIG    1        1.247  -0.682  -0.013  0.00  0.00    -0.018 A 
ATOM     10  C   LIG    1        2.437   0.065  -0.021  0.00  0.00    +0.008 A 
ENDROOT
BRANCH   6  11
ATOM     11  C   LIG    1       -2.385  -2.917   0.008  0.00  0.00    -0.018 A 
ATOM     12  C   LIG    1       -3.619  -2.268   0.029  0.00  0.00    +0.012 A 
ATOM     13  C   LIG    1       -4.784  -3.005   0.029  0.00  0.00    +0.046 A 
ATOM     14  C   LIG    1       -4.730  -4.392   0.021  0.00  0.00    +0.117 A 
ATOM     15  C   LIG    1       -3.503  -5.042   0.006  0.00  0.00    +0.046 A 
ATOM     16  C   LIG    1       -2.334  -4.310  -0.001  0.00  0.00    +0.012 A 
BRANCH  14  17
ATOM     17  O   LIG    1       -5.880  -5.116   0.026  0.00  0.00    -0.507 OA
ATOM     18  H   LIG    1       -6.205  -5.330   0.912  0.00  0.00    +0.292 HD
ENDBRANCH  14  17
ENDBRANCH   6  11
TORSDOF 2
