REMARK  Name = ZINC02383130
REMARK                            x       y       z     vdW  Elec       q    Type
REMARK                         _______ _______ _______ _____ _____    ______ ____
ROOT
ATOM      1  C   LIG    1       -1.746  -1.027  -1.429  0.00  0.00    +0.126 C 
ENDROOT
BRANCH   1   2
ATOM      2  C   LIG    1       -3.100  -1.688  -1.421  0.00  0.00    -0.030 A 
ATOM      3  C   LIG    1       -3.269  -2.908  -0.793  0.00  0.00    +0.008 A 
ATOM      4  C   LIG    1       -4.510  -3.516  -0.784  0.00  0.00    +0.046 A 
ATOM      5  C   LIG    1       -5.587  -2.901  -1.406  0.00  0.00    +0.117 A 
ATOM      6  C   LIG    1       -5.415  -1.677  -2.035  0.00  0.00    +0.046 A 
ATOM      7  C   LIG    1       -4.173  -1.070  -2.037  0.00  0.00    +0.008 A 
BRANCH   5   8
ATOM      8  O   LIG    1       -6.808  -3.497  -1.400  0.00  0.00    -0.507 OA
ATOM      9  H   LIG    1       -7.360  -3.255  -0.644  0.00  0.00    +0.292 HD
ENDBRANCH   5   8
ENDBRANCH   1   2
BRANCH   1  10
ATOM     10  C   LIG    1       -0.775  -1.906  -2.101  0.00  0.00    +0.071 C 
ATOM     11  N   LIG    1       -0.026  -2.584  -2.620  0.00  0.00    -0.196 NA
ENDBRANCH   1  10
BRANCH   1  12
ATOM     12  C   LIG    1       -1.293  -0.774   0.011  0.00  0.00    +0.058 C 
BRANCH  12  18
ATOM     13  C   LIG    1       -0.017   1.378   0.010  0.00  0.00    +0.007 A 
ATOM     14  C   LIG    1        1.169   2.087   0.002  0.00  0.00    +0.045 A 
ATOM     15  C   LIG    1        2.380   1.409  -0.013  0.00  0.00    +0.117 A 
ATOM     16  C   LIG    1        2.396   0.022  -0.021  0.00  0.00    +0.045 A 
ATOM     17  C   LIG    1        1.207  -0.681  -0.013  0.00  0.00    +0.007 A 
ATOM     18  C   LIG    1        0.002  -0.004   0.002  0.00  0.00    -0.046 A 
BRANCH  15  19
ATOM     19  O   LIG    1        3.548   2.104  -0.021  0.00  0.00    -0.507 OA
ATOM     20  H   LIG    1        3.895   2.300   0.860  0.00  0.00    +0.292 HD
ENDBRANCH  15  19
ENDBRANCH  12  18
ENDBRANCH   1  12
TORSDOF 6
