REMARK  Name = ZINC02017274
REMARK                            x       y       z     vdW  Elec       q    Type
REMARK                         _______ _______ _______ _____ _____    ______ ____
ROOT
ATOM      1  C   LIG    1       -5.313   0.539  -1.401  0.00  0.00    +0.089 C 
ATOM      2  C   LIG    1       -6.507   1.456  -1.387  0.00  0.00    -0.023 A 
ATOM      3  C   LIG    1       -6.506   2.527  -0.503  0.00  0.00    +0.054 A 
ATOM      4  C   LIG    1       -7.578   3.399  -0.458  0.00  0.00    +0.159 A 
ATOM      5  C   LIG    1       -8.665   3.201  -1.305  0.00  0.00    +0.158 A 
ATOM      6  C   LIG    1       -8.663   2.131  -2.182  0.00  0.00    +0.053 A 
ATOM      7  C   LIG    1       -7.586   1.258  -2.223  0.00  0.00    -0.038 A 
ATOM      8  C   LIG    1       -7.636   0.102  -3.188  0.00  0.00    +0.050 C 
ATOM      9  C   LIG    1       -6.236  -0.480  -3.380  0.00  0.00    +0.086 C 
ATOM     10  N   LIG    1       -5.648  -0.730  -2.055  0.00  0.00    -0.309 NA
ATOM     11  H   LIG    1       -4.837  -1.326  -2.126  0.00  0.00    +0.123 HD
ENDROOT
BRANCH   4  12
ATOM     12  O   LIG    1       -7.571   4.446   0.410  0.00  0.00    -0.503 OA
ATOM     13  H   LIG    1       -7.183   5.254   0.049  0.00  0.00    +0.292 HD
ENDBRANCH   4  12
BRANCH   5  14
ATOM     14  O   LIG    1       -9.723   4.054  -1.270  0.00  0.00    -0.503 OA
ATOM     15  H   LIG    1       -9.643   4.805  -1.874  0.00  0.00    +0.292 HD
ENDBRANCH   5  14
BRANCH   1  16
ATOM     16  C   LIG    1       -4.871   0.264   0.038  0.00  0.00    +0.058 C 
BRANCH  16  19
ATOM     17  C   LIG    1       -1.201  -0.638   0.010  0.00  0.00    +0.165 A 
ATOM     18  C   LIG    1       -2.375   0.101   0.019  0.00  0.00    +0.053 A 
ATOM     19  C   LIG    1       -3.598  -0.543   0.028  0.00  0.00    -0.038 A 
ATOM     20  C   LIG    1       -3.657  -1.924   0.027  0.00  0.00    +0.053 A 
ATOM     21  C   LIG    1       -2.488  -2.670   0.017  0.00  0.00    +0.165 A 
ATOM     22  C   LIG    1       -1.256  -2.027   0.003  0.00  0.00    +0.204 A 
BRANCH  17  24
ATOM     23  C   LIG    1       -0.017   1.425   0.010  0.00  0.00    +0.277 C 
ATOM     24  O   LIG    1        0.002  -0.004   0.002  0.00  0.00    -0.491 OA
ENDBRANCH  17  24
BRANCH  21  25
ATOM     25  O   LIG    1       -2.547  -4.028   0.017  0.00  0.00    -0.491 OA
ATOM     26  C   LIG    1       -3.847  -4.621   0.026  0.00  0.00    +0.277 C 
ENDBRANCH  21  25
BRANCH  22  27
ATOM     27  O   LIG    1       -0.106  -2.755  -0.012  0.00  0.00    -0.488 OA
ATOM     28  C   LIG    1        0.454  -3.109   1.254  0.00  0.00    +0.277 C 
ENDBRANCH  22  27
ENDBRANCH  16  19
ENDBRANCH   1  16
TORSDOF 7
