REMARK  Name = ZINC02169010
REMARK                            x       y       z     vdW  Elec       q    Type
REMARK                         _______ _______ _______ _____ _____    ______ ____
ROOT
ATOM      1  C   LIG    1       -3.454   2.908   0.049  0.00  0.00    +0.022 A 
ATOM      2  C   LIG    1       -2.978   4.207   0.052  0.00  0.00    +0.023 A 
ATOM      3  C   LIG    1       -1.618   4.462   0.041  0.00  0.00    +0.063 A 
ATOM      4 CL   LIG    1       -1.044   6.100   0.044  0.00  0.00    -0.082 Cl
ATOM      5  C   LIG    1       -0.710   3.410   0.027  0.00  0.00    +0.065 A 
ATOM      6  C   LIG    1       -1.194   2.092   0.018  0.00  0.00    +0.068 A 
ATOM      7  C   LIG    1       -0.014   1.210   0.009  0.00  0.00    +0.251 C 
ATOM      8  C   LIG    1        1.162   2.140   0.003  0.00  0.00    +0.289 C 
ATOM      9  O   LIG    1        2.331   1.818  -0.010  0.00  0.00    -0.266 OA
ATOM     10  O   LIG    1        0.002  -0.004   0.002  0.00  0.00    -0.282 OA
ATOM     11  N   LIG    1        0.683   3.397   0.014  0.00  0.00    -0.277 N 
ATOM     12  H   LIG    1        1.238   4.192   0.013  0.00  0.00    +0.155 HD
ATOM     13  C   LIG    1       -2.569   1.846   0.035  0.00  0.00    +0.054 A 
ATOM     14 CL   LIG    1       -3.163   0.215   0.032  0.00  0.00    -0.083 Cl
ENDROOT
TORSDOF 0
