REMARK  Name = ZINC02037153
REMARK                            x       y       z     vdW  Elec       q    Type
REMARK                         _______ _______ _______ _____ _____    ______ ____
ROOT
ATOM      1  O   LIG    1       -0.406  -2.820  -1.630  0.00  0.00    -0.384 OA
ENDROOT
BRANCH   1   2
ATOM      2  C   LIG    1       -0.250  -4.146  -1.871  0.00  0.00    +0.245 A 
ATOM      3  C   LIG    1       -0.246  -4.611  -3.181  0.00  0.00    +0.104 A 
ATOM      4 CL   LIG    1       -0.438  -3.507  -4.507  0.00  0.00    -0.078 Cl
ATOM      5  C   LIG    1       -0.087  -5.967  -3.414  0.00  0.00    +0.048 A 
ATOM      6  C   LIG    1        0.063  -6.814  -2.324  0.00  0.00    +0.079 A 
ATOM      7 CL   LIG    1        0.265  -8.522  -2.560  0.00  0.00    -0.080 Cl
ATOM      8  C   LIG    1        0.049  -6.281  -1.048  0.00  0.00    +0.151 A 
ATOM      9 CL   LIG    1        0.234  -7.332   0.322  0.00  0.00    -0.060 Cl
ATOM     10  N   LIG    1       -0.100  -4.983  -0.858  0.00  0.00    -0.198 NA
ENDBRANCH   1   2
BRANCH   1  11
ATOM     11  P   LIG    1        0.980  -2.023  -1.438  0.00  0.00    +0.534 P 
ATOM     12  O   LIG    1        1.843  -2.241  -2.620  0.00  0.00    -0.215 OA
BRANCH  11  13
ATOM     13  O   LIG    1        0.677  -0.450  -1.278  0.00  0.00    -0.277 OA
BRANCH  13  15
ATOM     14  C   LIG    1       -0.048   1.622  -0.266  0.00  0.00    +0.035 C 
ATOM     15  C   LIG    1       -0.046   0.095  -0.172  0.00  0.00    +0.170 C 
ENDBRANCH  13  15
ENDBRANCH  11  13
BRANCH  11  16
ATOM     16  O   LIG    1        1.731  -2.562  -0.119  0.00  0.00    -0.277 OA
BRANCH  16  17
ATOM     17  C   LIG    1        3.036  -2.126   0.266  0.00  0.00    +0.170 C 
ATOM     18  C   LIG    1        3.448  -2.832   1.560  0.00  0.00    +0.035 C 
ENDBRANCH  16  17
ENDBRANCH  11  16
ENDBRANCH   1  11
TORSDOF 6
