REMARK  Name = ZINC01704463
REMARK                            x       y       z     vdW  Elec       q    Type
REMARK                         _______ _______ _______ _____ _____    ______ ____
ROOT
ATOM      1  C   LIG    1        0.002  -0.004   0.002  0.00  0.00    -0.093 C 
ATOM      2  N   LIG    1       -0.018   1.465   0.010  0.00  0.00    +0.374 N 
ATOM      3  C   LIG    1       -0.728   1.951  -1.180  0.00  0.00    -0.093 C 
ATOM      4  C   LIG    1        1.360   1.973  -0.000  0.00  0.00    -0.093 C 
ENDROOT
BRANCH   2   5
ATOM      5  C   LIG    1       -0.705   1.938   1.219  0.00  0.00    -0.075 C 
BRANCH   5   6
ATOM      6  C   LIG    1        0.035   1.432   2.458  0.00  0.00    -0.007 C 
BRANCH   6   7
ATOM      7  C   LIG    1       -0.682   1.925   3.717  0.00  0.00    +0.078 C 
ATOM      8 BR   LIG    1        0.269   1.274   5.310  0.00  0.00    -0.092 Br
ENDBRANCH   6   7
ENDBRANCH   5   6
ENDBRANCH   2   5
TORSDOF 3
