REMARK  Name = ZINC01882025
REMARK                            x       y       z     vdW  Elec       q    Type
REMARK                         _______ _______ _______ _____ _____    ______ ____
ROOT
ATOM      1  S   LIG    1       -0.019   1.518   0.010  0.00  0.00    +0.144 S 
ATOM      2  O   LIG    1       -0.563   1.910   1.263  0.00  0.00    -0.132 OA
ATOM      3  O   LIG    1       -0.587   1.923  -1.227  0.00  0.00    -0.132 OA
ENDROOT
BRANCH   1   5
ATOM      4  C   LIG    1        2.128   2.733  -1.044  0.00  0.00    +0.030 C 
ATOM      5  C   LIG    1        1.657   2.062  -0.003  0.00  0.00    +0.178 C 
BRANCH   4   9
ATOM      6  C   LIG    1        6.168   4.044  -1.075  0.00  0.00    +0.000 A 
ATOM      7  C   LIG    1        5.346   4.320  -2.154  0.00  0.00    +0.001 A 
ATOM      8  C   LIG    1        4.033   3.897  -2.150  0.00  0.00    +0.008 A 
ATOM      9  C   LIG    1        3.534   3.189  -1.055  0.00  0.00    -0.024 A 
ATOM     10  C   LIG    1        4.367   2.920   0.032  0.00  0.00    +0.008 A 
ATOM     11  C   LIG    1        5.680   3.343   0.013  0.00  0.00    +0.001 A 
ENDBRANCH   4   9
ENDBRANCH   1   5
BRANCH   1  12
ATOM     12  O   LIG    1        0.002  -0.004   0.002  0.00  0.00    -0.340 OA
BRANCH  12  13
ATOM     13  C   LIG    1        0.343  -0.559   1.196  0.00  0.00    +0.193 A 
ATOM     14  C   LIG    1        1.673  -0.831   1.482  0.00  0.00    +0.088 A 
ATOM     15 CL   LIG    1        2.905  -0.462   0.315  0.00  0.00    -0.080 Cl
ATOM     16  C   LIG    1        2.018  -1.389   2.699  0.00  0.00    +0.043 A 
ATOM     17  C   LIG    1        1.036  -1.689   3.626  0.00  0.00    +0.044 A 
ATOM     18 CL   LIG    1        1.470  -2.398   5.150  0.00  0.00    -0.083 Cl
ATOM     19  C   LIG    1       -0.292  -1.425   3.341  0.00  0.00    +0.043 A 
ATOM     20  C   LIG    1       -0.641  -0.860   2.128  0.00  0.00    +0.088 A 
ATOM     21 CL   LIG    1       -2.307  -0.528   1.771  0.00  0.00    -0.080 Cl
ENDBRANCH  12  13
ENDBRANCH   1  12
TORSDOF 4
