REMARK  Name = ZINC01675069
REMARK                            x       y       z     vdW  Elec       q    Type
REMARK                         _______ _______ _______ _____ _____    ______ ____
ROOT
ATOM      1  C   LIG    1        1.321  -2.129  -0.021  0.00  0.00    +0.272 C 
ATOM      2  N   LIG    1        0.270  -2.885  -0.016  0.00  0.00    -0.272 N 
ATOM      3  H   LIG    1       -0.700  -2.549  -0.005  0.00  0.00    +0.304 HD
ATOM      4  C   LIG    1        0.674  -4.301  -0.026  0.00  0.00    +0.276 C 
ATOM      5  C   LIG    1        2.215  -4.254  -0.041  0.00  0.00    +0.268 C 
ATOM      6  N   LIG    1        2.509  -2.812  -0.042  0.00  0.00    -0.233 N 
ATOM      7  H   LIG    1        3.393  -2.412  -0.053  0.00  0.00    +0.291 HD
ENDROOT
BRANCH   1  10
ATOM      8  C   LIG    1       -0.017   1.380   0.010  0.00  0.00    +0.020 A 
ATOM      9  C   LIG    1        0.002  -0.004   0.002  0.00  0.00    +0.019 A 
ATOM     10  C   LIG    1        1.242  -0.650  -0.013  0.00  0.00    +0.079 A 
ATOM     11  C   LIG    1        2.404   0.121  -0.020  0.00  0.00    +0.126 A 
ATOM     12  N   LIG    1        2.335   1.436  -0.013  0.00  0.00    -0.262 NA
ATOM     13  C   LIG    1        1.180   2.073   0.002  0.00  0.00    +0.111 A 
ENDBRANCH   1  10
TORSDOF 1
