REMARK  Name = ZINC01912542
REMARK                            x       y       z     vdW  Elec       q    Type
REMARK                         _______ _______ _______ _____ _____    ______ ____
ROOT
ATOM      1  C   UNK A  0       -1.256   6.192  -4.161  0.00  0.00    +0.058 A 
ATOM      2  C   UNK A  0       -0.563   7.144  -3.410  0.00  0.00    +0.015 A 
ATOM      3  C   UNK A  0        0.565   7.742  -3.929  0.00  0.00    +0.001 A 
ATOM      4  C   UNK A  0        1.017   7.402  -5.194  0.00  0.00    +0.002 A 
ATOM      5  C   UNK A  0        0.344   6.463  -5.949  0.00  0.00    +0.024 A 
ATOM      6  C   UNK A  0       -0.792   5.847  -5.439  0.00  0.00    +0.046 A 
ENDROOT
BRANCH   1   9
ATOM      7  N   PHE A  1       -2.882   5.854  -2.367  0.00  0.00    -0.298 N 
ATOM      8  H   PHE A  1       -2.389   6.496  -1.833  0.00  0.00    +0.150 HD
ATOM      9  C   UNK A  0       -2.464   5.549  -3.611  0.00  0.00    +0.247 C 
ATOM     10  O   UNK A  0       -3.082   4.744  -4.280  0.00  0.00    -0.270 OA
BRANCH   7  11
ATOM     11  CA  PHE A  1       -4.082   5.215  -1.820  0.00  0.00    +0.186 C 
BRANCH  11  12
ATOM     12  C   PHE A  1       -5.304   5.979  -2.262  0.00  0.00    +0.326 C 
ATOM     13  O   PHE A  1       -5.184   6.957  -2.962  0.00  0.00    -0.249 OA
BRANCH  12  14
ATOM     14  OXT PHE A  1       -6.524   5.574  -1.879  0.00  0.00    -0.479 OA
ATOM     15  HXT PHE A  1       -6.617   4.815  -1.336  0.00  0.00    +0.295 HD
ENDBRANCH  12  14
ENDBRANCH  11  12
BRANCH  11  16
ATOM     16  CB  PHE A  1       -4.008   5.213  -0.292  0.00  0.00    +0.069 C 
BRANCH  16  20
ATOM     17  CZ  PHE A  1       -0.747   2.759   0.970  0.00  0.00    +0.000 A 
ATOM     18  CE1 PHE A  1       -2.002   2.206   0.799  0.00  0.00    +0.000 A 
ATOM     19  CD1 PHE A  1       -3.056   2.999   0.386  0.00  0.00    +0.004 A 
ATOM     20  CG  PHE A  1       -2.857   4.347   0.153  0.00  0.00    -0.045 A 
ATOM     21  CD2 PHE A  1       -1.602   4.900   0.324  0.00  0.00    +0.004 A 
ATOM     22  CE2 PHE A  1       -0.546   4.106   0.732  0.00  0.00    +0.000 A 
ENDBRANCH  16  20
ENDBRANCH  11  16
ENDBRANCH   7  11
ENDBRANCH   1   9
BRANCH   6  23
ATOM     23  N   UNK A  0       -1.470   4.896  -6.196  0.00  0.00    -0.280 N 
ATOM     24  H   UNK A  0       -1.790   4.081  -5.777  0.00  0.00    +0.155 HD
ATOM     25  C   UNK A  0       -1.683   5.106  -7.510  0.00  0.00    +0.265 C 
ATOM     26  O   UNK A  0       -1.199   6.079  -8.056  0.00  0.00    -0.268 OA
BRANCH  25  27
ATOM     27  C   UNK A  0       -2.500   4.160  -8.283  0.00  0.00    +0.103 A 
ATOM     28  C   UNK A  0       -2.785   4.263  -9.608  0.00  0.00    +0.040 A 
ATOM     29  C   UNK A  0       -3.594   3.157  -9.963  0.00  0.00    +0.000 A 
ATOM     30  C   UNK A  0       -4.182   2.742 -11.165  0.00  0.00    +0.010 A 
ATOM     31  C   UNK A  0       -4.928   1.600 -11.196  0.00  0.00    +0.001 A 
ATOM     32  C   UNK A  0       -5.111   0.843 -10.046  0.00  0.00    +0.002 A 
ATOM     33  C   UNK A  0       -4.544   1.230  -8.852  0.00  0.00    +0.026 A 
ATOM     34  C   UNK A  0       -3.779   2.392  -8.795  0.00  0.00    +0.047 A 
ATOM     35  N   UNK A  0       -3.097   3.020  -7.779  0.00  0.00    -0.351 N 
ATOM     36  H   UNK A  0       -3.045   2.714  -6.861  0.00  0.00    +0.166 HD
ENDBRANCH  25  27
ENDBRANCH   6  23
TORSDOF 8
