REMARK  Name = ZINC02022844
REMARK                            x       y       z     vdW  Elec       q    Type
REMARK                         _______ _______ _______ _____ _____    ______ ____
ROOT
ATOM      1  C   LIG    1        4.832   0.835   1.047  0.00  0.00    +0.139 C 
ATOM      2  N   LIG    1        3.544   1.508   0.867  0.00  0.00    -0.258 N 
ATOM      3  C   LIG    1        2.486   0.796   0.519  0.00  0.00    +0.258 C 
ATOM      4  C   LIG    1        1.216   1.535   0.353  0.00  0.00    +0.077 C 
ATOM      5  S   LIG    1        1.748   3.200   0.725  0.00  0.00    -0.061 S 
ATOM      6  C   LIG    1       -0.013   1.076   0.008  0.00  0.00    +0.028 C 
ATOM      7  O   LIG    1        2.553  -0.407   0.345  0.00  0.00    -0.269 OA
ATOM      8  C   LIG    1        3.465   2.841   1.059  0.00  0.00    +0.120 C 
ATOM      9  S   LIG    1        4.710   3.926   1.507  0.00  0.00    -0.027 S 
ENDROOT
BRANCH   6  10
ATOM     10  C   LIG    1       -1.174   1.975   0.060  0.00  0.00    -0.024 A 
ATOM     11  C   LIG    1       -1.054   3.245   0.635  0.00  0.00    +0.009 A 
ATOM     12  C   LIG    1       -2.147   4.085   0.675  0.00  0.00    +0.020 A 
ATOM     13  C   LIG    1       -3.364   3.670   0.159  0.00  0.00    +0.041 A 
ATOM     14 CL   LIG    1       -4.735   4.732   0.220  0.00  0.00    -0.084 Cl
ATOM     15  C   LIG    1       -3.491   2.412  -0.407  0.00  0.00    +0.020 A 
ATOM     16  C   LIG    1       -2.406   1.563  -0.460  0.00  0.00    +0.009 A 
ENDBRANCH   6  10
TORSDOF 1
