REMARK  Name = ZINC02031161
REMARK                            x       y       z     vdW  Elec       q    Type
REMARK                         _______ _______ _______ _____ _____    ______ ____
ROOT
ATOM      1  C   LIG    1        0.002  -0.004   0.002  0.00  0.00    -0.024 C 
ATOM      2  C   LIG    1       -0.016   1.330   0.009  0.00  0.00    +0.038 C 
ENDROOT
BRANCH   1   4
ATOM      3  C   LIG    1       -1.319  -1.741  -1.176  0.00  0.00    +0.008 C 
ATOM      4  C   LIG    1       -1.293  -0.775   0.010  0.00  0.00    +0.024 C 
ENDBRANCH   1   4
BRANCH   2   5
ATOM      5  C   LIG    1        1.240   2.079   0.001  0.00  0.00    +0.250 C 
ATOM      6  O   LIG    1        1.224   3.292   0.008  0.00  0.00    -0.296 OA
ENDBRANCH   2   5
TORSDOF 2
