REMARK  Name = ZINC01706117
REMARK                            x       y       z     vdW  Elec       q    Type
REMARK                         _______ _______ _______ _____ _____    ______ ____
ROOT
ATOM      1  C   LIG    1       -1.412   1.831  -0.567  0.00  0.00    +0.001 A 
ATOM      2  C   LIG    1       -0.233   1.135  -0.773  0.00  0.00    +0.001 A 
ATOM      3  C   LIG    1        0.977   1.801  -0.789  0.00  0.00    +0.012 A 
ATOM      4  C   LIG    1        1.008   3.179  -0.590  0.00  0.00    +0.033 A 
ATOM      5  C   LIG    1       -0.188   3.889  -0.372  0.00  0.00    -0.004 A 
ATOM      6  C   LIG    1       -0.163   5.353  -0.156  0.00  0.00    +0.024 A 
ATOM      7  C   LIG    1        1.004   6.094  -0.427  0.00  0.00    +0.035 A 
ATOM      8  C   LIG    1        2.203   5.388  -0.928  0.00  0.00    +0.234 C 
ATOM      9  O   LIG    1        3.067   5.959  -1.561  0.00  0.00    -0.283 OA
ATOM     10  C   LIG    1        1.020   7.472  -0.223  0.00  0.00    +0.012 A 
ATOM     11  C   LIG    1       -0.114   8.107   0.248  0.00  0.00    +0.003 A 
ATOM     12  C   LIG    1       -1.261   7.380   0.516  0.00  0.00    +0.033 A 
ATOM     13  C   LIG    1       -1.293   6.011   0.318  0.00  0.00    +0.130 A 
ATOM     14  C   LIG    1        2.290   3.918  -0.605  0.00  0.00    +0.234 C 
ATOM     15  O   LIG    1        3.348   3.373  -0.370  0.00  0.00    -0.283 OA
ATOM     16  C   LIG    1       -1.396   3.199  -0.361  0.00  0.00    +0.009 A 
ENDROOT
BRANCH  13  17
ATOM     17  N   LIG    1       -2.527   5.249   0.610  0.00  0.00    +0.007 N 
ATOM     18  O   LIG    1       -3.538   5.455  -0.039  0.00  0.00    -0.130 OA
BRANCH  17  19
ATOM     19  O   LIG    1       -2.533   4.415   1.497  0.00  0.00    -0.396 OA
ATOM     20  H   LIG    1       -1.756   4.257   1.996  0.00  0.00    +0.329 HD
ENDBRANCH  17  19
ENDBRANCH  13  17
TORSDOF 2
