REMARK  Name = ZINC01778621
REMARK                            x       y       z     vdW  Elec       q    Type
REMARK                         _______ _______ _______ _____ _____    ______ ____
ROOT
ATOM      1  C   LIG    1        1.237  -2.097  -0.021  0.00  0.00    +0.130 A 
ATOM      2  C   LIG    1        1.246  -0.680  -0.013  0.00  0.00    +0.041 A 
ATOM      3  C   LIG    1        2.436   0.056  -0.021  0.00  0.00    +0.028 A 
ATOM      4  C   LIG    1        2.382   1.420  -0.013  0.00  0.00    +0.019 A 
ATOM      5 BR   LIG    1        3.988   2.417  -0.023  0.00  0.00    -0.050 Br
ATOM      6  C   LIG    1        1.159   2.087   0.002  0.00  0.00    +0.017 A 
ATOM      7  C   LIG    1       -0.017   1.397   0.010  0.00  0.00    +0.029 A 
ATOM      8  C   LIG    1        0.002  -0.004   0.002  0.00  0.00    +0.076 A 
ATOM      9  N   LIG    1       -1.126  -0.730   0.009  0.00  0.00    -0.235 NA
ATOM     10  C   LIG    1       -1.074  -2.041   0.002  0.00  0.00    +0.223 A 
ATOM     11  N   LIG    1        0.065  -2.716  -0.012  0.00  0.00    -0.220 NA
ENDROOT
BRANCH   1  12
ATOM     12  N   LIG    1        2.416  -2.812  -0.036  0.00  0.00    -0.329 N 
ATOM     13  H   LIG    1        3.266  -2.346  -0.042  0.00  0.00    +0.147 HD
BRANCH  12  14
ATOM     14  C   LIG    1        2.384  -4.277  -0.043  0.00  0.00    +0.102 C 
BRANCH  14  16
ATOM     15  C   LIG    1        3.781  -6.348  -0.068  0.00  0.00    +0.005 C 
ATOM     16  C   LIG    1        3.814  -4.818  -0.060  0.00  0.00    +0.015 C 
ENDBRANCH  14  16
ENDBRANCH  12  14
ENDBRANCH   1  12
TORSDOF 3
