REMARK  Name = ZINC01999529
REMARK                            x       y       z     vdW  Elec       q    Type
REMARK                         _______ _______ _______ _____ _____    ______ ____
ROOT
ATOM      1  C   LIG    1        3.296  -4.447  -1.491  0.00  0.00    +0.022 C 
ENDROOT
BRANCH   1   2
ATOM      2  C   LIG    1        3.258  -3.932  -0.051  0.00  0.00    +0.135 C 
BRANCH   2   9
ATOM      3  C   LIG    1       -0.017   1.372   0.010  0.00  0.00    +0.001 A 
ATOM      4  C   LIG    1        1.161   2.099   0.002  0.00  0.00    +0.002 A 
ATOM      5  C   LIG    1        2.377   1.432  -0.013  0.00  0.00    +0.029 A 
ATOM      6  C   LIG    1        2.399   0.066  -0.020  0.00  0.00    +0.121 A 
ATOM      7  C   LIG    1        1.225  -0.698  -0.013  0.00  0.00    +0.065 A 
ATOM      8  C   LIG    1        1.491  -2.142  -0.024  0.00  0.00    +0.268 C 
ATOM      9  N   LIG    1        2.769  -2.551  -0.039  0.00  0.00    -0.168 N 
ATOM     10  O   LIG    1        0.579  -2.946  -0.020  0.00  0.00    -0.268 OA
ATOM     11  S   LIG    1        3.686  -1.151  -0.040  0.00  0.00    +0.078 S 
ATOM     12  O   LIG    1        4.343  -1.066  -1.297  0.00  0.00    -0.150 OA
ATOM     13  O   LIG    1        4.367  -1.080   1.206  0.00  0.00    -0.150 OA
ATOM     14  C   LIG    1        0.002  -0.004   0.002  0.00  0.00    +0.015 A 
ENDBRANCH   2   9
ENDBRANCH   1   2
BRANCH   1  15
ATOM     15  C   LIG    1        3.807  -5.889  -1.503  0.00  0.00    +0.017 C 
BRANCH  15  16
ATOM     16  C   LIG    1        3.846  -6.404  -2.943  0.00  0.00    +0.084 C 
BRANCH  16  17
ATOM     17  N   LIG    1        4.336  -7.789  -2.955  0.00  0.00    -0.299 NA
ATOM     18  C   LIG    1        5.736  -7.855  -2.515  0.00  0.00    +0.103 C 
ATOM     19  C   LIG    1        6.153  -9.322  -2.368  0.00  0.00    +0.123 C 
ATOM     20  N   LIG    1        5.864 -10.019  -3.630  0.00  0.00    -0.297 N 
ATOM     21  C   LIG    1        4.517  -9.886  -4.206  0.00  0.00    +0.123 C 
ATOM     22  C   LIG    1        4.165  -8.397  -4.281  0.00  0.00    +0.103 C 
BRANCH  20  23
ATOM     23  C   LIG    1        6.834 -10.780  -4.260  0.00  0.00    +0.218 A 
ATOM     24  N   LIG    1        8.034 -10.882  -3.709  0.00  0.00    -0.223 NA
ATOM     25  C   LIG    1        8.983 -11.602  -4.284  0.00  0.00    +0.116 A 
ATOM     26  C   LIG    1        8.709 -12.253  -5.476  0.00  0.00    +0.039 A 
ATOM     27  C   LIG    1        7.443 -12.125  -6.025  0.00  0.00    +0.116 A 
ATOM     28  N   LIG    1        6.538 -11.394  -5.396  0.00  0.00    -0.223 NA
ENDBRANCH  20  23
ENDBRANCH  16  17
ENDBRANCH  15  16
ENDBRANCH   1  15
TORSDOF 6
