REMARK  Name = ZINC01995314
REMARK                            x       y       z     vdW  Elec       q    Type
REMARK                         _______ _______ _______ _____ _____    ______ ____
ROOT
ATOM      1  C   LIG    1        0.103   1.295   3.381  0.00  0.00    +0.220 C 
ATOM      2  N   LIG    1        0.439   0.316   2.517  0.00  0.00    -0.287 N 
ATOM      3  O   LIG    1       -0.938   1.899   3.238  0.00  0.00    -0.275 OA
ENDROOT
BRANCH   2   4
ATOM      4  C   LIG    1       -0.505  -0.097   1.475  0.00  0.00    +0.077 C 
ATOM      5  C   LIG    1       -0.862  -1.589   1.630  0.00  0.00    +0.022 C 
ATOM      6  C   LIG    1       -0.974  -2.166   0.208  0.00  0.00    +0.002 C 
ATOM      7  C   LIG    1       -0.682  -1.003  -0.763  0.00  0.00    +0.002 C 
ATOM      8  C   LIG    1        0.157  -0.008   0.077  0.00  0.00    +0.022 C 
ENDBRANCH   2   4
BRANCH   1  10
ATOM      9  C   LIG    1        0.788   3.089   4.950  0.00  0.00    +0.018 C 
ATOM     10  C   LIG    1        1.023   1.638   4.525  0.00  0.00    +0.082 C 
BRANCH  10  11
ATOM     11  C   LIG    1        0.737   0.708   5.705  0.00  0.00    +0.089 C 
BRANCH  11  12
ATOM     12  S   LIG    1        1.937   1.021   7.024  0.00  0.00    -0.087 S 
BRANCH  12  13
ATOM     13  C   LIG    1        1.405  -0.118   8.186  0.00  0.00    +0.195 C 
ATOM     14  O   LIG    1        0.452  -0.829   7.947  0.00  0.00    -0.285 OA
BRANCH  13  15
ATOM     15  C   LIG    1        2.121  -0.237   9.507  0.00  0.00    +0.031 C 
ATOM     16  C   LIG    1        2.057   1.102  10.245  0.00  0.00    +0.019 C 
ATOM     17  C   LIG    1        3.583  -0.614   9.262  0.00  0.00    +0.019 C 
ATOM     18  C   LIG    1        1.450  -1.319  10.355  0.00  0.00    +0.019 C 
ENDBRANCH  13  15
ENDBRANCH  12  13
ENDBRANCH  11  12
ENDBRANCH  10  11
ENDBRANCH   1  10
BRANCH   2  19
ATOM     19  C   LIG    1        1.747  -0.335   2.620  0.00  0.00    +0.228 C 
BRANCH  19  20
ATOM     20  C   LIG    1        2.777   0.487   1.889  0.00  0.00    +0.322 C 
ATOM     21  O   LIG    1        2.451   1.512   1.339  0.00  0.00    -0.249 OA
BRANCH  20  22
ATOM     22  O   LIG    1        4.056   0.081   1.850  0.00  0.00    -0.480 OA
ATOM     23  H   LIG    1        4.308  -0.714   2.277  0.00  0.00    +0.295 HD
ENDBRANCH  20  22
ENDBRANCH  19  20
ENDBRANCH   2  19
TORSDOF 9
