REMARK  Name = ZINC02007954
REMARK                            x       y       z     vdW  Elec       q    Type
REMARK                         _______ _______ _______ _____ _____    ______ ____
ROOT
ATOM      1  N   LIG    1       -0.671   1.533   1.234  0.00  0.00    -0.247 N 
ENDROOT
BRANCH   1   2
ATOM      2  N   LIG    1       -0.378   2.791   1.777  0.00  0.00    -0.191 NA
ATOM      3  C   LIG    1        0.378   3.619   1.124  0.00  0.00    +0.138 C 
BRANCH   3   4
ATOM      4  C   LIG    1        0.783   4.894   1.745  0.00  0.00    -0.005 A 
ATOM      5  C   LIG    1        0.350   5.216   3.034  0.00  0.00    +0.011 A 
ATOM      6  C   LIG    1        0.736   6.407   3.610  0.00  0.00    +0.020 A 
ATOM      7  C   LIG    1        1.544   7.289   2.911  0.00  0.00    +0.041 A 
ATOM      8 CL   LIG    1        2.020   8.790   3.642  0.00  0.00    -0.084 Cl
ATOM      9  C   LIG    1        1.972   6.979   1.631  0.00  0.00    +0.020 A 
ATOM     10  C   LIG    1        1.597   5.788   1.045  0.00  0.00    +0.011 A 
ENDBRANCH   3   4
ENDBRANCH   1   2
BRANCH   1  11
ATOM     11  C   LIG    1       -0.041   1.111  -0.019  0.00  0.00    +0.161 C 
BRANCH  11  15
ATOM     12  C   LIG    1        3.620  -0.915   0.839  0.00  0.00    +0.000 A 
ATOM     13  C   LIG    1        2.425  -1.610   0.858  0.00  0.00    +0.000 A 
ATOM     14  C   LIG    1        1.240  -0.954   0.580  0.00  0.00    +0.005 A 
ATOM     15  C   LIG    1        1.250   0.396   0.284  0.00  0.00    -0.029 A 
ATOM     16  C   LIG    1        2.446   1.089   0.260  0.00  0.00    +0.005 A 
ATOM     17  C   LIG    1        3.630   0.435   0.542  0.00  0.00    +0.000 A 
ENDBRANCH  11  15
ENDBRANCH   1  11
BRANCH   1  18
ATOM     18  C   LIG    1       -1.609   0.640   1.920  0.00  0.00    +0.161 C 
BRANCH  18  19
ATOM     19  C   LIG    1       -2.998   0.859   1.378  0.00  0.00    -0.029 A 
ATOM     20  C   LIG    1       -3.791   1.867   1.895  0.00  0.00    +0.005 A 
ATOM     21  C   LIG    1       -5.063   2.070   1.395  0.00  0.00    +0.000 A 
ATOM     22  C   LIG    1       -5.547   1.260   0.385  0.00  0.00    +0.000 A 
ATOM     23  C   LIG    1       -4.756   0.248  -0.128  0.00  0.00    +0.000 A 
ATOM     24  C   LIG    1       -3.482   0.048   0.369  0.00  0.00    +0.005 A 
ENDBRANCH  18  19
ENDBRANCH   1  18
TORSDOF 6
