REMARK  Name = ZINC01717012
REMARK                            x       y       z     vdW  Elec       q    Type
REMARK                         _______ _______ _______ _____ _____    ______ ____
ROOT
ATOM      1  N   LIG    1       -4.271   2.599   0.058  0.00  0.00    -0.281 N 
ATOM      2  H   LIG    1       -3.674   1.840  -0.033  0.00  0.00    +0.155 HD
ATOM      3  C   LIG    1       -5.599   2.400   0.172  0.00  0.00    +0.249 C 
ATOM      4  O   LIG    1       -6.357   3.351   0.185  0.00  0.00    -0.270 OA
ENDROOT
BRANCH   1  15
ATOM      5  C   LIG    1        0.483   2.080  -2.679  0.00  0.00    +0.000 A 
ATOM      6  C   LIG    1       -0.598   1.328  -2.255  0.00  0.00    +0.001 A 
ATOM      7  C   LIG    1       -1.629   1.923  -1.559  0.00  0.00    +0.009 A 
ATOM      8  C   LIG    1       -1.577   3.288  -1.268  0.00  0.00    -0.012 A 
ATOM      9  C   LIG    1       -0.485   4.037  -1.698  0.00  0.00    -0.035 A 
ATOM     10  C   LIG    1       -0.705   5.461  -1.251  0.00  0.00    +0.071 C 
ATOM     11  C   LIG    1       -2.026   5.468  -0.522  0.00  0.00    -0.034 A 
ATOM     12  C   LIG    1       -2.735   6.476   0.100  0.00  0.00    +0.004 A 
ATOM     13  C   LIG    1       -3.948   6.202   0.706  0.00  0.00    +0.002 A 
ATOM     14  C   LIG    1       -4.457   4.917   0.693  0.00  0.00    +0.024 A 
ATOM     15  C   LIG    1       -3.755   3.896   0.071  0.00  0.00    +0.042 A 
ATOM     16  C   LIG    1       -2.525   4.170  -0.544  0.00  0.00    +0.007 A 
ATOM     17  C   LIG    1        0.538   3.434  -2.400  0.00  0.00    +0.004 A 
ENDBRANCH   1  15
BRANCH   3  18
ATOM     18  C   LIG    1       -6.135   1.029   0.281  0.00  0.00    +0.045 A 
ATOM     19  C   LIG    1       -5.270  -0.065   0.266  0.00  0.00    +0.013 A 
ATOM     20  C   LIG    1       -5.775  -1.345   0.369  0.00  0.00    +0.001 A 
ATOM     21  C   LIG    1       -7.139  -1.553   0.487  0.00  0.00    +0.001 A 
ATOM     22  C   LIG    1       -8.011  -0.483   0.503  0.00  0.00    +0.009 A 
ATOM     23  C   LIG    1       -7.520   0.817   0.406  0.00  0.00    -0.005 A 
BRANCH  23  24
ATOM     24  C   LIG    1       -8.450   1.968   0.428  0.00  0.00    -0.003 A 
ATOM     25  C   LIG    1       -9.194   2.246   1.573  0.00  0.00    +0.009 A 
ATOM     26  C   LIG    1      -10.060   3.321   1.590  0.00  0.00    +0.001 A 
ATOM     27  C   LIG    1      -10.196   4.130   0.474  0.00  0.00    +0.001 A 
ATOM     28  C   LIG    1       -9.468   3.872  -0.669  0.00  0.00    +0.015 A 
ATOM     29  C   LIG    1       -8.584   2.793  -0.704  0.00  0.00    +0.067 A 
BRANCH  29  30
ATOM     30  C   LIG    1       -7.799   2.515  -1.922  0.00  0.00    +0.337 C 
ATOM     31  O   LIG    1       -7.033   1.572  -1.949  0.00  0.00    -0.245 OA
BRANCH  30  32
ATOM     32  O   LIG    1       -7.931   3.307  -3.004  0.00  0.00    -0.477 OA
ATOM     33  H   LIG    1       -8.521   4.034  -2.983  0.00  0.00    +0.295 HD
ENDBRANCH  30  32
ENDBRANCH  29  30
ENDBRANCH  23  24
ENDBRANCH   3  18
TORSDOF 5
