REMARK  Name = ZINC02015652
REMARK                            x       y       z     vdW  Elec       q    Type
REMARK                         _______ _______ _______ _____ _____    ______ ____
ROOT
ATOM      1  C   LIG    1       -2.044   0.007  -0.965  0.00  0.00    +0.009 C 
ATOM      2  C   LIG    1       -1.975   1.535  -1.015  0.00  0.00    +0.005 C 
ATOM      3  C   LIG    1       -2.762   2.120   0.159  0.00  0.00    +0.000 C 
ATOM      4  C   LIG    1       -4.222   1.671   0.069  0.00  0.00    +0.003 C 
ATOM      5  C   LIG    1       -4.290   0.144   0.119  0.00  0.00    +0.040 C 
ATOM      6  C   LIG    1       -3.504  -0.441  -1.055  0.00  0.00    +0.092 C 
ENDROOT
BRANCH   6   7
ATOM      7  C   LIG    1       -3.571  -1.946  -1.005  0.00  0.00    -0.012 A 
ATOM      8  C   LIG    1       -4.060  -2.579   0.123  0.00  0.00    +0.007 A 
ATOM      9  C   LIG    1       -4.123  -3.959   0.172  0.00  0.00    +0.004 A 
ATOM     10  C   LIG    1       -3.697  -4.709  -0.907  0.00  0.00    +0.045 A 
ATOM     11  C   LIG    1       -3.207  -4.077  -2.040  0.00  0.00    +0.120 A 
ATOM     12  C   LIG    1       -3.150  -2.692  -2.089  0.00  0.00    +0.052 A 
BRANCH  11  13
ATOM     13  O   LIG    1       -2.788  -4.813  -3.103  0.00  0.00    -0.495 OA
ATOM     14  C   LIG    1       -2.880  -6.234  -2.985  0.00  0.00    +0.277 C 
ENDBRANCH  11  13
ENDBRANCH   6   7
BRANCH   6  15
ATOM     15  O   LIG    1       -4.068   0.021  -2.284  0.00  0.00    -0.384 OA
ATOM     16  H   LIG    1       -4.995  -0.228  -2.409  0.00  0.00    +0.211 HD
ENDBRANCH   6  15
BRANCH   1  17
ATOM     17  C   LIG    1       -1.439  -0.487   0.351  0.00  0.00    -0.073 C 
BRANCH  17  19
ATOM     18  C   LIG    1       -0.052  -2.081  -0.785  0.00  0.00    -0.097 C 
ATOM     19  N   LIG    1       -1.101  -1.911   0.230  0.00  0.00    +0.376 N 
ATOM     20  H   LIG    1       -1.922  -2.430  -0.045  0.00  0.00    -0.083 HD
ATOM     21  C   LIG    1       -0.616  -2.411   1.523  0.00  0.00    -0.097 C 
ENDBRANCH  17  19
ENDBRANCH   1  17
TORSDOF 5
