REMARK  Name = ZINC02183637
REMARK                            x       y       z     vdW  Elec       q    Type
REMARK                         _______ _______ _______ _____ _____    ______ ____
ROOT
ATOM      1  N   LIG    1        0.070   2.800   4.718  0.00  0.00    -0.333 N 
ATOM      2  C   LIG    1        0.813   1.601   5.130  0.00  0.00    +0.086 C 
ATOM      3  C   LIG    1        1.654   1.925   6.368  0.00  0.00    -0.060 C 
ATOM      4  N   LIG    1        0.753   2.370   7.452  0.00  0.00    +0.382 N 
ATOM      5  H   LIG    1        0.072   1.627   7.646  0.00  0.00    -0.082 HD
ATOM      6  C   LIG    1        0.028   3.589   7.035  0.00  0.00    -0.060 C 
ATOM      7  C   LIG    1       -0.812   3.265   5.798  0.00  0.00    +0.086 C 
ENDROOT
BRANCH   1  12
ATOM      8  C   LIG    1       -2.740   2.539   2.364  0.00  0.00    +0.002 A 
ATOM      9  C   LIG    1       -2.088   2.098   1.227  0.00  0.00    +0.012 A 
ATOM     10  C   LIG    1       -0.722   1.881   1.250  0.00  0.00    +0.057 A 
ATOM     11  C   LIG    1       -0.003   2.114   2.406  0.00  0.00    +0.035 A 
ATOM     12  C   LIG    1       -0.654   2.562   3.548  0.00  0.00    +0.030 A 
ATOM     13  C   LIG    1       -2.027   2.774   3.523  0.00  0.00    +0.023 A 
BRANCH  10  14
ATOM     14  C   LIG    1       -0.017   1.395   0.010  0.00  0.00    +0.417 C 
ATOM     15  F   LIG    1       -0.694   1.858  -1.124  0.00  0.00    -0.166 F 
ATOM     16  F   LIG    1        1.296   1.879  -0.000  0.00  0.00    -0.166 F 
ATOM     17  F   LIG    1        0.002  -0.004   0.002  0.00  0.00    -0.166 F 
ENDBRANCH  10  14
ENDBRANCH   1  12
BRANCH   4  18
ATOM     18  C   LIG    1        1.533   2.640   8.678  0.00  0.00    -0.079 C 
BRANCH  18  19
ATOM     19  C   LIG    1        2.089   1.318   9.211  0.00  0.00    -0.017 C 
BRANCH  19  20
ATOM     20  C   LIG    1        2.882   1.578  10.494  0.00  0.00    +0.018 C 
BRANCH  20  21
ATOM     21  C   LIG    1        3.437   0.256  11.027  0.00  0.00    +0.118 C 
BRANCH  21  22
ATOM     22  N   LIG    1        4.197   0.505  12.255  0.00  0.00    -0.224 N 
ATOM     23  C   LIG    1        5.519   0.775  12.287  0.00  0.00    +0.244 C 
ATOM     24  C   LIG    1        5.873   0.903  13.752  0.00  0.00    +0.164 C 
ATOM     25  C   LIG    1        6.466   2.282  14.054  0.00  0.00    +0.032 C 
ATOM     26  C   LIG    1        6.453   2.501  15.570  0.00  0.00    +0.004 C 
ATOM     27  C   LIG    1        5.018   2.519  16.097  0.00  0.00    +0.019 C 
ATOM     28  C   LIG    1        4.353   1.159  15.834  0.00  0.00    +0.110 C 
ATOM     29  N   LIG    1        4.554   0.840  14.419  0.00  0.00    -0.274 N 
ATOM     30  O   LIG    1        6.266   0.893  11.340  0.00  0.00    -0.273 OA
ATOM     31  C   LIG    1        3.665   0.487  13.486  0.00  0.00    +0.312 C 
ATOM     32  O   LIG    1        2.513   0.185  13.726  0.00  0.00    -0.252 OA
ENDBRANCH  21  22
ENDBRANCH  20  21
ENDBRANCH  19  20
ENDBRANCH  18  19
ENDBRANCH   4  18
TORSDOF 7
