REMARK  Name = ZINC02141051
REMARK                            x       y       z     vdW  Elec       q    Type
REMARK                         _______ _______ _______ _____ _____    ______ ____
ROOT
ATOM      1  C   LIG    1       -0.019   1.526   0.010  0.00  0.00    -0.018 C 
ATOM      2  C   LIG    1        1.420   2.051  -0.001  0.00  0.00    +0.011 C 
ATOM      3  C   LIG    1        2.149   1.487  -1.223  0.00  0.00    +0.081 C 
ATOM      4  C   LIG    1        2.090  -0.042  -1.186  0.00  0.00    -0.068 C 
ATOM      5  N   LIG    1        0.689  -0.481  -1.204  0.00  0.00    +0.380 N 
ATOM      6  H   LIG    1        0.654  -1.489  -1.234  0.00  0.00    -0.086 HD
ATOM      7  H   LIG    1        0.231  -0.107  -2.021  0.00  0.00    -0.086 HD
ATOM      8  C   LIG    1        0.002  -0.004   0.002  0.00  0.00    -0.083 C 
ENDROOT
BRANCH   3   9
ATOM      9  C   LIG    1        3.588   1.936  -1.203  0.00  0.00    +0.306 C 
ATOM     10  O   LIG    1        4.453   1.233  -1.697  0.00  0.00    -0.251 OA
BRANCH   9  11
ATOM     11  O   LIG    1        3.886   3.002  -0.692  0.00  0.00    -0.480 OA
ATOM     12  H   LIG    1        3.221   3.542  -0.312  0.00  0.00    +0.295 HD
ENDBRANCH   9  11
ENDBRANCH   3   9
TORSDOF 2
