REMARK  Name = ZINC01673633
REMARK                            x       y       z     vdW  Elec       q    Type
REMARK                         _______ _______ _______ _____ _____    ______ ____
ROOT
ATOM      1  C   LIG    1        3.120   6.523  -0.178  0.00  0.00    +0.002 C 
ENDROOT
BRANCH   1   2
ATOM      2  C   LIG    1        2.628   7.971  -0.134  0.00  0.00    +0.000 C 
BRANCH   2   3
ATOM      3  C   LIG    1        3.822   8.920  -0.252  0.00  0.00    +0.000 C 
BRANCH   3   4
ATOM      4  C   LIG    1        3.330  10.368  -0.209  0.00  0.00    +0.000 C 
BRANCH   4   5
ATOM      5  C   LIG    1        4.525  11.316  -0.327  0.00  0.00    -0.000 C 
BRANCH   5   6
ATOM      6  C   LIG    1        4.032  12.764  -0.283  0.00  0.00    -0.000 C 
BRANCH   6   7
ATOM      7  C   LIG    1        5.227  13.713  -0.401  0.00  0.00    -0.000 C 
BRANCH   7   8
ATOM      8  C   LIG    1        4.735  15.161  -0.358  0.00  0.00    -0.000 C 
BRANCH   8  10
ATOM      9  C   LIG    1        5.437  17.558  -0.432  0.00  0.00    +0.004 C 
ATOM     10  C   LIG    1        5.929  16.110  -0.476  0.00  0.00    -0.003 C 
ENDBRANCH   8  10
ENDBRANCH   7   8
ENDBRANCH   6   7
ENDBRANCH   5   6
ENDBRANCH   4   5
ENDBRANCH   3   4
ENDBRANCH   2   3
ENDBRANCH   1   2
BRANCH   1  11
ATOM     11  C   LIG    1        1.925   5.575  -0.060  0.00  0.00    +0.029 C 
BRANCH  11  12
ATOM     12  C   LIG    1        2.418   4.127  -0.103  0.00  0.00    +0.172 C 
BRANCH  12  13
ATOM     13  O   LIG    1        1.302   3.241   0.007  0.00  0.00    -0.287 OA
BRANCH  13  14
ATOM     14  P   LIG    1        1.451   1.638  -0.003  0.00  0.00    +0.472 P 
ATOM     15  O   LIG    1        2.179   1.217  -1.221  0.00  0.00    -0.228 OA
BRANCH  14  16
ATOM     16  O   LIG    1        2.268   1.166   1.301  0.00  0.00    -0.303 OA
ATOM     17  H   LIG    1        3.149   1.573   1.295  0.00  0.00    +0.222 HD
ENDBRANCH  14  16
BRANCH  14  18
ATOM     18  O   LIG    1       -0.011   0.963   0.007  0.00  0.00    -0.303 OA
ATOM     19  H   LIG    1       -0.504   1.247  -0.779  0.00  0.00    +0.222 HD
ENDBRANCH  14  18
ENDBRANCH  13  14
ENDBRANCH  12  13
ENDBRANCH  11  12
ENDBRANCH   1  11
TORSDOF 14
