REMARK  Name = ZINC01714738
REMARK                            x       y       z     vdW  Elec       q    Type
REMARK                         _______ _______ _______ _____ _____    ______ ____
ROOT
ATOM      1  C   LIG    1       -4.483  -4.826  -0.228  0.00  0.00    +0.029 A 
ATOM      2  C   LIG    1       -5.463  -3.852  -0.099  0.00  0.00    +0.016 A 
ATOM      3  C   LIG    1       -6.797  -4.213  -0.071  0.00  0.00    +0.001 A 
ATOM      4  C   LIG    1       -7.160  -5.543  -0.171  0.00  0.00    +0.002 A 
ATOM      5  C   LIG    1       -6.191  -6.521  -0.299  0.00  0.00    +0.024 A 
ATOM      6  C   LIG    1       -4.850  -6.169  -0.334  0.00  0.00    +0.047 A 
ENDROOT
BRANCH   6   7
ATOM      7  N   LIG    1       -3.868  -7.157  -0.469  0.00  0.00    -0.281 N 
ATOM      8  H   LIG    1       -2.968  -6.994  -0.145  0.00  0.00    +0.155 HD
ATOM      9  C   LIG    1       -4.171  -8.334  -1.050  0.00  0.00    +0.241 C 
ATOM     10  O   LIG    1       -5.270  -8.502  -1.548  0.00  0.00    -0.270 OA
BRANCH   9  11
ATOM     11  C   LIG    1       -3.180  -9.411  -1.084  0.00  0.00    +0.068 C 
ATOM     12  C   LIG    1       -3.484 -10.589  -1.665  0.00  0.00    +0.013 C 
BRANCH  12  13
ATOM     13  C   LIG    1       -2.488 -11.672  -1.699  0.00  0.00    -0.025 A 
ATOM     14  C   LIG    1       -1.227 -11.485  -1.124  0.00  0.00    +0.008 A 
ATOM     15  C   LIG    1       -0.299 -12.505  -1.159  0.00  0.00    +0.001 A 
ATOM     16  C   LIG    1       -0.613 -13.710  -1.763  0.00  0.00    +0.000 A 
ATOM     17  C   LIG    1       -1.859 -13.903  -2.334  0.00  0.00    +0.001 A 
ATOM     18  C   LIG    1       -2.799 -12.895  -2.301  0.00  0.00    +0.008 A 
ENDBRANCH  12  13
ENDBRANCH   9  11
ENDBRANCH   6   7
BRANCH   1  19
ATOM     19  S   LIG    1       -2.782  -4.370  -0.265  0.00  0.00    -0.123 S 
BRANCH  19  20
ATOM     20  C   LIG    1       -2.809  -2.564  -0.098  0.00  0.00    +0.072 C 
BRANCH  20  21
ATOM     21  C   LIG    1       -1.375  -2.029  -0.115  0.00  0.00    -0.008 C 
BRANCH  21  22
ATOM     22  C   LIG    1       -1.398  -0.505   0.025  0.00  0.00    -0.079 C 
BRANCH  22  24
ATOM     23  C   LIG    1       -0.047   1.477   0.023  0.00  0.00    -0.097 C 
ATOM     24  N   LIG    1       -0.021   0.008   0.009  0.00  0.00    +0.376 N 
ATOM     25  H   LIG    1        0.447  -0.312  -0.826  0.00  0.00    -0.083 HD
ATOM     26  C   LIG    1        0.698  -0.481   1.192  0.00  0.00    -0.097 C 
ENDBRANCH  22  24
ENDBRANCH  21  22
ENDBRANCH  20  21
ENDBRANCH  19  20
ENDBRANCH   1  19
TORSDOF 8
