REMARK  Name = ZINC02047684
REMARK                            x       y       z     vdW  Elec       q    Type
REMARK                         _______ _______ _______ _____ _____    ______ ____
ROOT
ATOM      1  C   LIG    1       -0.854   4.660  -2.537  0.00  0.00    +0.149 A 
ATOM      2  C   LIG    1       -1.242   3.395  -2.258  0.00  0.00    +0.057 A 
ATOM      3  C   LIG    1       -0.547   3.079  -1.061  0.00  0.00    +0.259 A 
ATOM      4  N   LIG    1        0.161   4.135  -0.761  0.00  0.00    -0.040 NA
ATOM      5  O   LIG    1        0.002   5.020  -1.569  0.00  0.00    -0.355 OA
ENDROOT
BRANCH   1   7
ATOM      6  C   LIG    1       -2.820   5.581  -3.735  0.00  0.00    +0.019 C 
ATOM      7  C   LIG    1       -1.292   5.500  -3.709  0.00  0.00    +0.023 C 
ATOM      8  C   LIG    1       -0.793   4.862  -5.008  0.00  0.00    +0.019 C 
ATOM      9  C   LIG    1       -0.709   6.908  -3.575  0.00  0.00    +0.019 C 
ENDBRANCH   1   7
BRANCH   2  10
ATOM     10  C   LIG    1       -2.193   2.523  -3.037  0.00  0.00    +0.039 C 
BRANCH  10  11
ATOM     11  CA  LIG    1       -3.599   2.650  -2.447  0.00  0.00    +0.040 C 
BRANCH  11  12
ATOM     12  N   LIG    1       -3.636   2.102  -1.080  0.00  0.00    +0.387 N 
ATOM     13  H1  LIG    1       -4.593   2.166  -0.716  0.00  0.00    -0.089 HD
ATOM     14  H2  LIG    1       -3.013   2.633  -0.474  0.00  0.00    -0.089 HD
ATOM     15  H3  LIG    1       -3.348   1.125  -1.088  0.00  0.00    -0.089 HD
ENDBRANCH  11  12
BRANCH  11  16
ATOM     16  C   LIG    1       -4.575   1.888  -3.306  0.00  0.00    +0.290 C 
ATOM     17  O   LIG    1       -4.940   0.785  -2.973  0.00  0.00    -0.253 OA
BRANCH  16  18
ATOM     18  OXT LIG    1       -5.038   2.434  -4.442  0.00  0.00    -0.482 OA
ATOM     19  HXT LIG    1       -4.755   3.289  -4.700  0.00  0.00    +0.295 HD
ENDBRANCH  16  18
ENDBRANCH  11  16
ENDBRANCH  10  11
ENDBRANCH   2  10
BRANCH   3  20
ATOM     20  O   LIG    1       -0.603   1.912  -0.371  0.00  0.00    -0.462 OA
BRANCH  20  21
ATOM     21  C   LIG    1        0.193   1.820   0.812  0.00  0.00    +0.357 C 
BRANCH  21  22
ATOM     22  P   LIG    1       -0.586   2.787   2.147  0.00  0.00    +0.365 P 
ATOM     23  O   LIG    1       -0.691   4.204   1.732  0.00  0.00    -0.255 OA
BRANCH  22  24
ATOM     24  O   LIG    1        0.311   2.683   3.479  0.00  0.00    -0.322 OA
ATOM     25  H   LIG    1        1.197   3.034   3.301  0.00  0.00    +0.220 HD
ENDBRANCH  22  24
BRANCH  22  26
ATOM     26  O   LIG    1       -2.057   2.204   2.443  0.00  0.00    -0.322 OA
ATOM     27  H   LIG    1       -2.598   2.267   1.640  0.00  0.00    +0.220 HD
ENDBRANCH  22  26
ENDBRANCH  21  22
ENDBRANCH  20  21
ENDBRANCH   3  20
TORSDOF 11
