REMARK  Name = ZINC01719580
REMARK                            x       y       z     vdW  Elec       q    Type
REMARK                         _______ _______ _______ _____ _____    ______ ____
ROOT
ATOM      1  C   LIG    1       -1.254   3.158   0.193  0.00  0.00    +0.046 A 
ATOM      2  C   LIG    1       -0.047   3.831   0.007  0.00  0.00    +0.033 A 
ATOM      3  C   LIG    1        1.141   3.126  -0.013  0.00  0.00    +0.042 A 
ATOM      4 CL   LIG    1        2.641   3.968  -0.244  0.00  0.00    -0.084 Cl
ATOM      5  C   LIG    1        1.141   1.749   0.153  0.00  0.00    +0.020 A 
ATOM      6  C   LIG    1       -0.044   1.067   0.338  0.00  0.00    +0.011 A 
ATOM      7  C   LIG    1       -1.252   1.760   0.355  0.00  0.00    -0.005 A 
ENDROOT
BRANCH   7   8
ATOM      8  C   LIG    1       -2.525   1.031   0.547  0.00  0.00    -0.003 A 
ATOM      9  C   LIG    1       -2.781   0.372   1.747  0.00  0.00    +0.011 A 
ATOM     10  C   LIG    1       -3.972  -0.302   1.925  0.00  0.00    +0.020 A 
ATOM     11  C   LIG    1       -4.916  -0.339   0.910  0.00  0.00    +0.042 A 
ATOM     12 CL   LIG    1       -6.406  -1.198   1.149  0.00  0.00    -0.084 Cl
ATOM     13  C   LIG    1       -4.679   0.304  -0.289  0.00  0.00    +0.035 A 
ATOM     14  C   LIG    1       -3.483   0.995  -0.484  0.00  0.00    +0.068 A 
BRANCH  14  15
ATOM     15  C   LIG    1       -3.224   1.683  -1.763  0.00  0.00    +0.337 C 
ATOM     16  O   LIG    1       -2.181   2.284  -1.928  0.00  0.00    -0.245 OA
BRANCH  15  17
ATOM     17  O   LIG    1       -4.143   1.646  -2.747  0.00  0.00    -0.477 OA
ATOM     18  H   LIG    1       -4.948   1.183  -2.619  0.00  0.00    +0.295 HD
ENDBRANCH  15  17
ENDBRANCH  14  15
ENDBRANCH   7   8
BRANCH   1  21
ATOM     19  N   LIG    1       -2.524   5.244   0.053  0.00  0.00    -0.281 N 
ATOM     20  H   LIG    1       -1.683   5.725   0.000  0.00  0.00    +0.155 HD
ATOM     21  C   LIG    1       -2.526   3.906   0.214  0.00  0.00    +0.249 C 
ATOM     22  O   LIG    1       -3.576   3.315   0.376  0.00  0.00    -0.270 OA
BRANCH  19  31
ATOM     23  C   LIG    1      -10.166   8.300  -1.087  0.00  0.00    +0.000 A 
ATOM     24  C   LIG    1       -9.427   9.276  -0.443  0.00  0.00    +0.001 A 
ATOM     25  C   LIG    1       -8.106   9.047  -0.120  0.00  0.00    +0.009 A 
ATOM     26  C   LIG    1       -7.511   7.826  -0.443  0.00  0.00    -0.014 A 
ATOM     27  C   LIG    1       -8.264   6.850  -1.091  0.00  0.00    -0.035 A 
ATOM     28  C   LIG    1       -7.368   5.655  -1.308  0.00  0.00    +0.071 C 
ATOM     29  C   LIG    1       -6.026   6.028  -0.727  0.00  0.00    -0.034 A 
ATOM     30  C   LIG    1       -4.834   5.344  -0.642  0.00  0.00    +0.028 A 
ATOM     31  C   LIG    1       -3.732   5.939  -0.038  0.00  0.00    +0.034 A 
ATOM     32  C   LIG    1       -3.833   7.229   0.471  0.00  0.00    +0.024 A 
ATOM     33  C   LIG    1       -5.023   7.917   0.383  0.00  0.00    +0.010 A 
ATOM     34  C   LIG    1       -6.134   7.320  -0.218  0.00  0.00    -0.014 A 
ATOM     35  C   LIG    1       -9.584   7.088  -1.411  0.00  0.00    +0.004 A 
ENDBRANCH  19  31
ENDBRANCH   1  21
TORSDOF 5
