REMARK  Name = ZINC02012436
REMARK                            x       y       z     vdW  Elec       q    Type
REMARK                         _______ _______ _______ _____ _____    ______ ____
ROOT
ATOM      1  C   LIG    1       -6.013  -0.344  -0.646  0.00  0.00    -0.077 C 
ENDROOT
BRANCH   1   2
ATOM      2  N   LIG    1       -7.064   0.656  -0.878  0.00  0.00    +0.382 N 
ATOM      3  H   LIG    1       -7.021   1.361  -0.158  0.00  0.00    -0.082 HD
ATOM      4  C   LIG    1       -6.857   1.286  -2.188  0.00  0.00    -0.060 C 
ATOM      5  C   LIG    1       -7.883   2.407  -2.383  0.00  0.00    +0.086 C 
ATOM      6  N   LIG    1       -9.229   1.848  -2.184  0.00  0.00    -0.331 N 
ATOM      7  C   LIG    1       -9.479   1.059  -0.968  0.00  0.00    +0.086 C 
ATOM      8  C   LIG    1       -8.378   0.001  -0.841  0.00  0.00    -0.060 C 
BRANCH   6   9
ATOM      9  C   LIG    1      -10.242   2.061  -3.126  0.00  0.00    +0.072 A 
ATOM     10  C   LIG    1      -10.421   1.165  -4.170  0.00  0.00    +0.027 A 
ATOM     11  C   LIG    1      -11.423   1.377  -5.098  0.00  0.00    +0.002 A 
ATOM     12  C   LIG    1      -12.249   2.481  -4.988  0.00  0.00    +0.004 A 
ATOM     13  C   LIG    1      -12.078   3.377  -3.950  0.00  0.00    +0.047 A 
ATOM     14  C   LIG    1      -11.079   3.169  -3.013  0.00  0.00    +0.141 A 
BRANCH  14  15
ATOM     15  O   LIG    1      -10.912   4.047  -1.988  0.00  0.00    -0.493 OA
ATOM     16  C   LIG    1      -11.807   5.160  -1.935  0.00  0.00    +0.277 C 
ENDBRANCH  14  15
ENDBRANCH   6   9
ENDBRANCH   1   2
BRANCH   1  17
ATOM     17  C   LIG    1       -4.655   0.354  -0.560  0.00  0.00    +0.000 C 
BRANCH  17  18
ATOM     18  C   LIG    1       -3.561  -0.687  -0.318  0.00  0.00    +0.101 C 
BRANCH  18  19
ATOM     19  N   LIG    1       -2.260  -0.018  -0.236  0.00  0.00    -0.330 N 
ATOM     20  H   LIG    1       -2.210   0.950  -0.253  0.00  0.00    +0.147 HD
BRANCH  19  23
ATOM     21  C   LIG    1       -0.298   0.297  -2.245  0.00  0.00    +0.053 C 
ATOM     22  C   LIG    1       -0.131  -0.647  -1.082  0.00  0.00    +0.052 A 
ATOM     23  C   LIG    1       -1.111  -0.762  -0.137  0.00  0.00    +0.111 A 
ATOM     24  N   LIG    1       -0.936  -1.629   0.915  0.00  0.00    -0.285 N 
ATOM     25  C   LIG    1       -1.982  -1.759   1.933  0.00  0.00    +0.155 C 
ATOM     26  C   LIG    1        0.190  -2.359   1.014  0.00  0.00    +0.333 A 
ATOM     27  N   LIG    1        1.165  -2.258   0.093  0.00  0.00    -0.264 N 
ATOM     28  C   LIG    1        2.379  -3.066   0.229  0.00  0.00    +0.157 C 
ATOM     29  O   LIG    1        0.328  -3.121   1.952  0.00  0.00    -0.246 OA
ATOM     30  C   LIG    1        1.031  -1.424  -0.957  0.00  0.00    +0.261 A 
ATOM     31  O   LIG    1        1.917  -1.341  -1.791  0.00  0.00    -0.267 OA
ENDBRANCH  19  23
ENDBRANCH  18  19
ENDBRANCH  17  18
ENDBRANCH   1  17
TORSDOF 7
