REMARK  Name = ZINC02107888
REMARK                            x       y       z     vdW  Elec       q    Type
REMARK                         _______ _______ _______ _____ _____    ______ ____
ROOT
ATOM      1  N   LIG    1        0.406   8.560   1.277  0.00  0.00    -0.291 N 
ATOM      2  C   LIG    1       -0.779   8.112   1.991  0.00  0.00    +0.203 C 
ATOM      3  C   LIG    1       -1.277   6.799   1.481  0.00  0.00    +0.234 C 
ATOM      4  N   LIG    1       -0.695   6.098   0.507  0.00  0.00    -0.276 N 
ATOM      5  C   LIG    1        0.557   6.502  -0.131  0.00  0.00    +0.167 C 
ATOM      6  C   LIG    1        1.642   5.462   0.184  0.00  0.00    +0.069 C 
ATOM      7  C   LIG    1        1.068   4.082  -0.010  0.00  0.00    -0.015 A 
ATOM      8  C   LIG    1        1.776   2.827  -0.158  0.00  0.00    +0.003 A 
ATOM      9  C   LIG    1        3.136   2.503  -0.181  0.00  0.00    +0.010 A 
ATOM     10  C   LIG    1        3.456   1.177  -0.338  0.00  0.00    +0.001 A 
ATOM     11  C   LIG    1        2.486   0.197  -0.469  0.00  0.00    +0.002 A 
ATOM     12  C   LIG    1        1.133   0.489  -0.452  0.00  0.00    +0.026 A 
ATOM     13  C   LIG    1        0.779   1.828  -0.294  0.00  0.00    +0.047 A 
ATOM     14  N   LIG    1       -0.433   2.454  -0.242  0.00  0.00    -0.356 N 
ATOM     15  H   LIG    1       -1.294   2.011  -0.316  0.00  0.00    +0.166 HD
ATOM     16  C   LIG    1       -0.252   3.800  -0.067  0.00  0.00    +0.046 A 
ATOM     17  C   LIG    1       -1.335   4.849   0.042  0.00  0.00    +0.154 C 
ATOM     18  O   LIG    1       -2.279   6.340   1.988  0.00  0.00    -0.274 OA
ATOM     19  C   LIG    1        1.010   7.852   0.326  0.00  0.00    +0.237 C 
ATOM     20  O   LIG    1        1.988   8.332  -0.205  0.00  0.00    -0.274 OA
ENDROOT
BRANCH  17  21
ATOM     21  C   LIG    1       -1.972   5.070  -1.305  0.00  0.00    -0.021 A 
ATOM     22  C   LIG    1       -1.755   6.253  -1.986  0.00  0.00    +0.007 A 
ATOM     23  C   LIG    1       -2.334   6.454  -3.225  0.00  0.00    +0.020 A 
ATOM     24  C   LIG    1       -3.141   5.476  -3.778  0.00  0.00    +0.041 A 
ATOM     25 CL   LIG    1       -3.875   5.731  -5.330  0.00  0.00    -0.084 Cl
ATOM     26  C   LIG    1       -3.362   4.294  -3.094  0.00  0.00    +0.020 A 
ATOM     27  C   LIG    1       -2.778   4.092  -1.858  0.00  0.00    +0.007 A 
ENDBRANCH  17  21
BRANCH   1  28
ATOM     28  C   LIG    1        0.967   9.868   1.625  0.00  0.00    +0.108 C 
BRANCH  28  29
ATOM     29  C   LIG    1        0.326  10.947   0.750  0.00  0.00    +0.019 C 
BRANCH  29  31
ATOM     30  C   LIG    1        0.272  13.393   0.239  0.00  0.00    +0.004 C 
ATOM     31  C   LIG    1        0.913  12.313   1.114  0.00  0.00    -0.002 C 
ENDBRANCH  29  31
ENDBRANCH  28  29
ENDBRANCH   1  28
TORSDOF 4
