REMARK  Name = ZINC02049556
REMARK                            x       y       z     vdW  Elec       q    Type
REMARK                         _______ _______ _______ _____ _____    ______ ____
ROOT
ATOM      1  C   LIG    1        1.048  -2.838  -3.033  0.00  0.00    +0.085 C 
ATOM      2  C   LIG    1        1.467  -4.133  -3.156  0.00  0.00    +0.053 C 
ATOM      3  C   LIG    1        0.949  -5.179  -2.203  0.00  0.00    +0.066 C 
ATOM      4  N   LIG    1        2.325  -4.478  -4.107  0.00  0.00    -0.228 NA
ATOM      5  C   LIG    1        2.837  -3.653  -4.986  0.00  0.00    +0.178 A 
ATOM      6  N   LIG    1        2.550  -2.309  -5.039  0.00  0.00    -0.275 N 
ATOM      7  C   LIG    1        3.136  -1.563  -5.985  0.00  0.00    +0.268 A 
ATOM      8  C   LIG    1        4.057  -2.230  -6.916  0.00  0.00    +0.081 A 
ATOM      9  C   LIG    1        4.769  -1.707  -7.948  0.00  0.00    +0.028 C 
ATOM     10  O   LIG    1        2.912  -0.370  -6.071  0.00  0.00    -0.266 OA
ATOM     11  S   LIG    1        3.988  -3.912  -6.321  0.00  0.00    -0.046 S 
ATOM     12  C   LIG    1        1.587  -1.821  -4.012  0.00  0.00    +0.162 C 
ENDROOT
BRANCH  12  13
ATOM     13  C   LIG    1        0.414  -1.200  -4.728  0.00  0.00    -0.020 A 
ATOM     14  C   LIG    1       -0.191  -1.872  -5.773  0.00  0.00    +0.007 A 
ATOM     15  C   LIG    1       -1.267  -1.303  -6.430  0.00  0.00    +0.020 A 
ATOM     16  C   LIG    1       -1.737  -0.061  -6.040  0.00  0.00    +0.041 A 
ATOM     17 CL   LIG    1       -3.087   0.654  -6.865  0.00  0.00    -0.084 Cl
ATOM     18  C   LIG    1       -1.130   0.610  -4.994  0.00  0.00    +0.020 A 
ATOM     19  C   LIG    1       -0.058   0.038  -4.335  0.00  0.00    +0.007 A 
ENDBRANCH  12  13
BRANCH   9  20
ATOM     20  C   LIG    1        5.522  -2.594  -8.843  0.00  0.00    -0.024 A 
ATOM     21  C   LIG    1        5.192  -3.952  -8.928  0.00  0.00    +0.011 A 
ATOM     22  C   LIG    1        5.901  -4.779  -9.770  0.00  0.00    +0.046 A 
ATOM     23  C   LIG    1        6.944  -4.268 -10.535  0.00  0.00    +0.121 A 
ATOM     24  C   LIG    1        7.276  -2.921 -10.454  0.00  0.00    +0.046 A 
ATOM     25  C   LIG    1        6.570  -2.083  -9.620  0.00  0.00    +0.011 A 
BRANCH  23  26
ATOM     26  O   LIG    1        7.640  -5.088 -11.363  0.00  0.00    -0.481 OA
BRANCH  26  27
ATOM     27  C   LIG    1        8.698  -4.498 -12.120  0.00  0.00    +0.349 C 
BRANCH  27  28
ATOM     28  C   LIG    1        9.352  -5.553 -12.976  0.00  0.00    +0.343 C 
ATOM     29  O   LIG    1        8.948  -6.702 -12.941  0.00  0.00    -0.247 OA
BRANCH  28  30
ATOM     30  O   LIG    1       10.284  -5.256 -13.704  0.00  0.00    -0.478 OA
ATOM     31  H   LIG    1       10.594  -4.372 -13.731  0.00  0.00    +0.295 HD
ENDBRANCH  28  30
ENDBRANCH  27  28
ENDBRANCH  26  27
ENDBRANCH  23  26
ENDBRANCH   9  20
BRANCH   1  32
ATOM     32  C   LIG    1        0.139  -2.464  -2.030  0.00  0.00    +0.339 C 
ATOM     33  O   LIG    1       -0.391  -3.317  -1.340  0.00  0.00    -0.245 OA
BRANCH  32  34
ATOM     34  O   LIG    1       -0.146  -1.159  -1.829  0.00  0.00    -0.462 OA
BRANCH  34  36
ATOM     35  C   LIG    1       -1.275   0.664  -0.714  0.00  0.00    +0.048 C 
ATOM     36  C   LIG    1       -1.079  -0.852  -0.791  0.00  0.00    +0.229 C 
ENDBRANCH  34  36
ENDBRANCH  32  34
ENDBRANCH   1  32
TORSDOF 9
