REMARK  Name = ZINC02009309
REMARK                            x       y       z     vdW  Elec       q    Type
REMARK                         _______ _______ _______ _____ _____    ______ ____
ROOT
ATOM      1  N   LIG    1        2.026   1.287   0.160  0.00  0.00    +0.391 N 
ATOM      2  H   LIG    1        1.210   1.237   0.781  0.00  0.00    -0.080 HD
ATOM      3  C   LIG    1        1.645   1.874  -1.120  0.00  0.00    -0.064 C 
ATOM      4  C   LIG    1        0.347   1.176  -1.555  0.00  0.00    +0.024 C 
ATOM      5  C   LIG    1        0.631  -0.314  -1.767  0.00  0.00    +0.088 C 
ATOM      6  C   LIG    1        1.276  -0.901  -0.508  0.00  0.00    +0.024 C 
ATOM      7  C   LIG    1        2.771   1.418  -2.077  0.00  0.00    -0.017 C 
ATOM      8  C   LIG    1        3.343   0.138  -1.432  0.00  0.00    -0.017 C 
ATOM      9  C   LIG    1        2.511  -0.062  -0.144  0.00  0.00    -0.064 C 
ENDROOT
BRANCH   5  10
ATOM     10  C   LIG    1       -0.661  -1.035  -2.051  0.00  0.00    -0.016 A 
ATOM     11  C   LIG    1       -1.845  -0.573  -1.507  0.00  0.00    +0.006 A 
ATOM     12  C   LIG    1       -3.031  -1.232  -1.771  0.00  0.00    +0.000 A 
ATOM     13  C   LIG    1       -3.031  -2.360  -2.571  0.00  0.00    +0.000 A 
ATOM     14  C   LIG    1       -1.847  -2.825  -3.110  0.00  0.00    +0.000 A 
ATOM     15  C   LIG    1       -0.661  -2.163  -2.850  0.00  0.00    +0.006 A 
ENDBRANCH   5  10
BRANCH   5  16
ATOM     16  O   LIG    1        1.519  -0.475  -2.875  0.00  0.00    -0.384 OA
ATOM     17  H   LIG    1        1.744  -1.395  -3.068  0.00  0.00    +0.211 HD
ENDBRANCH   5  16
BRANCH   1  18
ATOM     18  C   LIG    1        3.101   2.096   0.821  0.00  0.00    -0.006 C 
BRANCH  18  25
ATOM     19  C   LIG    1        4.991   4.280   0.861  0.00  0.00    +0.044 C 
ATOM     20  C   LIG    1        3.522   4.551   1.059  0.00  0.00    -0.049 A 
ATOM     21  C   LIG    1        3.079   5.846   1.257  0.00  0.00    +0.003 A 
ATOM     22  C   LIG    1        1.732   6.094   1.443  0.00  0.00    +0.000 A 
ATOM     23  C   LIG    1        0.828   5.048   1.429  0.00  0.00    +0.000 A 
ATOM     24  C   LIG    1        1.271   3.754   1.228  0.00  0.00    +0.002 A 
ATOM     25  C   LIG    1        2.618   3.506   1.040  0.00  0.00    -0.054 A 
ENDBRANCH  18  25
BRANCH  18  26
ATOM     26  C   LIG    1        3.475   1.481   2.145  0.00  0.00    -0.054 A 
ATOM     27  C   LIG    1        2.538   1.400   3.159  0.00  0.00    +0.002 A 
ATOM     28  C   LIG    1        2.881   0.837   4.373  0.00  0.00    +0.000 A 
ATOM     29  C   LIG    1        4.160   0.353   4.574  0.00  0.00    +0.000 A 
ATOM     30  C   LIG    1        5.096   0.432   3.560  0.00  0.00    +0.003 A 
ATOM     31  C   LIG    1        4.752   0.993   2.344  0.00  0.00    -0.049 A 
ATOM     32  C   LIG    1        5.771   1.075   1.237  0.00  0.00    +0.044 C 
ENDBRANCH  18  26
ENDBRANCH   1  18
TORSDOF 5
