REMARK  Name = ZINC01692389
REMARK                            x       y       z     vdW  Elec       q    Type
REMARK                         _______ _______ _______ _____ _____    ______ ____
ROOT
ATOM      1  C   LIG    1        0.919  -2.408   9.175  0.00  0.00    +0.120 C 
ENDROOT
BRANCH   1   2
ATOM      2  C   LIG    1        1.748  -1.161   9.348  0.00  0.00    -0.011 A 
ATOM      3  C   LIG    1        1.139   0.031   9.693  0.00  0.00    +0.007 A 
ATOM      4  C   LIG    1        1.899   1.175   9.852  0.00  0.00    +0.004 A 
ATOM      5  C   LIG    1        3.268   1.126   9.666  0.00  0.00    -0.050 A 
ATOM      6  C   LIG    1        4.096   2.373   9.838  0.00  0.00    +0.044 C 
ATOM      7  C   LIG    1        3.877  -0.066   9.322  0.00  0.00    +0.004 A 
ATOM      8  C   LIG    1        3.118  -1.210   9.167  0.00  0.00    +0.007 A 
ENDBRANCH   1   2
BRANCH   1  12
ATOM      9  C   LIG    1       -1.732  -1.909   5.861  0.00  0.00    +0.120 A 
ATOM     10  C   LIG    1       -0.466  -2.442   5.664  0.00  0.00    +0.046 A 
ATOM     11  C   LIG    1        0.389  -2.602   6.737  0.00  0.00    +0.010 A 
ATOM     12  C   LIG    1       -0.015  -2.232   8.006  0.00  0.00    -0.011 A 
ATOM     13  C   LIG    1       -1.276  -1.700   8.205  0.00  0.00    +0.010 A 
ATOM     14  C   LIG    1       -2.133  -1.532   7.134  0.00  0.00    +0.046 A 
BRANCH   9  15
ATOM     15  O   LIG    1       -2.575  -1.750   4.807  0.00  0.00    -0.494 OA
BRANCH  15  16
ATOM     16  C   LIG    1       -2.095  -2.159   3.524  0.00  0.00    +0.210 C 
BRANCH  16  17
ATOM     17  C   LIG    1       -3.175  -1.905   2.471  0.00  0.00    -0.037 C 
BRANCH  17  18
ATOM     18  N   LIG    1       -3.414  -0.460   2.353  0.00  0.00    +0.382 N 
ATOM     19  H   LIG    1       -3.641  -0.082   3.261  0.00  0.00    -0.082 HD
BRANCH  18  21
ATOM     20  C   LIG    1       -2.410   1.712   1.834  0.00  0.00    -0.017 C 
ATOM     21  C   LIG    1       -2.206   0.196   1.837  0.00  0.00    -0.082 C 
ENDBRANCH  18  21
BRANCH  18  22
ATOM     22  C   LIG    1       -4.532  -0.223   1.431  0.00  0.00    -0.082 C 
ATOM     23  C   LIG    1       -5.820  -0.786   2.035  0.00  0.00    -0.017 C 
ENDBRANCH  18  22
ENDBRANCH  17  18
ENDBRANCH  16  17
ENDBRANCH  15  16
ENDBRANCH   9  15
ENDBRANCH   1  12
BRANCH   1  24
ATOM     24  O   LIG    1        1.781  -3.522   8.932  0.00  0.00    -0.379 OA
ATOM     25  H   LIG    1        1.314  -4.361   8.811  0.00  0.00    +0.211 HD
ENDBRANCH   1  24
BRANCH   1  26
ATOM     26  C   LIG    1        0.105  -2.660  10.445  0.00  0.00    +0.079 C 
BRANCH  26  27
ATOM     27  C   LIG    1       -0.652  -3.956  10.308  0.00  0.00    -0.044 A 
ATOM     28  C   LIG    1       -1.970  -3.945   9.892  0.00  0.00    +0.005 A 
ATOM     29  C   LIG    1       -2.665  -5.133   9.766  0.00  0.00    +0.020 A 
ATOM     30  C   LIG    1       -2.041  -6.333  10.057  0.00  0.00    +0.041 A 
ATOM     31 CL   LIG    1       -2.913  -7.826   9.900  0.00  0.00    -0.084 Cl
ATOM     32  C   LIG    1       -0.722  -6.343  10.474  0.00  0.00    +0.020 A 
ATOM     33  C   LIG    1       -0.026  -5.155  10.594  0.00  0.00    +0.005 A 
ENDBRANCH  26  27
ENDBRANCH   1  26
TORSDOF 11
