REMARK  Name = ZINC02016001
REMARK                            x       y       z     vdW  Elec       q    Type
REMARK                         _______ _______ _______ _____ _____    ______ ____
ROOT
ATOM      1  N   LIG    1       -1.308   4.409   5.167  0.00  0.00    -0.281 N 
ATOM      2  H   LIG    1       -2.129   3.946   5.395  0.00  0.00    +0.155 HD
ATOM      3  C   LIG    1       -0.796   4.301   3.925  0.00  0.00    +0.250 C 
ATOM      4  O   LIG    1        0.187   4.947   3.614  0.00  0.00    -0.270 OA
ENDROOT
BRANCH   3   5
ATOM      5  C   LIG    1       -1.425   3.400   2.945  0.00  0.00    +0.059 A 
ATOM      6  C   LIG    1       -2.601   2.558   3.156  0.00  0.00    +0.032 A 
ATOM      7  C   LIG    1       -2.814   1.917   2.002  0.00  0.00    +0.088 A 
ATOM      8  N   LIG    1       -1.853   2.300   1.079  0.00  0.00    -0.333 N 
ATOM      9  C   LIG    1       -1.615   1.912  -0.343  0.00  0.00    +0.177 C 
ATOM     10  S   LIG    1        0.103   2.512  -0.614  0.00  0.00    -0.125 S 
ATOM     11  C   LIG    1        0.121   3.721   0.774  0.00  0.00    +0.125 C 
ATOM     12  C   LIG    1       -1.021   3.180   1.639  0.00  0.00    +0.042 A 
BRANCH   9  13
ATOM     13  C   LIG    1       -2.582   2.612  -1.262  0.00  0.00    +0.003 A 
ATOM     14  C   LIG    1       -3.401   1.880  -2.108  0.00  0.00    +0.009 A 
ATOM     15  C   LIG    1       -4.279   2.567  -2.933  0.00  0.00    +0.020 A 
ATOM     16  C   LIG    1       -4.301   3.948  -2.893  0.00  0.00    +0.111 A 
ATOM     17  N   LIG    1       -3.504   4.612  -2.078  0.00  0.00    -0.263 NA
ATOM     18  C   LIG    1       -2.660   3.992  -1.276  0.00  0.00    +0.117 A 
ENDBRANCH   9  13
ENDBRANCH   3   5
BRANCH   1  23
ATOM     19  C   LIG    1        0.640   7.131   6.712  0.00  0.00    +0.024 A 
ATOM     20  C   LIG    1        0.635   6.724   8.049  0.00  0.00    +0.012 A 
ATOM     21  C   LIG    1       -0.010   5.561   8.413  0.00  0.00    +0.002 A 
ATOM     22  C   LIG    1       -0.658   4.796   7.460  0.00  0.00    +0.023 A 
ATOM     23  C   LIG    1       -0.655   5.189   6.127  0.00  0.00    +0.034 A 
ATOM     24  C   LIG    1       -0.010   6.356   5.750  0.00  0.00    +0.035 A 
BRANCH  19  25
ATOM     25  C   LIG    1        1.329   8.377   6.318  0.00  0.00    +0.193 C 
ATOM     26  O   LIG    1        1.453   8.658   5.142  0.00  0.00    -0.287 OA
BRANCH  25  30
ATOM     27  C   LIG    1        2.880  10.978   9.296  0.00  0.00    +0.000 A 
ATOM     28  C   LIG    1        3.564  10.808   8.106  0.00  0.00    +0.001 A 
ATOM     29  C   LIG    1        3.067   9.965   7.134  0.00  0.00    +0.012 A 
ATOM     30  C   LIG    1        1.869   9.282   7.354  0.00  0.00    +0.022 A 
ATOM     31  C   LIG    1        1.180   9.462   8.556  0.00  0.00    +0.012 A 
ATOM     32  C   LIG    1        1.692  10.304   9.521  0.00  0.00    +0.001 A 
ENDBRANCH  25  30
ENDBRANCH  19  25
ENDBRANCH   1  23
TORSDOF 5
