REMARK  Name = ZINC01675288
REMARK                            x       y       z     vdW  Elec       q    Type
REMARK                         _______ _______ _______ _____ _____    ______ ____
ROOT
ATOM      1  C   LIG    1        3.636   3.733  -0.014  0.00  0.00    +0.139 C 
ATOM      2  N   LIG    1        2.215   4.090   0.002  0.00  0.00    -0.267 N 
ATOM      3  C   LIG    1        1.174   3.165   0.007  0.00  0.00    +0.047 A 
ATOM      4  C   LIG    1        1.179   1.776   0.000  0.00  0.00    +0.024 A 
ATOM      5  C   LIG    1       -0.013   1.076   0.008  0.00  0.00    +0.002 A 
ATOM      6  C   LIG    1       -1.225   1.745   0.017  0.00  0.00    +0.001 A 
ATOM      7  C   LIG    1       -1.254   3.124   0.031  0.00  0.00    +0.014 A 
ATOM      8  C   LIG    1       -0.057   3.841   0.023  0.00  0.00    +0.048 A 
ATOM      9  C   LIG    1        0.253   5.282   0.027  0.00  0.00    +0.250 C 
ATOM     10  O   LIG    1       -0.530   6.208   0.040  0.00  0.00    -0.282 OA
ATOM     11  C   LIG    1        1.752   5.352   0.013  0.00  0.00    +0.291 C 
ATOM     12  O   LIG    1        2.423   6.362   0.012  0.00  0.00    -0.266 OA
ENDROOT
TORSDOF 0
