REMARK  Name = ZINC02259037
REMARK                            x       y       z     vdW  Elec       q    Type
REMARK                         _______ _______ _______ _____ _____    ______ ____
ROOT
ATOM      1  C   LIG    1        1.259  -6.791  -2.277  0.00  0.00    +0.014 A 
ATOM      2  C   LIG    1        1.277  -7.220  -0.939  0.00  0.00    -0.017 A 
ATOM      3  C   LIG    1        1.280  -6.286   0.068  0.00  0.00    +0.046 A 
ATOM      4  C   LIG    1        1.309  -6.673   1.525  0.00  0.00    +0.056 C 
ATOM      5  C   LIG    1        0.890  -8.130   1.703  0.00  0.00    +0.006 C 
ATOM      6  C   LIG    1        1.729  -8.995   0.754  0.00  0.00    +0.005 C 
ATOM      7  N   LIG    1        1.267  -4.986  -0.215  0.00  0.00    -0.244 NA
ATOM      8  C   LIG    1        1.244  -4.520  -1.450  0.00  0.00    +0.115 A 
ATOM      9  C   LIG    1        1.286  -8.702  -0.679  0.00  0.00    +0.037 C 
ATOM     10  C   LIG    1        1.245  -5.405  -2.542  0.00  0.00    +0.092 A 
ENDROOT
BRANCH   1  13
ATOM     11  C   LIG    1        1.988  -8.973  -5.277  0.00  0.00    +0.008 A 
ATOM     12  C   LIG    1        2.211  -7.992  -4.340  0.00  0.00    +0.016 A 
ATOM     13  C   LIG    1        1.256  -7.768  -3.380  0.00  0.00    +0.021 A 
ATOM     14  S   LIG    1        0.004  -8.962  -3.822  0.00  0.00    -0.097 S 
ATOM     15  C   LIG    1        0.828  -9.681  -5.233  0.00  0.00    +0.046 A 
ENDBRANCH   1  13
BRANCH  10  16
ATOM     16  C   LIG    1        1.233  -4.913  -3.887  0.00  0.00    +0.102 C 
ATOM     17  N   LIG    1        1.224  -4.523  -4.954  0.00  0.00    -0.191 NA
ENDBRANCH  10  16
BRANCH   8  18
ATOM     18  S   LIG    1        1.219  -2.780  -1.731  0.00  0.00    -0.100 S 
BRANCH  18  19
ATOM     19  C   LIG    1        1.227  -2.186  -0.021  0.00  0.00    +0.111 C 
BRANCH  19  20
ATOM     20  C   LIG    1        1.208  -0.679  -0.013  0.00  0.00    -0.037 A 
ATOM     21  C   LIG    1        0.002  -0.004   0.002  0.00  0.00    +0.007 A 
ATOM     22  C   LIG    1       -0.017   1.378   0.010  0.00  0.00    +0.038 A 
ATOM     23  C   LIG    1        1.173   2.086   0.002  0.00  0.00    +0.123 A 
ATOM     24  F   LIG    1        1.156   3.437   0.009  0.00  0.00    -0.205 F 
ATOM     25  C   LIG    1        2.381   1.408  -0.013  0.00  0.00    +0.038 A 
ATOM     26  C   LIG    1        2.397   0.026  -0.020  0.00  0.00    +0.007 A 
ENDBRANCH  19  20
ENDBRANCH  18  19
ENDBRANCH   8  18
TORSDOF 5
