REMARK  Name = ZINC01912572
REMARK                            x       y       z     vdW  Elec       q    Type
REMARK                         _______ _______ _______ _____ _____    ______ ____
ROOT
ATOM      1  C   LIG    1       -0.176   9.446   0.472  0.00  0.00    +0.001 A 
ATOM      2  C   LIG    1        1.010  10.162   0.496  0.00  0.00    +0.002 A 
ATOM      3  C   LIG    1        2.221   9.511   0.378  0.00  0.00    +0.024 A 
ATOM      4  C   LIG    1        2.258   8.129   0.239  0.00  0.00    +0.040 A 
ATOM      5  C   LIG    1        1.058   7.402   0.209  0.00  0.00    +0.058 A 
ATOM      6  C   LIG    1       -0.160   8.076   0.330  0.00  0.00    +0.015 A 
ENDROOT
BRANCH   5   7
ATOM      7  C   LIG    1        1.083   5.936   0.056  0.00  0.00    +0.250 C 
ATOM      8  N   LIG    1       -0.071   5.254  -0.084  0.00  0.00    -0.281 N 
ATOM      9  H   LIG    1       -0.911   5.732  -0.161  0.00  0.00    +0.155 HD
ATOM     10  O   LIG    1        2.144   5.342   0.057  0.00  0.00    -0.270 OA
BRANCH   8  11
ATOM     11  C   LIG    1       -0.057   3.856  -0.120  0.00  0.00    +0.034 A 
ATOM     12  C   LIG    1       -0.982   3.170  -0.897  0.00  0.00    +0.023 A 
ATOM     13  C   LIG    1       -0.965   1.789  -0.929  0.00  0.00    +0.002 A 
ATOM     14  C   LIG    1       -0.029   1.090  -0.189  0.00  0.00    +0.012 A 
ATOM     15  C   LIG    1        0.889   1.769   0.590  0.00  0.00    +0.057 A 
ATOM     16  C   LIG    1        0.882   3.150   0.622  0.00  0.00    +0.035 A 
BRANCH  15  17
ATOM     17  C   LIG    1        1.903   1.003   1.399  0.00  0.00    +0.417 C 
ATOM     18  F   LIG    1        1.740   1.304   2.756  0.00  0.00    -0.166 F 
ATOM     19  F   LIG    1        3.192   1.362   0.993  0.00  0.00    -0.166 F 
ATOM     20  F   LIG    1        1.716  -0.369   1.201  0.00  0.00    -0.166 F 
ENDBRANCH  15  17
ENDBRANCH   8  11
ENDBRANCH   5   7
BRANCH   4  21
ATOM     21  N   LIG    1        3.476   7.471   0.126  0.00  0.00    -0.339 N 
ATOM     22  H   LIG    1        3.505   6.502   0.121  0.00  0.00    +0.146 HD
BRANCH  21  23
ATOM     23  C   LIG    1        4.717   8.242   0.014  0.00  0.00    +0.137 C 
BRANCH  23  24
ATOM     24  C   LIG    1        5.886   7.297  -0.096  0.00  0.00    -0.028 A 
ATOM     25  C   LIG    1        6.549   6.854   1.038  0.00  0.00    +0.025 A 
ATOM     26  C   LIG    1        7.615   5.985   0.899  0.00  0.00    +0.111 A 
ATOM     27  N   LIG    1        8.008   5.585  -0.295  0.00  0.00    -0.263 NA
ATOM     28  C   LIG    1        7.404   5.990  -1.395  0.00  0.00    +0.111 A 
ATOM     29  C   LIG    1        6.328   6.855  -1.333  0.00  0.00    +0.025 A 
ENDBRANCH  23  24
ENDBRANCH  21  23
ENDBRANCH   4  21
TORSDOF 6
