REMARK  Name = ZINC02049558
REMARK                            x       y       z     vdW  Elec       q    Type
REMARK                         _______ _______ _______ _____ _____    ______ ____
ROOT
ATOM      1  C   LIG    1        0.257  -2.661  -3.615  0.00  0.00    +0.085 C 
ATOM      2  C   LIG    1        0.559  -3.989  -3.739  0.00  0.00    +0.053 C 
ATOM      3  C   LIG    1       -0.183  -5.005  -2.910  0.00  0.00    +0.066 C 
ATOM      4  N   LIG    1        1.502  -4.390  -4.582  0.00  0.00    -0.228 NA
ATOM      5  C   LIG    1        2.207  -3.596  -5.348  0.00  0.00    +0.178 A 
ATOM      6  N   LIG    1        2.062  -2.228  -5.380  0.00  0.00    -0.275 N 
ATOM      7  C   LIG    1        2.841  -1.518  -6.206  0.00  0.00    +0.268 A 
ATOM      8  C   LIG    1        3.811  -2.246  -7.035  0.00  0.00    +0.081 A 
ATOM      9  C   LIG    1        4.705  -1.768  -7.939  0.00  0.00    +0.028 C 
ATOM     10  O   LIG    1        2.749  -0.306  -6.268  0.00  0.00    -0.266 OA
ATOM     11  S   LIG    1        3.498  -3.930  -6.530  0.00  0.00    -0.046 S 
ATOM     12  C   LIG    1        1.020  -1.675  -4.469  0.00  0.00    +0.162 C 
ENDROOT
BRANCH  12  13
ATOM     13  C   LIG    1        1.692  -0.689  -3.549  0.00  0.00    -0.020 A 
ATOM     14  C   LIG    1        2.874  -1.027  -2.917  0.00  0.00    +0.007 A 
ATOM     15  C   LIG    1        3.491  -0.123  -2.073  0.00  0.00    +0.020 A 
ATOM     16  C   LIG    1        2.924   1.121  -1.860  0.00  0.00    +0.041 A 
ATOM     17 CL   LIG    1        3.698   2.257  -0.800  0.00  0.00    -0.084 Cl
ATOM     18  C   LIG    1        1.741   1.460  -2.492  0.00  0.00    +0.020 A 
ATOM     19  C   LIG    1        1.128   0.556  -3.340  0.00  0.00    +0.007 A 
ENDBRANCH  12  13
BRANCH   9  20
ATOM     20  C   LIG    1        5.414  -2.695  -8.831  0.00  0.00    -0.024 A 
ATOM     21  C   LIG    1        5.037  -4.042  -8.887  0.00  0.00    +0.011 A 
ATOM     22  C   LIG    1        5.706  -4.906  -9.725  0.00  0.00    +0.046 A 
ATOM     23  C   LIG    1        6.752  -4.443 -10.514  0.00  0.00    +0.121 A 
ATOM     24  C   LIG    1        7.130  -3.106 -10.461  0.00  0.00    +0.046 A 
ATOM     25  C   LIG    1        6.466  -2.232  -9.632  0.00  0.00    +0.011 A 
BRANCH  23  26
ATOM     26  O   LIG    1        7.408  -5.300 -11.338  0.00  0.00    -0.481 OA
BRANCH  26  27
ATOM     27  C   LIG    1        8.474  -4.758 -12.122  0.00  0.00    +0.349 C 
BRANCH  27  28
ATOM     28  C   LIG    1        9.078  -5.848 -12.969  0.00  0.00    +0.343 C 
ATOM     29  O   LIG    1        8.638  -6.983 -12.907  0.00  0.00    -0.247 OA
BRANCH  28  30
ATOM     30  O   LIG    1       10.008  -5.595 -13.715  0.00  0.00    -0.478 OA
ATOM     31  H   LIG    1       10.347  -4.722 -13.762  0.00  0.00    +0.295 HD
ENDBRANCH  28  30
ENDBRANCH  27  28
ENDBRANCH  26  27
ENDBRANCH  23  26
ENDBRANCH   9  20
BRANCH   1  32
ATOM     32  C   LIG    1       -0.740  -2.227  -2.725  0.00  0.00    +0.339 C 
ATOM     33  O   LIG    1       -1.437  -3.042  -2.147  0.00  0.00    -0.245 OA
BRANCH  32  34
ATOM     34  O   LIG    1       -0.925  -0.907  -2.511  0.00  0.00    -0.462 OA
BRANCH  34  36
ATOM     35  C   LIG    1       -2.015   0.988  -1.480  0.00  0.00    +0.048 C 
ATOM     36  C   LIG    1       -1.955  -0.537  -1.593  0.00  0.00    +0.229 C 
ENDBRANCH  34  36
ENDBRANCH  32  34
ENDBRANCH   1  32
TORSDOF 9
