REMARK  Name = ZINC01710767
REMARK                            x       y       z     vdW  Elec       q    Type
REMARK                         _______ _______ _______ _____ _____    ______ ____
ROOT
ATOM      1  C   LIG    1       -2.539   1.299   0.021  0.00  0.00    +0.240 C 
ATOM      2  O   LIG    1       -2.747   0.100   0.015  0.00  0.00    -0.283 OA
ENDROOT
BRANCH   1   5
ATOM      3  C   LIG    1        1.144   1.807   0.001  0.00  0.00    +0.008 A 
ATOM      4  C   LIG    1       -0.013   1.076   0.008  0.00  0.00    +0.019 A 
ATOM      5  C   LIG    1       -1.211   1.788   0.017  0.00  0.00    +0.063 A 
ATOM      6  S   LIG    1       -0.633   3.476   0.027  0.00  0.00    -0.093 S 
ATOM      7  C   LIG    1        1.073   3.168   0.009  0.00  0.00    +0.046 A 
ENDBRANCH   1   5
BRANCH   1   8
ATOM      8  C   LIG    1       -3.683   2.252   0.031  0.00  0.00    +0.240 C 
ATOM      9  O   LIG    1       -3.476   3.450   0.037  0.00  0.00    -0.283 OA
BRANCH   8  10
ATOM     10  C   LIG    1       -5.012   1.763   0.035  0.00  0.00    +0.063 A 
ATOM     11  C   LIG    1       -6.210   2.475   0.044  0.00  0.00    +0.019 A 
ATOM     12  C   LIG    1       -7.367   1.744   0.045  0.00  0.00    +0.008 A 
ATOM     13  C   LIG    1       -7.295   0.383   0.037  0.00  0.00    +0.046 A 
ATOM     14  S   LIG    1       -5.589   0.075   0.020  0.00  0.00    -0.093 S 
ENDBRANCH   8  10
ENDBRANCH   1   8
TORSDOF 3
