REMARK  Name = ZINC01999244
REMARK                            x       y       z     vdW  Elec       q    Type
REMARK                         _______ _______ _______ _____ _____    ______ ____
ROOT
ATOM      1  N   LIG    1       -4.717  -1.231   1.548  0.00  0.00    -0.278 N 
ATOM      2  C   LIG    1       -3.986  -0.475   0.645  0.00  0.00    +0.146 A 
ATOM      3  N   LIG    1       -4.018  -0.336  -0.684  0.00  0.00    -0.332 N 
ATOM      4  H   LIG    1       -4.664  -0.824  -1.315  0.00  0.00    +0.168 HD
ATOM      5  C   LIG    1       -3.099   0.519  -1.059  0.00  0.00    +0.176 A 
ATOM      6  N   LIG    1       -2.430   0.972   0.019  0.00  0.00    -0.319 N 
ATOM      7  C   LIG    1       -2.974   0.347   1.123  0.00  0.00    +0.150 A 
ATOM      8  C   LIG    1       -2.727   0.397   2.512  0.00  0.00    +0.282 A 
ATOM      9  N   LIG    1       -3.472  -0.363   3.341  0.00  0.00    -0.259 N 
ATOM     10  O   LIG    1       -1.849   1.114   2.956  0.00  0.00    -0.265 OA
ATOM     11  C   LIG    1       -4.445  -1.158   2.864  0.00  0.00    +0.334 A 
ATOM     12  O   LIG    1       -5.097  -1.829   3.642  0.00  0.00    -0.246 OA
ENDROOT
BRANCH   1  13
ATOM     13  C   LIG    1       -5.785  -2.111   1.069  0.00  0.00    +0.128 C 
BRANCH  13  14
ATOM     14  C   LIG    1       -5.209  -3.496   0.766  0.00  0.00    +0.021 C 
BRANCH  14  16
ATOM     15  C   LIG    1       -5.749  -5.800  -0.036  0.00  0.00    +0.004 C 
ATOM     16  C   LIG    1       -6.325  -4.415   0.266  0.00  0.00    -0.002 C 
ENDBRANCH  14  16
ENDBRANCH  13  14
ENDBRANCH   1  13
BRANCH   6  17
ATOM     17  C   LIG    1       -1.329   1.939   0.019  0.00  0.00    +0.197 C 
BRANCH  17  18
ATOM     18  C   LIG    1       -0.014   1.203   0.009  0.00  0.00    +0.150 C 
ATOM     19  C   LIG    1        1.280   1.975   0.000  0.00  0.00    +0.088 C 
ATOM     20  O   LIG    1        0.002  -0.004   0.002  0.00  0.00    -0.296 OA
ENDBRANCH  17  18
ENDBRANCH   6  17
BRANCH   9  21
ATOM     21  C   LIG    1       -3.217  -0.320   4.783  0.00  0.00    +0.130 C 
BRANCH  21  22
ATOM     22  C   LIG    1       -2.180  -1.384   5.149  0.00  0.00    +0.022 C 
BRANCH  22  23
ATOM     23  C   LIG    1       -1.914  -1.339   6.655  0.00  0.00    -0.002 C 
ATOM     24  C   LIG    1       -0.877  -2.403   7.022  0.00  0.00    +0.004 C 
ENDBRANCH  22  23
ENDBRANCH  21  22
ENDBRANCH   9  21
TORSDOF 8
