REMARK  Name = ZINC01996109
REMARK                            x       y       z     vdW  Elec       q    Type
REMARK                         _______ _______ _______ _____ _____    ______ ____
ROOT
ATOM      1  C   LIG    1       -3.225   6.610   0.068  0.00  0.00    +0.082 C 
ENDROOT
BRANCH   1   2
ATOM      2  C   LIG    1       -3.004   5.096   0.058  0.00  0.00    +0.232 C 
BRANCH   2   3
ATOM      3  O   LIG    1       -4.268   4.430   0.066  0.00  0.00    -0.488 OA
BRANCH   3   9
ATOM      4  C   LIG    1       -5.448   2.359   0.072  0.00  0.00    +0.162 A 
ATOM      5  C   LIG    1       -5.430   0.977   0.059  0.00  0.00    +0.065 A 
ATOM      6  C   LIG    1       -4.211   0.298   0.045  0.00  0.00    +0.064 A 
ATOM      7  C   LIG    1       -3.015   1.016   0.036  0.00  0.00    +0.019 A 
ATOM      8  C   LIG    1       -3.038   2.395   0.044  0.00  0.00    +0.050 A 
ATOM      9  C   LIG    1       -4.250   3.071   0.059  0.00  0.00    +0.162 A 
BRANCH   6  10
ATOM     10  C   LIG    1       -4.187  -1.181   0.037  0.00  0.00    +0.266 C 
ATOM     11  N   LIG    1       -5.357  -1.803   0.045  0.00  0.00    -0.288 N 
ATOM     12  H   LIG    1       -6.228  -1.259   0.056  0.00  0.00    +0.301 HD
ATOM     13  H   LIG    1       -5.393  -2.822   0.041  0.00  0.00    +0.301 HD
BRANCH  10  14
ATOM     14  N   LIG    1       -2.983  -1.851   0.022  0.00  0.00    -0.250 N 
ATOM     15  H   LIG    1       -2.967  -2.821   0.017  0.00  0.00    +0.288 HD
ATOM     16  H   LIG    1       -2.151  -1.352   0.016  0.00  0.00    +0.288 HD
ENDBRANCH  10  14
ENDBRANCH   6  10
BRANCH   4  18
ATOM     17  C   LIG    1       -7.822   2.231   0.106  0.00  0.00    +0.277 C 
ATOM     18  O   LIG    1       -6.634   3.025   0.093  0.00  0.00    -0.491 OA
ENDBRANCH   4  18
ENDBRANCH   3   9
ENDBRANCH   2   3
ENDBRANCH   1   2
BRANCH   1  19
ATOM     19  C   LIG    1       -1.871   7.323   0.059  0.00  0.00    +0.232 C 
BRANCH  19  20
ATOM     20  O   LIG    1       -2.078   8.737   0.069  0.00  0.00    -0.488 OA
BRANCH  20  21
ATOM     21  C   LIG    1       -0.969   9.522   0.062  0.00  0.00    +0.162 A 
ATOM     22  C   LIG    1        0.291   8.941   0.047  0.00  0.00    +0.050 A 
ATOM     23  C   LIG    1        1.419   9.734   0.040  0.00  0.00    +0.019 A 
ATOM     24  C   LIG    1        1.295  11.124   0.048  0.00  0.00    +0.064 A 
ATOM     25  C   LIG    1        0.028  11.709   0.064  0.00  0.00    +0.065 A 
ATOM     26  C   LIG    1       -1.099  10.909   0.065  0.00  0.00    +0.162 A 
BRANCH  24  27
ATOM     27  C   LIG    1        2.505  11.975   0.041  0.00  0.00    +0.266 C 
ATOM     28  N   LIG    1        2.318  13.287   0.049  0.00  0.00    -0.288 N 
ATOM     29  H   LIG    1        1.365  13.670   0.060  0.00  0.00    +0.301 HD
ATOM     30  H   LIG    1        3.121  13.916   0.044  0.00  0.00    +0.301 HD
BRANCH  27  31
ATOM     31  N   LIG    1        3.755  11.396   0.026  0.00  0.00    -0.250 N 
ATOM     32  H   LIG    1        4.548  11.955   0.021  0.00  0.00    +0.288 HD
ATOM     33  H   LIG    1        3.842  10.430   0.020  0.00  0.00    +0.288 HD
ENDBRANCH  27  31
ENDBRANCH  24  27
BRANCH  26  34
ATOM     34  O   LIG    1       -2.336  11.476   0.074  0.00  0.00    -0.491 OA
ATOM     35  C   LIG    1       -2.394  12.904   0.076  0.00  0.00    +0.277 C 
ENDBRANCH  26  34
ENDBRANCH  20  21
ENDBRANCH  19  20
ENDBRANCH   1  19
TORSDOF 12
