REMARK  Name = ZINC01721694
REMARK                            x       y       z     vdW  Elec       q    Type
REMARK                         _______ _______ _______ _____ _____    ______ ____
ROOT
ATOM      1  C   LIG    1       -1.293  -0.774   0.011  0.00  0.00    +0.232 C 
ATOM      2  C   LIG    1       -1.652  -1.165   1.450  0.00  0.00    +0.164 C 
ATOM      3  C   LIG    1       -3.023  -1.846   1.435  0.00  0.00    +0.078 C 
ATOM      4  C   LIG    1       -3.056  -2.897   0.354  0.00  0.00    +0.038 A 
ATOM      5  C   LIG    1       -4.041  -3.877   0.406  0.00  0.00    +0.127 A 
ATOM      6  C   LIG    1       -4.104  -4.856  -0.573  0.00  0.00    +0.091 A 
ATOM      7  C   LIG    1       -3.181  -4.858  -1.608  0.00  0.00    +0.124 A 
ATOM      8  C   LIG    1       -2.199  -3.883  -1.659  0.00  0.00    +0.091 A 
ATOM      9  C   LIG    1       -2.133  -2.901  -0.676  0.00  0.00    +0.132 A 
ATOM     10  O   LIG    1       -1.148  -1.968  -0.758  0.00  0.00    -0.481 OA
ENDROOT
BRANCH   1  16
ATOM     11  C   LIG    1       -0.017   1.378   0.010  0.00  0.00    +0.011 A 
ATOM     12  C   LIG    1        1.169   2.087   0.002  0.00  0.00    +0.046 A 
ATOM     13  C   LIG    1        2.380   1.409  -0.013  0.00  0.00    +0.117 A 
ATOM     14  C   LIG    1        2.396   0.022  -0.021  0.00  0.00    +0.046 A 
ATOM     15  C   LIG    1        1.207  -0.681  -0.013  0.00  0.00    +0.011 A 
ATOM     16  C   LIG    1        0.002  -0.004   0.002  0.00  0.00    -0.005 A 
BRANCH  13  17
ATOM     17  O   LIG    1        3.548   2.104  -0.021  0.00  0.00    -0.507 OA
ATOM     18  H   LIG    1        3.895   2.300   0.860  0.00  0.00    +0.292 HD
ENDBRANCH  13  17
ENDBRANCH   1  16
BRANCH   2  19
ATOM     19  O   LIG    1       -0.670  -2.068   1.963  0.00  0.00    -0.387 OA
ATOM     20  H   LIG    1       -0.837  -2.356   2.871  0.00  0.00    +0.210 HD
ENDBRANCH   2  19
BRANCH   5  21
ATOM     21  O   LIG    1       -4.946  -3.875   1.420  0.00  0.00    -0.506 OA
ATOM     22  H   LIG    1       -5.743  -3.361   1.234  0.00  0.00    +0.292 HD
ENDBRANCH   5  21
BRANCH   7  23
ATOM     23  O   LIG    1       -3.240  -5.815  -2.570  0.00  0.00    -0.507 OA
ATOM     24  H   LIG    1       -3.793  -5.579  -3.327  0.00  0.00    +0.292 HD
ENDBRANCH   7  23
TORSDOF 5
