REMARK  Name = ZINC02366077
REMARK                            x       y       z     vdW  Elec       q    Type
REMARK                         _______ _______ _______ _____ _____    ______ ____
ROOT
ATOM      1  N   LIG    1       -0.878  -7.002   1.964  0.00  0.00    -0.190 NA
ATOM      2  H   LIG    1       -0.108  -7.420   2.378  0.00  0.00    +0.148 HD
ENDROOT
BRANCH   1   3
ATOM      3  S   LIG    1       -0.840  -6.603   0.357  0.00  0.00    +0.058 S 
ATOM      4  O   LIG    1        0.447  -6.970  -0.121  0.00  0.00    -0.153 OA
ATOM      5  O   LIG    1       -2.038  -7.108  -0.216  0.00  0.00    -0.153 OA
BRANCH   3   9
ATOM      6  C   LIG    1       -1.081  -2.089   0.091  0.00  0.00    +0.033 A 
ATOM      7  C   LIG    1        0.155  -2.716   0.178  0.00  0.00    +0.025 A 
ATOM      8  C   LIG    1        0.225  -4.092   0.259  0.00  0.00    +0.030 A 
ATOM      9  C   LIG    1       -0.934  -4.847   0.254  0.00  0.00    +0.105 A 
ATOM     10  C   LIG    1       -2.166  -4.226   0.168  0.00  0.00    +0.030 A 
ATOM     11  C   LIG    1       -2.244  -2.849   0.093  0.00  0.00    +0.025 A 
BRANCH   6  14
ATOM     12  C   LIG    1       -2.194   1.470   0.609  0.00  0.00    +0.109 C 
ATOM     13  C   LIG    1       -2.169  -0.037   0.608  0.00  0.00    +0.214 C 
ATOM     14  N   LIG    1       -1.156  -0.694   0.009  0.00  0.00    -0.286 N 
ATOM     15  H   LIG    1       -0.478  -0.200  -0.478  0.00  0.00    +0.155 HD
ATOM     16  O   LIG    1       -3.061  -0.658   1.145  0.00  0.00    -0.276 OA
ENDBRANCH   6  14
ENDBRANCH   3   9
ENDBRANCH   1   3
BRANCH   1  17
ATOM     17  C   LIG    1       -2.077  -6.723   2.759  0.00  0.00    +0.110 C 
BRANCH  17  18
ATOM     18  C   LIG    1       -2.010  -7.503   4.074  0.00  0.00    +0.052 C 
BRANCH  18  19
ATOM     19  C   LIG    1       -3.242  -7.215   4.892  0.00  0.00    -0.046 A 
ATOM     20  C   LIG    1       -3.250  -6.158   5.782  0.00  0.00    +0.005 A 
ATOM     21  C   LIG    1       -4.380  -5.894   6.532  0.00  0.00    +0.029 A 
ATOM     22  C   LIG    1       -5.503  -6.688   6.393  0.00  0.00    +0.105 A 
ATOM     23  C   LIG    1       -5.496  -7.745   5.502  0.00  0.00    +0.029 A 
ATOM     24  C   LIG    1       -4.367  -8.006   4.748  0.00  0.00    +0.005 A 
BRANCH  22  25
ATOM     25  S   LIG    1       -6.944  -6.353   7.350  0.00  0.00    +0.056 S 
ATOM     26  O   LIG    1       -6.509  -5.646   8.504  0.00  0.00    -0.153 OA
ATOM     27  O   LIG    1       -7.670  -7.572   7.432  0.00  0.00    -0.153 OA
BRANCH  25  28
ATOM     28  N   LIG    1       -7.879  -5.302   6.476  0.00  0.00    -0.204 NA
ATOM     29  H   LIG    1       -7.462  -4.672   5.868  0.00  0.00    +0.144 HD
ATOM     30  H   LIG    1       -8.844  -5.317   6.572  0.00  0.00    +0.144 HD
ENDBRANCH  25  28
ENDBRANCH  22  25
ENDBRANCH  18  19
ENDBRANCH  17  18
ENDBRANCH   1  17
TORSDOF 8
