REMARK  Name = ZINC02349698
REMARK                            x       y       z     vdW  Elec       q    Type
REMARK                         _______ _______ _______ _____ _____    ______ ____
ROOT
ATOM      1  C   LIG    1        1.155   3.828   0.012  0.00  0.00    +0.002 A 
ATOM      2  C   LIG    1       -0.022   4.518   0.028  0.00  0.00    +0.010 A 
ATOM      3  C   LIG    1       -1.238   3.823   0.035  0.00  0.00    +0.002 A 
ATOM      4  C   LIG    1       -2.593   4.234   0.050  0.00  0.00    +0.042 A 
ATOM      5  CA  LIG    1       -3.365   3.115   0.051  0.00  0.00    +0.125 A 
ATOM      6  N   LIG    1       -2.547   2.001   0.036  0.00  0.00    -0.348 N 
ATOM      7  H   LIG    1       -2.849   1.079   0.034  0.00  0.00    +0.166 HD
ATOM      8  C   LIG    1       -1.236   2.414   0.021  0.00  0.00    +0.066 A 
ATOM      9  C   LIG    1       -0.021   1.732   0.012  0.00  0.00    +0.065 A 
ATOM     10 CL   LIG    1        0.002  -0.004   0.002  0.00  0.00    -0.081 Cl
ATOM     11  C   LIG    1        1.161   2.439   0.004  0.00  0.00    +0.022 A 
ENDROOT
BRANCH   5  12
ATOM     12  C   LIG    1       -4.833   3.093   0.066  0.00  0.00    +0.353 C 
ATOM     13  O   LIG    1       -5.457   4.137   0.079  0.00  0.00    -0.243 OA
BRANCH  12  14
ATOM     14  OXT LIG    1       -5.491   1.916   0.065  0.00  0.00    -0.476 OA
ATOM     15  HXT LIG    1       -5.010   1.111   0.055  0.00  0.00    +0.295 HD
ENDBRANCH  12  14
ENDBRANCH   5  12
TORSDOF 2
