REMARK  Name = ZINC01669613
REMARK                            x       y       z     vdW  Elec       q    Type
REMARK                         _______ _______ _______ _____ _____    ______ ____
ROOT
ATOM      1  C   LIG    1       -0.777   1.606  -3.730  0.00  0.00    +0.000 C 
ENDROOT
BRANCH   1   2
ATOM      2  C   LIG    1       -0.037   1.099  -2.490  0.00  0.00    +0.000 C 
BRANCH   2   3
ATOM      3  C   LIG    1       -0.753   1.593  -1.232  0.00  0.00    +0.001 C 
BRANCH   3   4
ATOM      4  C   LIG    1       -0.013   1.086   0.008  0.00  0.00    +0.015 C 
BRANCH   4   5
ATOM      5  C   LIG    1       -0.729   1.579   1.267  0.00  0.00    +0.084 C 
BRANCH   5   9
ATOM      6  C   LIG    1        1.301   0.189   4.669  0.00  0.00    +0.002 C 
ATOM      7  C   LIG    1        1.632   1.406   4.092  0.00  0.00    +0.015 C 
ATOM      8  C   LIG    1        0.942   1.831   2.973  0.00  0.00    +0.084 C 
ATOM      9  N   LIG    1       -0.020   1.094   2.454  0.00  0.00    -0.302 NA
ATOM     10  C   LIG    1       -0.366  -0.066   2.978  0.00  0.00    +0.084 C 
ATOM     11  C   LIG    1        0.283  -0.558   4.095  0.00  0.00    +0.015 C 
ENDBRANCH   5   9
ENDBRANCH   4   5
ENDBRANCH   3   4
ENDBRANCH   2   3
ENDBRANCH   1   2
BRANCH   1  12
ATOM     12  C   LIG    1       -0.060   1.113  -4.989  0.00  0.00    +0.000 C 
BRANCH  12  13
ATOM     13  C   LIG    1       -0.800   1.619  -6.228  0.00  0.00    +0.000 C 
BRANCH  13  14
ATOM     14  C   LIG    1       -0.084   1.126  -7.487  0.00  0.00    +0.001 C 
BRANCH  14  15
ATOM     15  C   LIG    1       -0.824   1.633  -8.726  0.00  0.00    +0.015 C 
BRANCH  15  16
ATOM     16  C   LIG    1       -0.108   1.139  -9.985  0.00  0.00    +0.084 C 
BRANCH  16  17
ATOM     17  N   LIG    1       -0.817   1.625 -11.172  0.00  0.00    -0.302 NA
ATOM     18  C   LIG    1       -1.776   0.886 -11.694  0.00  0.00    +0.084 C 
ATOM     19  C   LIG    1       -2.469   1.313 -12.811  0.00  0.00    +0.015 C 
ATOM     20  C   LIG    1       -2.138   2.530 -13.387  0.00  0.00    +0.002 C 
ATOM     21  C   LIG    1       -1.120   3.276 -12.813  0.00  0.00    +0.015 C 
ATOM     22  C   LIG    1       -0.475   2.787 -11.694  0.00  0.00    +0.084 C 
ENDBRANCH  16  17
ENDBRANCH  15  16
ENDBRANCH  14  15
ENDBRANCH  13  14
ENDBRANCH  12  13
ENDBRANCH   1  12
TORSDOF 11
