REMARK  Name = ZINC02141876
REMARK                            x       y       z     vdW  Elec       q    Type
REMARK                         _______ _______ _______ _____ _____    ______ ____
ROOT
ATOM      1  C   LIG    1        3.699  -0.689  -0.037  0.00  0.00    +0.002 A 
ATOM      2  C   LIG    1        4.686  -0.358  -0.953  0.00  0.00    +0.030 A 
ATOM      3  C   LIG    1        5.845  -1.088  -0.881  0.00  0.00    +0.078 A 
ATOM      4  S   LIG    1        5.508  -2.207   0.464  0.00  0.00    -0.079 S 
ATOM      5  C   LIG    1        3.956  -1.700   0.859  0.00  0.00    +0.100 A 
ENDROOT
BRANCH   1   9
ATOM      6  C   LIG    1       -0.017   1.379   0.010  0.00  0.00    +0.000 A 
ATOM      7  C   LIG    1        1.169   2.092   0.002  0.00  0.00    +0.001 A 
ATOM      8  C   LIG    1        2.377   1.426  -0.013  0.00  0.00    +0.008 A 
ATOM      9  C   LIG    1        2.402   0.033  -0.021  0.00  0.00    -0.017 A 
ATOM     10  C   LIG    1        1.205  -0.680  -0.013  0.00  0.00    +0.008 A 
ATOM     11  C   LIG    1        0.002  -0.004   0.002  0.00  0.00    +0.001 A 
ENDBRANCH   1   9
BRANCH   3  12
ATOM     12  C   LIG    1        7.056  -0.975  -1.704  0.00  0.00    +0.265 A 
ATOM     13  N   LIG    1        8.140  -1.713  -1.587  0.00  0.00    -0.187 NA
ATOM     14  C   LIG    1        9.048  -1.338  -2.501  0.00  0.00    +0.202 A 
ATOM     15  N   LIG    1        8.553  -0.354  -3.212  0.00  0.00    -0.056 NA
ATOM     16  O   LIG    1        7.249  -0.103  -2.711  0.00  0.00    -0.332 OA
BRANCH  14  17
ATOM     17  C   LIG    1       10.394  -1.938  -2.677  0.00  0.00    +0.023 A 
ATOM     18  C   LIG    1       10.805  -2.987  -1.857  0.00  0.00    +0.012 A 
ATOM     19  C   LIG    1       12.057  -3.542  -2.025  0.00  0.00    +0.001 A 
ATOM     20  C   LIG    1       12.905  -3.058  -3.006  0.00  0.00    +0.012 A 
ATOM     21  C   LIG    1       12.502  -2.016  -3.822  0.00  0.00    +0.055 A 
ATOM     22  C   LIG    1       11.249  -1.458  -3.666  0.00  0.00    +0.024 A 
BRANCH  21  23
ATOM     23  C   LIG    1       13.431  -1.494  -4.888  0.00  0.00    +0.417 C 
ATOM     24  F   LIG    1       13.696  -0.140  -4.653  0.00  0.00    -0.166 F 
ATOM     25  F   LIG    1       12.831  -1.642  -6.143  0.00  0.00    -0.166 F 
ATOM     26  F   LIG    1       14.629  -2.215  -4.856  0.00  0.00    -0.166 F 
ENDBRANCH  21  23
ENDBRANCH  14  17
ENDBRANCH   3  12
BRANCH   5  27
ATOM     27  C   LIG    1        3.054  -2.232   1.942  0.00  0.00    +0.424 C 
ATOM     28  F   LIG    1        2.219  -1.207   2.398  0.00  0.00    -0.165 F 
ATOM     29  F   LIG    1        3.830  -2.708   3.004  0.00  0.00    -0.165 F 
ATOM     30  F   LIG    1        2.275  -3.275   1.430  0.00  0.00    -0.165 F 
ENDBRANCH   5  27
TORSDOF 5
