REMARK  Name = ZINC01678195
REMARK                            x       y       z     vdW  Elec       q    Type
REMARK                         _______ _______ _______ _____ _____    ______ ____
ROOT
ATOM      1  C   LIG    1       -1.318   3.326   0.032  0.00  0.00    +0.015 A 
ATOM      2  C   LIG    1       -2.517   3.990   0.036  0.00  0.00    +0.046 A 
ATOM      3  C   LIG    1       -3.711   3.276   0.038  0.00  0.00    +0.117 A 
ATOM      4  C   LIG    1       -3.695   1.886   0.030  0.00  0.00    +0.046 A 
ATOM      5  C   LIG    1       -2.501   1.212   0.021  0.00  0.00    +0.015 A 
ATOM      6  C   LIG    1       -1.296   1.926   0.019  0.00  0.00    +0.018 A 
ENDROOT
BRANCH   3   7
ATOM      7  O   LIG    1       -4.895   3.939   0.048  0.00  0.00    -0.507 OA
ATOM      8  H   LIG    1       -5.233   4.125   0.934  0.00  0.00    +0.292 HD
ENDBRANCH   3   7
BRANCH   6   9
ATOM      9  C   LIG    1       -0.014   1.209   0.009  0.00  0.00    +0.164 C 
ATOM     10  O   LIG    1        0.002  -0.004   0.002  0.00  0.00    -0.292 OA
BRANCH   9  11
ATOM     11  C   LIG    1        1.280   1.980   0.001  0.00  0.00    +0.095 C 
BRANCH  11  12
ATOM     12  C   LIG    1        2.457   1.002  -0.016  0.00  0.00    +0.116 C 
ATOM     13 CL   LIG    1        4.006   1.924  -0.026  0.00  0.00    -0.125 Cl
ENDBRANCH  11  12
ENDBRANCH   9  11
ENDBRANCH   6   9
TORSDOF 4
