REMARK  Name = ZINC02010406
REMARK                            x       y       z     vdW  Elec       q    Type
REMARK                         _______ _______ _______ _____ _____    ______ ____
ROOT
ATOM      1  N   LIG    1       -1.748   4.605   2.313  0.00  0.00    +0.386 N 
ATOM      2  H   LIG    1       -2.315   3.900   2.798  0.00  0.00    -0.085 HD
ATOM      3  H   LIG    1       -0.935   4.847   2.890  0.00  0.00    -0.085 HD
ENDROOT
BRANCH   1   4
ATOM      4  C   LIG    1       -1.284   4.053   1.026  0.00  0.00    -0.007 C 
BRANCH   4   9
ATOM      5  C   LIG    1       -0.921   1.561   1.356  0.00  0.00    +0.043 A 
ATOM      6  C   LIG    1        0.190   0.728   1.619  0.00  0.00    +0.043 A 
ATOM      7  C   LIG    1        1.270   1.528   1.684  0.00  0.00    +0.089 A 
ATOM      8  O   LIG    1        0.872   2.795   1.482  0.00  0.00    -0.468 OA
ATOM      9  C   LIG    1       -0.456   2.821   1.286  0.00  0.00    +0.088 A 
BRANCH   7  10
ATOM     10  C   LIG    1        2.685   1.079   1.942  0.00  0.00    -0.003 C 
BRANCH  10  11
ATOM     11  N   LIG    1        3.339   0.801   0.647  0.00  0.00    +0.384 N 
ATOM     12  H   LIG    1        3.218   1.613   0.031  0.00  0.00    -0.081 HD
ATOM     13  C   LIG    1        4.784   0.565   0.851  0.00  0.00    -0.078 C 
ATOM     14  C   LIG    1        5.458   0.398  -0.513  0.00  0.00    -0.019 C 
ATOM     15  C   LIG    1        4.838  -0.799  -1.239  0.00  0.00    -0.004 C 
ATOM     16  C   LIG    1        3.329  -0.576  -1.379  0.00  0.00    -0.019 C 
ATOM     17  C   LIG    1        2.717  -0.380   0.010  0.00  0.00    -0.078 C 
ENDBRANCH  10  11
ENDBRANCH   7  10
ENDBRANCH   4   9
ENDBRANCH   1   4
BRANCH   1  18
ATOM     18  C   LIG    1       -2.562   5.814   2.088  0.00  0.00    -0.038 C 
BRANCH  18  19
ATOM     19  C   LIG    1       -3.029   6.362   3.438  0.00  0.00    +0.207 C 
BRANCH  19  20
ATOM     20  N   LIG    1       -3.839   7.564   3.224  0.00  0.00    -0.222 N 
ATOM     21  C   LIG    1       -3.346   8.947   3.289  0.00  0.00    +0.269 C 
ATOM     22  C   LIG    1       -4.587   9.808   2.988  0.00  0.00    +0.266 C 
ATOM     23  N   LIG    1       -5.667   8.831   2.789  0.00  0.00    -0.233 N 
ATOM     24  H   LIG    1       -6.590   9.047   2.584  0.00  0.00    +0.291 HD
ATOM     25  C   LIG    1       -5.166   7.578   2.939  0.00  0.00    +0.286 C 
ATOM     26  C   LIG    1       -5.938   6.422   2.813  0.00  0.00    +0.212 C 
BRANCH  26  27
ATOM     27  C   LIG    1       -5.311   5.135   2.851  0.00  0.00    +0.118 C 
ATOM     28  N   LIG    1       -4.814   4.114   2.880  0.00  0.00    -0.190 NA
ENDBRANCH  26  27
BRANCH  26  29
ATOM     29  C   LIG    1       -7.357   6.522   2.647  0.00  0.00    +0.118 C 
ATOM     30  N   LIG    1       -8.482   6.602   2.515  0.00  0.00    -0.190 NA
ENDBRANCH  26  29
ENDBRANCH  19  20
ENDBRANCH  18  19
ENDBRANCH   1  18
TORSDOF 9
