REMARK  Name = ZINC02273348
REMARK                            x       y       z     vdW  Elec       q    Type
REMARK                         _______ _______ _______ _____ _____    ______ ____
ROOT
ATOM      1  C   LIG    1        4.376   5.556   0.527  0.00  0.00    +0.115 C 
ATOM      2  C   LIG    1        4.158   4.869  -0.821  0.00  0.00    +0.050 C 
ATOM      3  C   LIG    1        5.490   4.276  -1.297  0.00  0.00    +0.081 C 
ATOM      4  C   LIG    1        5.311   3.643  -2.679  0.00  0.00    +0.028 C 
ATOM      5  N   LIG    1        5.898   3.250  -0.328  0.00  0.00    -0.264 N 
ATOM      6  C   LIG    1        6.364   2.058  -0.749  0.00  0.00    +0.251 C 
ATOM      7  O   LIG    1        6.713   1.915  -1.905  0.00  0.00    -0.270 OA
ATOM      8  C   LIG    1        5.794   3.532   1.040  0.00  0.00    +0.042 A 
ATOM      9  C   LIG    1        6.425   2.695   1.953  0.00  0.00    +0.024 A 
ATOM     10  C   LIG    1        6.328   2.950   3.307  0.00  0.00    +0.002 A 
ATOM     11  C   LIG    1        5.603   4.040   3.752  0.00  0.00    +0.000 A 
ATOM     12  C   LIG    1        4.976   4.874   2.846  0.00  0.00    +0.007 A 
ATOM     13  C   LIG    1        5.069   4.625   1.487  0.00  0.00    -0.005 A 
ENDROOT
BRANCH   6  14
ATOM     14  C   LIG    1        6.452   0.923   0.195  0.00  0.00    +0.037 A 
ATOM     15  C   LIG    1        5.502   0.779   1.208  0.00  0.00    +0.013 A 
ATOM     16  C   LIG    1        5.586  -0.285   2.082  0.00  0.00    +0.001 A 
ATOM     17  C   LIG    1        6.616  -1.201   1.963  0.00  0.00    +0.000 A 
ATOM     18  C   LIG    1        7.565  -1.061   0.966  0.00  0.00    +0.001 A 
ATOM     19  C   LIG    1        7.489  -0.004   0.082  0.00  0.00    +0.013 A 
ENDBRANCH   6  14
BRANCH   1  21
ATOM     20  C   LIG    1        2.176   5.007   1.418  0.00  0.00    +0.220 C 
ATOM     21  N   LIG    1        3.080   5.949   1.085  0.00  0.00    -0.264 N 
ATOM     22  O   LIG    1        2.469   3.833   1.347  0.00  0.00    -0.275 OA
BRANCH  21  23
ATOM     23  C   LIG    1        2.782   7.303   1.273  0.00  0.00    +0.037 A 
ATOM     24  C   LIG    1        2.491   7.782   2.544  0.00  0.00    +0.023 A 
ATOM     25  C   LIG    1        2.201   9.120   2.727  0.00  0.00    +0.002 A 
ATOM     26  C   LIG    1        2.190   9.981   1.645  0.00  0.00    +0.000 A 
ATOM     27  C   LIG    1        2.475   9.507   0.378  0.00  0.00    +0.002 A 
ATOM     28  C   LIG    1        2.770   8.171   0.189  0.00  0.00    +0.023 A 
ENDBRANCH  21  23
BRANCH  20  29
ATOM     29  C   LIG    1        0.799   5.413   1.877  0.00  0.00    +0.096 C 
BRANCH  29  30
ATOM     30  C   LIG    1       -0.070   4.166   2.050  0.00  0.00    +0.009 C 
BRANCH  30  32
ATOM     31  C   LIG    1       -2.336   3.331   2.689  0.00  0.00    +0.004 C 
ATOM     32  C   LIG    1       -1.467   4.578   2.517  0.00  0.00    -0.003 C 
ENDBRANCH  30  32
ENDBRANCH  29  30
ENDBRANCH  20  29
ENDBRANCH   1  21
TORSDOF 6
