REMARK  Name = ZINC01702014
REMARK                            x       y       z     vdW  Elec       q    Type
REMARK                         _______ _______ _______ _____ _____    ______ ____
ROOT
ATOM      1  N   LIG    1       -1.090  -2.065   0.107  0.00  0.00    -0.247 N 
ENDROOT
BRANCH   1   2
ATOM      2  N   LIG    1       -1.082  -0.698  -0.197  0.00  0.00    -0.191 NA
ATOM      3  C   LIG    1       -2.202  -0.063  -0.360  0.00  0.00    +0.138 C 
BRANCH   3   4
ATOM      4  C   LIG    1       -2.198   1.397  -0.568  0.00  0.00    -0.005 A 
ATOM      5  C   LIG    1       -0.991   2.100  -0.585  0.00  0.00    +0.009 A 
ATOM      6  C   LIG    1       -0.994   3.465  -0.785  0.00  0.00    +0.001 A 
ATOM      7  C   LIG    1       -2.190   4.139  -0.958  0.00  0.00    +0.000 A 
ATOM      8  C   LIG    1       -3.390   3.450  -0.937  0.00  0.00    +0.001 A 
ATOM      9  C   LIG    1       -3.401   2.084  -0.744  0.00  0.00    +0.009 A 
ENDBRANCH   3   4
ENDBRANCH   1   2
BRANCH   1  10
ATOM     10  C   LIG    1       -2.357  -2.800   0.146  0.00  0.00    +0.161 C 
BRANCH  10  14
ATOM     11  C   LIG    1       -3.147  -4.484  -3.700  0.00  0.00    +0.000 A 
ATOM     12  C   LIG    1       -2.433  -5.206  -2.762  0.00  0.00    +0.000 A 
ATOM     13  C   LIG    1       -2.177  -4.661  -1.518  0.00  0.00    +0.005 A 
ATOM     14  C   LIG    1       -2.636  -3.394  -1.211  0.00  0.00    -0.029 A 
ATOM     15  C   LIG    1       -3.354  -2.673  -2.147  0.00  0.00    +0.005 A 
ATOM     16  C   LIG    1       -3.605  -3.216  -3.393  0.00  0.00    +0.000 A 
ENDBRANCH  10  14
ENDBRANCH   1  10
BRANCH   1  17
ATOM     17  C   LIG    1        0.168  -2.761   0.387  0.00  0.00    +0.161 C 
BRANCH  17  18
ATOM     18  C   LIG    1        0.443  -2.727   1.868  0.00  0.00    -0.029 A 
ATOM     19  C   LIG    1        1.173  -1.686   2.411  0.00  0.00    +0.005 A 
ATOM     20  C   LIG    1        1.421  -1.651   3.771  0.00  0.00    +0.000 A 
ATOM     21  C   LIG    1        0.948  -2.663   4.585  0.00  0.00    +0.000 A 
ATOM     22  C   LIG    1        0.223  -3.707   4.041  0.00  0.00    +0.000 A 
ATOM     23  C   LIG    1       -0.029  -3.739   2.682  0.00  0.00    +0.005 A 
ENDBRANCH  17  18
ENDBRANCH   1  17
TORSDOF 6
