REMARK  Name = ZINC01726038
REMARK                            x       y       z     vdW  Elec       q    Type
REMARK                         _______ _______ _______ _____ _____    ______ ____
ROOT
ATOM      1  S   LIG    1        2.534   0.845   0.061  0.00  0.00    +0.027 S 
ATOM      2  O   LIG    1        2.377  -0.567   0.033  0.00  0.00    -0.164 OA
ATOM      3  O   LIG    1        3.235   1.513   1.101  0.00  0.00    -0.164 OA
ENDROOT
BRANCH   1   7
ATOM      4  C   LIG    1       -1.644   2.615  -0.035  0.00  0.00    +0.034 A 
ATOM      5  C   LIG    1       -1.464   1.237  -0.034  0.00  0.00    +0.025 A 
ATOM      6  C   LIG    1       -0.189   0.702   0.001  0.00  0.00    +0.030 A 
ATOM      7  C   LIG    1        0.912   1.533   0.024  0.00  0.00    +0.108 A 
ATOM      8  C   LIG    1        0.742   2.919   0.017  0.00  0.00    +0.086 A 
ATOM      9  C   LIG    1       -0.544   3.459  -0.013  0.00  0.00    +0.040 A 
BRANCH   4  12
ATOM     10  C   LIG    1       -4.589   4.807  -0.871  0.00  0.00    +0.109 C 
ATOM     11  C   LIG    1       -3.180   4.286  -0.752  0.00  0.00    +0.214 C 
ATOM     12  N   LIG    1       -2.937   3.152  -0.065  0.00  0.00    -0.286 N 
ATOM     13  H   LIG    1       -3.657   2.707   0.408  0.00  0.00    +0.155 HD
ATOM     14  O   LIG    1       -2.265   4.887  -1.274  0.00  0.00    -0.276 OA
ENDBRANCH   4  12
BRANCH   8  15
ATOM     15  C   LIG    1        1.920   3.811   0.042  0.00  0.00    +0.341 C 
ATOM     16  O   LIG    1        3.038   3.339   0.069  0.00  0.00    -0.245 OA
BRANCH  15  17
ATOM     17  O   LIG    1        1.752   5.147   0.036  0.00  0.00    -0.464 OA
ATOM     18  C   LIG    1        2.954   5.962   0.061  0.00  0.00    +0.280 C 
ENDBRANCH  15  17
ENDBRANCH   8  15
ENDBRANCH   1   7
BRANCH   1  19
ATOM     19  C   LIG    1        3.325   1.294  -1.448  0.00  0.00    +0.108 A 
ATOM     20  C   LIG    1        4.425   2.128  -1.430  0.00  0.00    +0.030 A 
ATOM     21  C   LIG    1        5.049   2.482  -2.611  0.00  0.00    +0.025 A 
ATOM     22  C   LIG    1        4.574   2.002  -3.825  0.00  0.00    +0.034 A 
ATOM     23  C   LIG    1        3.470   1.164  -3.855  0.00  0.00    +0.040 A 
ATOM     24  C   LIG    1        2.843   0.801  -2.662  0.00  0.00    +0.086 A 
BRANCH  22  25
ATOM     25  N   LIG    1        5.210   2.363  -5.018  0.00  0.00    -0.286 N 
ATOM     26  H   LIG    1        6.170   2.505  -5.033  0.00  0.00    +0.155 HD
ATOM     27  C   LIG    1        4.489   2.516  -6.147  0.00  0.00    +0.214 C 
ATOM     28  C   LIG    1        5.186   2.792  -7.454  0.00  0.00    +0.109 C 
ATOM     29  O   LIG    1        3.280   2.430  -6.111  0.00  0.00    -0.276 OA
ENDBRANCH  22  25
BRANCH  24  30
ATOM     30  C   LIG    1        1.670  -0.097  -2.685  0.00  0.00    +0.341 C 
ATOM     31  O   LIG    1        1.124  -0.408  -1.646  0.00  0.00    -0.245 OA
BRANCH  30  32
ATOM     32  O   LIG    1        1.207  -0.571  -3.858  0.00  0.00    -0.464 OA
ATOM     33  C   LIG    1        0.051  -1.448  -3.804  0.00  0.00    +0.280 C 
ENDBRANCH  30  32
ENDBRANCH  24  30
ENDBRANCH   1  19
TORSDOF 8
