REMARK  Name = ZINC01752601
REMARK                            x       y       z     vdW  Elec       q    Type
REMARK                         _______ _______ _______ _____ _____    ______ ____
ROOT
ATOM      1  N   LIG    1       -1.185  -0.721  -0.151  0.00  0.00    -0.269 N 
ATOM      2  H   LIG    1       -2.009  -0.252   0.056  0.00  0.00    +0.156 HD
ATOM      3  C   LIG    1       -1.183  -2.064  -0.264  0.00  0.00    +0.308 C 
ATOM      4  N   LIG    1       -2.343  -2.747  -0.193  0.00  0.00    -0.269 N 
ATOM      5  H   LIG    1       -3.185  -2.269  -0.136  0.00  0.00    +0.156 HD
ATOM      6  O   LIG    1       -0.136  -2.659  -0.429  0.00  0.00    -0.252 OA
ENDROOT
BRANCH   1  13
ATOM      7  C   LIG    1        0.958  -0.453  -1.235  0.00  0.00    +0.026 A 
ATOM      8  C   LIG    1        2.128   0.258  -1.413  0.00  0.00    +0.040 A 
ATOM      9  C   LIG    1        2.351   1.420  -0.692  0.00  0.00    +0.124 A 
ATOM     10  F   LIG    1        3.497   2.114  -0.868  0.00  0.00    -0.205 F 
ATOM     11  C   LIG    1        1.400   1.871   0.208  0.00  0.00    +0.040 A 
ATOM     12  C   LIG    1        0.229   1.162   0.390  0.00  0.00    +0.026 A 
ATOM     13  C   LIG    1        0.003  -0.002  -0.333  0.00  0.00    +0.035 A 
ENDBRANCH   1  13
BRANCH   4  14
ATOM     14  C   LIG    1       -2.332  -4.147  -0.201  0.00  0.00    +0.035 A 
ATOM     15  C   LIG    1       -3.371  -4.847  -0.800  0.00  0.00    +0.025 A 
ATOM     16  C   LIG    1       -3.357  -6.228  -0.806  0.00  0.00    +0.030 A 
ATOM     17  C   LIG    1       -2.311  -6.913  -0.216  0.00  0.00    +0.105 A 
ATOM     18  C   LIG    1       -1.275  -6.219   0.381  0.00  0.00    +0.030 A 
ATOM     19  C   LIG    1       -1.280  -4.838   0.386  0.00  0.00    +0.025 A 
BRANCH  17  20
ATOM     20  S   LIG    1       -2.297  -8.675  -0.226  0.00  0.00    +0.056 S 
ATOM     21  O   LIG    1       -3.649  -9.091  -0.366  0.00  0.00    -0.153 OA
ATOM     22  O   LIG    1       -1.485  -9.081   0.867  0.00  0.00    -0.153 OA
BRANCH  20  23
ATOM     23  N   LIG    1       -1.510  -9.152  -1.603  0.00  0.00    -0.204 NA
ATOM     24  H   LIG    1       -1.396 -10.096  -1.794  0.00  0.00    +0.144 HD
ATOM     25  H   LIG    1       -1.163  -8.487  -2.217  0.00  0.00    +0.144 HD
ENDBRANCH  20  23
ENDBRANCH  17  20
ENDBRANCH   4  14
TORSDOF 4
