REMARK  Name = ZINC02173005
REMARK                            x       y       z     vdW  Elec       q    Type
REMARK                         _______ _______ _______ _____ _____    ______ ____
ROOT
ATOM      1  C   LIG    1       -3.732   3.632   0.059  0.00  0.00    +0.230 C 
ENDROOT
BRANCH   1  11
ATOM      2  C   LIG    1        1.182   1.777   0.000  0.00  0.00    +0.001 A 
ATOM      3  C   LIG    1       -0.013   1.076   0.008  0.00  0.00    +0.002 A 
ATOM      4  C   LIG    1       -1.223   1.743   0.017  0.00  0.00    +0.024 A 
ATOM      5  C   LIG    1       -1.255   3.132   0.031  0.00  0.00    +0.049 A 
ATOM      6  C   LIG    1       -0.043   3.841   0.023  0.00  0.00    +0.048 A 
ATOM      7  C   LIG    1       -0.393   5.273   0.034  0.00  0.00    +0.250 C 
ATOM      8  C   LIG    1       -1.892   5.302   0.049  0.00  0.00    +0.293 C 
ATOM      9  O   LIG    1       -2.590   6.294   0.061  0.00  0.00    -0.266 OA
ATOM     10  O   LIG    1        0.366   6.221   0.032  0.00  0.00    -0.282 OA
ATOM     11  N   LIG    1       -2.321   4.028   0.046  0.00  0.00    -0.247 N 
ATOM     12  C   LIG    1        1.173   3.157   0.007  0.00  0.00    +0.014 A 
ENDBRANCH   1  11
BRANCH   1  13
ATOM     13  N   LIG    1       -4.188   3.494   1.444  0.00  0.00    -0.247 N 
ATOM     14  C   LIG    1       -4.743   4.528   2.194  0.00  0.00    +0.049 A 
ATOM     15  C   LIG    1       -4.999   5.856   1.879  0.00  0.00    +0.024 A 
ATOM     16  C   LIG    1       -5.567   6.696   2.818  0.00  0.00    +0.002 A 
ATOM     17  C   LIG    1       -5.889   6.229   4.082  0.00  0.00    +0.001 A 
ATOM     18  C   LIG    1       -5.644   4.913   4.416  0.00  0.00    +0.014 A 
ATOM     19  C   LIG    1       -5.070   4.057   3.476  0.00  0.00    +0.048 A 
ATOM     20  C   LIG    1       -4.688   2.633   3.513  0.00  0.00    +0.250 C 
ATOM     21  O   LIG    1       -4.804   1.858   4.439  0.00  0.00    -0.282 OA
ATOM     22  C   LIG    1       -4.129   2.351   2.149  0.00  0.00    +0.293 C 
ATOM     23  O   LIG    1       -3.700   1.287   1.756  0.00  0.00    -0.266 OA
ENDBRANCH   1  13
TORSDOF 2
