REMARK  Name = ZINC02240009
REMARK                            x       y       z     vdW  Elec       q    Type
REMARK                         _______ _______ _______ _____ _____    ______ ____
ROOT
ATOM      1  C   LIG    1       -2.529   1.460   0.022  0.00  0.00    +0.066 C 
ATOM      2  C   LIG    1       -1.248   1.933   0.018  0.00  0.00    +0.080 C 
ATOM      3  C   LIG    1       -0.014   1.214   0.009  0.00  0.00    +0.258 C 
ATOM      4  N   LIG    1        1.109   1.910   0.002  0.00  0.00    -0.255 N 
ATOM      5  C   LIG    1        1.090   3.261   0.008  0.00  0.00    +0.121 C 
ATOM      6  S   LIG    1        2.409   4.353   0.002  0.00  0.00    -0.027 S 
ATOM      7  O   LIG    1        0.002  -0.004   0.002  0.00  0.00    -0.269 OA
ATOM      8  S   LIG    1       -0.659   3.620   0.027  0.00  0.00    -0.061 S 
ENDROOT
BRANCH   1  12
ATOM      9  C   LIG    1       -4.764   4.236   0.047  0.00  0.00    +0.136 A 
ATOM     10  C   LIG    1       -5.676   3.218   0.046  0.00  0.00    +0.050 A 
ATOM     11  C   LIG    1       -4.955   2.021   0.037  0.00  0.00    +0.050 A 
ATOM     12  C   LIG    1       -3.615   2.362   0.032  0.00  0.00    +0.130 A 
ATOM     13  O   LIG    1       -3.526   3.709   0.044  0.00  0.00    -0.455 OA
BRANCH   9  20
ATOM     14  C   LIG    1       -6.417   6.099   0.059  0.00  0.00    +0.013 A 
ATOM     15  C   LIG    1       -6.709   7.446   0.072  0.00  0.00    +0.021 A 
ATOM     16  C   LIG    1       -5.686   8.380   0.071  0.00  0.00    +0.041 A 
ATOM     17 CL   LIG    1       -6.064  10.075   0.081  0.00  0.00    -0.084 Cl
ATOM     18  C   LIG    1       -4.364   7.968   0.064  0.00  0.00    +0.021 A 
ATOM     19  C   LIG    1       -4.058   6.624   0.056  0.00  0.00    +0.013 A 
ATOM     20  C   LIG    1       -5.085   5.676   0.056  0.00  0.00    +0.017 A 
ENDBRANCH   9  20
ENDBRANCH   1  12
BRANCH   4  21
ATOM     21  C   LIG    1        2.394   1.206  -0.014  0.00  0.00    +0.126 C 
BRANCH  21  22
ATOM     22  C   LIG    1        2.828   0.968  -1.462  0.00  0.00    +0.140 C 
BRANCH  22  23
ATOM     23  C   LIG    1        4.149   0.244  -1.478  0.00  0.00    +0.306 C 
ATOM     24  O   LIG    1        4.689  -0.051  -0.438  0.00  0.00    -0.251 OA
BRANCH  23  25
ATOM     25  O   LIG    1        4.727  -0.072  -2.647  0.00  0.00    -0.481 OA
ATOM     26  H   LIG    1        4.309   0.157  -3.454  0.00  0.00    +0.295 HD
ENDBRANCH  23  25
ENDBRANCH  22  23
ENDBRANCH  21  22
ENDBRANCH   4  21
TORSDOF 6
