REMARK  Name = ZINC02017838
REMARK                            x       y       z     vdW  Elec       q    Type
REMARK                         _______ _______ _______ _____ _____    ______ ____
ROOT
ATOM      1  C   LIG    1       -0.694   1.159  -0.045  0.00  0.00    -0.096 C 
ATOM      2  N   LIG    1       -0.397  -0.279  -0.005  0.00  0.00    +0.379 N 
ATOM      3  H   LIG    1        0.131  -0.514  -0.833  0.00  0.00    -0.082 HD
ATOM      4  C   LIG    1       -1.654  -1.004  -0.050  0.00  0.00    -0.074 C 
ATOM      5  C   LIG    1       -1.420  -2.495  -0.313  0.00  0.00    +0.017 C 
ATOM      6  C   LIG    1       -1.151  -3.174   1.015  0.00  0.00    -0.044 A 
ATOM      7  C   LIG    1       -2.082  -4.051   1.540  0.00  0.00    +0.027 A 
ATOM      8  C   LIG    1       -1.833  -4.668   2.753  0.00  0.00    +0.083 A 
ATOM      9 CL   LIG    1       -2.996  -5.770   3.421  0.00  0.00    -0.080 Cl
ATOM     10  C   LIG    1       -0.653  -4.405   3.436  0.00  0.00    +0.135 A 
ATOM     11  C   LIG    1        0.276  -3.524   2.902  0.00  0.00    +0.051 A 
ATOM     12  C   LIG    1        0.018  -2.913   1.689  0.00  0.00    -0.035 A 
ATOM     13  C   LIG    1        1.029  -1.952   1.099  0.00  0.00    +0.033 C 
ATOM     14  C   LIG    1        0.436  -0.540   1.155  0.00  0.00    -0.066 C 
ENDROOT
BRANCH  13  15
ATOM     15  C   LIG    1        1.316  -2.329  -0.331  0.00  0.00    -0.042 A 
ATOM     16  C   LIG    1        1.800  -1.380  -1.212  0.00  0.00    +0.004 A 
ATOM     17  C   LIG    1        2.063  -1.726  -2.525  0.00  0.00    +0.000 A 
ATOM     18  C   LIG    1        1.842  -3.021  -2.956  0.00  0.00    +0.000 A 
ATOM     19  C   LIG    1        1.358  -3.970  -2.074  0.00  0.00    +0.000 A 
ATOM     20  C   LIG    1        1.100  -3.625  -0.761  0.00  0.00    +0.004 A 
ENDBRANCH  13  15
BRANCH  10  21
ATOM     21  O   LIG    1       -0.408  -5.011   4.628  0.00  0.00    -0.505 OA
ATOM     22  H   LIG    1        0.055  -5.856   4.552  0.00  0.00    +0.292 HD
ENDBRANCH  10  21
TORSDOF 2
