REMARK  Name = ZINC01678641
REMARK                            x       y       z     vdW  Elec       q    Type
REMARK                         _______ _______ _______ _____ _____    ______ ____
ROOT
ATOM      1  C   LIG    1       -0.009  -0.013   0.045  0.00  0.00    +0.166 A 
ATOM      2  C   LIG    1       -0.029   1.361   0.101  0.00  0.00    +0.058 A 
ATOM      3  C   LIG    1        1.176   2.081   0.053  0.00  0.00    -0.011 A 
ATOM      4  C   LIG    1        1.180   3.487   0.109  0.00  0.00    +0.009 A 
ATOM      5  C   LIG    1        2.356   4.165   0.062  0.00  0.00    +0.009 A 
ATOM      6  C   LIG    1        3.578   3.482  -0.044  0.00  0.00    -0.017 A 
ATOM      7  C   LIG    1        3.608   2.100  -0.101  0.00  0.00    +0.020 A 
ATOM      8  C   LIG    1        2.405   1.381  -0.053  0.00  0.00    +0.028 A 
ATOM      9  C   LIG    1        2.400  -0.028  -0.109  0.00  0.00    +0.173 A 
ATOM     10  C   LIG    1        1.202  -0.708  -0.060  0.00  0.00    +0.204 A 
ENDROOT
BRANCH   6  11
ATOM     11  C   LIG    1        4.847   4.247  -0.095  0.00  0.00    -0.011 A 
ATOM     12  C   LIG    1        6.064   3.575  -0.193  0.00  0.00    +0.058 A 
ATOM     13  C   LIG    1        7.247   4.292  -0.245  0.00  0.00    +0.166 A 
ATOM     14  C   LIG    1        7.223   5.681  -0.189  0.00  0.00    +0.204 A 
ATOM     15  C   LIG    1        6.010   6.353  -0.085  0.00  0.00    +0.166 A 
ATOM     16  C   LIG    1        4.824   5.640  -0.037  0.00  0.00    +0.058 A 
BRANCH  13  17
ATOM     17  O   LIG    1        8.435   3.636  -0.347  0.00  0.00    -0.491 OA
ATOM     18  C   LIG    1        8.386   2.209  -0.401  0.00  0.00    +0.277 C 
ENDBRANCH  13  17
BRANCH  14  19
ATOM     19  O   LIG    1        8.387   6.384  -0.234  0.00  0.00    -0.488 OA
ATOM     20  C   LIG    1        9.023   6.668   1.014  0.00  0.00    +0.277 C 
ENDBRANCH  14  19
BRANCH  15  21
ATOM     21  O   LIG    1        5.988   7.712  -0.029  0.00  0.00    -0.491 OA
ATOM     22  C   LIG    1        4.707   8.336   0.078  0.00  0.00    +0.277 C 
ENDBRANCH  15  21
ENDBRANCH   6  11
BRANCH   1  24
ATOM     23  C   LIG    1       -2.381   0.061   0.198  0.00  0.00    +0.277 C 
ATOM     24  O   LIG    1       -1.179  -0.704   0.091  0.00  0.00    -0.491 OA
ENDBRANCH   1  24
BRANCH   9  25
ATOM     25  O   LIG    1        3.570  -0.712  -0.212  0.00  0.00    -0.491 OA
ATOM     26  C   LIG    1        4.178  -1.143   1.007  0.00  0.00    +0.277 C 
ENDBRANCH   9  25
BRANCH  10  27
ATOM     27  O   LIG    1        1.196  -2.068  -0.114  0.00  0.00    -0.488 OA
ATOM     28  C   LIG    1        1.093  -2.666  -1.408  0.00  0.00    +0.277 C 
ENDBRANCH  10  27
TORSDOF 7
