REMARK  Name = ZINC02034208
REMARK                            x       y       z     vdW  Elec       q    Type
REMARK                         _______ _______ _______ _____ _____    ______ ____
ROOT
ATOM      1  C   LIG    1       -1.309   3.381   0.036  0.00  0.00    -0.040 A 
ATOM      2  C   LIG    1       -0.143   4.124   0.031  0.00  0.00    +0.049 A 
ATOM      3  C   LIG    1        1.085   3.484   0.014  0.00  0.00    +0.124 A 
ATOM      4  C   LIG    1        1.151   2.095   0.002  0.00  0.00    +0.043 A 
ATOM      5  C   LIG    1       -0.016   1.354   0.009  0.00  0.00    +0.129 A 
ATOM      6  O   LIG    1        0.002  -0.004   0.002  0.00  0.00    -0.486 OA
ATOM      7  C   LIG    1        1.200  -0.647  -0.436  0.00  0.00    +0.109 C 
ATOM      8  C   LIG    1        1.385  -0.420  -1.938  0.00  0.00    +0.055 C 
ATOM      9  C   LIG    1        1.113  -2.147  -0.147  0.00  0.00    +0.055 C 
ATOM     10  C   LIG    1        2.386  -0.046   0.324  0.00  0.00    +0.044 C 
ATOM     11  C   LIG    1        2.156  -0.202   1.830  0.00  0.00    +0.012 C 
ATOM     12  C   LIG    1        3.403   0.283   2.571  0.00  0.00    +0.030 C 
ATOM     13  C   LIG    1        3.816   1.634   2.065  0.00  0.00    -0.076 C 
ATOM     14  C   LIG    1        4.738   2.461   2.923  0.00  0.00    +0.039 C 
ATOM     15  C   LIG    1        3.427   2.131   0.935  0.00  0.00    -0.019 C 
ATOM     16  C   LIG    1        2.505   1.435  -0.021  0.00  0.00    +0.056 C 
ATOM     17  C   LIG    1       -1.248   2.003   0.031  0.00  0.00    +0.049 A 
ENDROOT
BRANCH   3  18
ATOM     18  O   LIG    1        2.231   4.216   0.010  0.00  0.00    -0.506 OA
ATOM     19  H   LIG    1        2.554   4.435  -0.875  0.00  0.00    +0.292 HD
ENDBRANCH   3  18
BRANCH   1  20
ATOM     20  C   LIG    1       -2.646   4.077   0.054  0.00  0.00    +0.035 C 
BRANCH  20  21
ATOM     21  C   LIG    1       -3.111   4.322  -1.383  0.00  0.00    +0.005 C 
BRANCH  21  22
ATOM     22  C   LIG    1       -4.469   5.028  -1.365  0.00  0.00    +0.000 C 
BRANCH  22  24
ATOM     23  C   LIG    1       -6.292   5.980  -2.784  0.00  0.00    +0.004 C 
ATOM     24  C   LIG    1       -4.934   5.274  -2.802  0.00  0.00    -0.003 C 
ENDBRANCH  22  24
ENDBRANCH  21  22
ENDBRANCH  20  21
ENDBRANCH   1  20
TORSDOF 5
