REMARK  Name = ZINC02172613
REMARK                            x       y       z     vdW  Elec       q    Type
REMARK                         _______ _______ _______ _____ _____    ______ ____
ROOT
ATOM      1  C   LIG    1        1.025  -3.268   1.579  0.00  0.00    +0.227 C 
ATOM      2  N   LIG    1        0.835  -4.556   1.232  0.00  0.00    -0.314 N 
ATOM      3  H   LIG    1        0.345  -4.773   0.423  0.00  0.00    +0.149 HD
ATOM      4  O   LIG    1        1.638  -2.997   2.590  0.00  0.00    -0.275 OA
ENDROOT
BRANCH   1   9
ATOM      5  C   LIG    1       -0.019   1.526   0.010  0.00  0.00    +0.020 C 
ATOM      6  C   LIG    1        0.002  -0.004   0.002  0.00  0.00    +0.040 C 
ATOM      7  C   LIG    1       -1.389  -0.707   0.058  0.00  0.00    +0.016 C 
ATOM      8  C   LIG    1       -1.075  -2.146   0.531  0.00  0.00    +0.026 C 
ATOM      9  C   LIG    1        0.474  -2.165   0.713  0.00  0.00    +0.118 C 
ATOM     10  C   LIG    1        1.027  -2.072  -0.717  0.00  0.00    +0.214 C 
ATOM     11  O   LIG    1        1.589  -2.940  -1.341  0.00  0.00    -0.288 OA
ATOM     12  C   LIG    1        0.736  -0.661  -1.176  0.00  0.00    +0.206 C 
ATOM     13  O   LIG    1        1.002  -0.161  -2.243  0.00  0.00    -0.288 OA
ATOM     14  C   LIG    1        0.727  -0.697   1.210  0.00  0.00    -0.001 C 
ATOM     15  C   LIG    1        2.213  -0.339   1.274  0.00  0.00    +0.013 C 
ATOM     16  C   LIG    1        0.018  -0.427   2.539  0.00  0.00    +0.013 C 
ENDBRANCH   1   9
BRANCH   2  17
ATOM     17  C   LIG    1        1.370  -5.629   2.074  0.00  0.00    +0.109 C 
BRANCH  17  18
ATOM     18  C   LIG    1        1.018  -6.984   1.459  0.00  0.00    +0.054 C 
BRANCH  18  19
ATOM     19  C   LIG    1        1.568  -8.088   2.326  0.00  0.00    -0.042 A 
ATOM     20  C   LIG    1        2.844  -8.570   2.101  0.00  0.00    +0.007 A 
ATOM     21  C   LIG    1        3.353  -9.582   2.893  0.00  0.00    +0.049 A 
ATOM     22  C   LIG    1        2.585 -10.115   3.916  0.00  0.00    +0.161 A 
ATOM     23  C   LIG    1        1.301  -9.629   4.142  0.00  0.00    +0.162 A 
ATOM     24  C   LIG    1        0.798  -8.611   3.348  0.00  0.00    +0.053 A 
BRANCH  22  25
ATOM     25  O   LIG    1        3.084 -11.111   4.696  0.00  0.00    -0.491 OA
ATOM     26  C   LIG    1        4.409 -11.560   4.405  0.00  0.00    +0.277 C 
ENDBRANCH  22  25
BRANCH  23  27
ATOM     27  O   LIG    1        0.542 -10.148   5.145  0.00  0.00    -0.491 OA
ATOM     28  C   LIG    1       -0.766  -9.601   5.319  0.00  0.00    +0.277 C 
ENDBRANCH  23  27
ENDBRANCH  18  19
ENDBRANCH  17  18
ENDBRANCH   2  17
TORSDOF 6
