REMARK  Name = ZINC01705403
REMARK                            x       y       z     vdW  Elec       q    Type
REMARK                         _______ _______ _______ _____ _____    ______ ____
ROOT
ATOM      1  C   LIG    1        3.980   7.553   0.006  0.00  0.00    +0.003 C 
ENDROOT
BRANCH   1   2
ATOM      2  C   LIG    1        3.299   6.183   0.005  0.00  0.00    +0.041 C 
BRANCH   2   3
ATOM      3  C   LIG    1        4.364   5.085  -0.011  0.00  0.00    +0.229 C 
BRANCH   3   4
ATOM      4  O   LIG    1        3.729   3.805  -0.012  0.00  0.00    -0.492 OA
BRANCH   4   7
ATOM      5  C   LIG    1        4.803   0.332  -0.041  0.00  0.00    +0.019 A 
ATOM      6  C   LIG    1        3.985   1.441  -0.027  0.00  0.00    +0.046 A 
ATOM      7  C   LIG    1        4.538   2.715  -0.025  0.00  0.00    +0.121 A 
ATOM      8  C   LIG    1        5.918   2.877  -0.038  0.00  0.00    +0.046 A 
ATOM      9  C   LIG    1        6.742   1.772  -0.051  0.00  0.00    +0.019 A 
ATOM     10  C   LIG    1        6.190   0.491  -0.053  0.00  0.00    +0.061 A 
BRANCH  10  11
ATOM     11  C   LIG    1        7.072  -0.697  -0.067  0.00  0.00    +0.266 C 
ATOM     12  N   LIG    1        6.484  -1.884  -0.068  0.00  0.00    -0.288 N 
ATOM     13  H   LIG    1        5.459  -1.950  -0.058  0.00  0.00    +0.301 HD
ATOM     14  H   LIG    1        7.049  -2.733  -0.077  0.00  0.00    +0.301 HD
BRANCH  11  15
ATOM     15  N   LIG    1        8.441  -0.538  -0.080  0.00  0.00    -0.250 N 
ATOM     16  H   LIG    1        9.019  -1.317  -0.089  0.00  0.00    +0.288 HD
ATOM     17  H   LIG    1        8.826   0.352  -0.079  0.00  0.00    +0.288 HD
ENDBRANCH  11  15
ENDBRANCH  10  11
ENDBRANCH   4   7
ENDBRANCH   3   4
ENDBRANCH   2   3
ENDBRANCH   1   2
BRANCH   1  18
ATOM     18  C   LIG    1        2.914   8.652   0.022  0.00  0.00    +0.003 C 
BRANCH  18  19
ATOM     19  C   LIG    1        3.595  10.022   0.023  0.00  0.00    +0.041 C 
BRANCH  19  20
ATOM     20  C   LIG    1        2.530  11.120   0.039  0.00  0.00    +0.229 C 
BRANCH  20  21
ATOM     21  O   LIG    1        3.165  12.400   0.040  0.00  0.00    -0.492 OA
BRANCH  21  22
ATOM     22  C   LIG    1        2.356  13.490   0.054  0.00  0.00    +0.121 A 
ATOM     23  C   LIG    1        0.976  13.329   0.060  0.00  0.00    +0.046 A 
ATOM     24  C   LIG    1        0.152  14.433   0.079  0.00  0.00    +0.019 A 
ATOM     25  C   LIG    1        0.704  15.714   0.081  0.00  0.00    +0.061 A 
ATOM     26  C   LIG    1        2.091  15.873   0.069  0.00  0.00    +0.019 A 
ATOM     27  C   LIG    1        2.909  14.765   0.055  0.00  0.00    +0.046 A 
BRANCH  25  28
ATOM     28  C   LIG    1       -0.177  16.902   0.096  0.00  0.00    +0.266 C 
ATOM     29  N   LIG    1        0.410  18.089   0.097  0.00  0.00    -0.288 N 
ATOM     30  H   LIG    1        1.435  18.155   0.088  0.00  0.00    +0.301 HD
ATOM     31  H   LIG    1       -0.155  18.938   0.107  0.00  0.00    +0.301 HD
BRANCH  28  32
ATOM     32  N   LIG    1       -1.546  16.744   0.108  0.00  0.00    -0.250 N 
ATOM     33  H   LIG    1       -2.125  17.522   0.117  0.00  0.00    +0.288 HD
ATOM     34  H   LIG    1       -1.932  15.854   0.106  0.00  0.00    +0.288 HD
ENDBRANCH  28  32
ENDBRANCH  25  28
ENDBRANCH  21  22
ENDBRANCH  20  21
ENDBRANCH  19  20
ENDBRANCH  18  19
ENDBRANCH   1  18
TORSDOF 13
