REMARK  Name = ZINC02004213
REMARK                            x       y       z     vdW  Elec       q    Type
REMARK                         _______ _______ _______ _____ _____    ______ ____
ROOT
ATOM      1  C   LIG    1       -0.019   1.545   0.011  0.00  0.00    +0.014 C 
ATOM      2  C   LIG    1        1.471   1.943  -0.002  0.00  0.00    -0.001 C 
ATOM      3  C   LIG    1        2.239   0.755  -0.606  0.00  0.00    +0.029 C 
ATOM      4  C   LIG    1        1.189  -0.325  -0.940  0.00  0.00    +0.013 C 
ATOM      5  C   LIG    1        0.002  -0.004   0.002  0.00  0.00    +0.097 C 
ENDROOT
BRANCH   3   6
ATOM      6  N   LIG    1        2.936   1.175  -1.829  0.00  0.00    +0.389 N 
ATOM      7  H   LIG    1        2.264   1.533  -2.492  0.00  0.00    -0.088 HD
ATOM      8  H   LIG    1        3.416   0.385  -2.231  0.00  0.00    -0.088 HD
ATOM      9  H   LIG    1        3.604   1.897  -1.605  0.00  0.00    -0.088 HD
ENDBRANCH   3   6
BRANCH   3  10
ATOM     10  C   LIG    1        3.231   0.218   0.394  0.00  0.00    +0.293 C 
ATOM     11  O   LIG    1        2.845  -0.182   1.480  0.00  0.00    -0.253 OA
BRANCH  10  12
ATOM     12  O   LIG    1        4.418   0.185   0.119  0.00  0.00    -0.482 OA
ATOM     13  H   LIG    1        4.714   0.493  -0.715  0.00  0.00    +0.295 HD
ENDBRANCH  10  12
ENDBRANCH   3  10
BRANCH   5  14
ATOM     14  C   LIG    1       -1.286  -0.553  -0.556  0.00  0.00    +0.308 C 
ATOM     15  O   LIG    1       -2.175   0.208  -0.899  0.00  0.00    -0.251 OA
BRANCH  14  16
ATOM     16  O   LIG    1       -1.439  -1.757  -0.664  0.00  0.00    -0.480 OA
ATOM     17  H   LIG    1       -0.756  -2.342  -0.401  0.00  0.00    +0.295 HD
ENDBRANCH  14  16
ENDBRANCH   5  14
TORSDOF 5
