REMARK  Name = ZINC01849391
REMARK                            x       y       z     vdW  Elec       q    Type
REMARK                         _______ _______ _______ _____ _____    ______ ____
ROOT
ATOM      1  C   LIG    1        6.264   0.166  -3.170  0.00  0.00    +0.121 A 
ATOM      2  C   LIG    1        6.813   1.318  -2.622  0.00  0.00    +0.046 A 
ATOM      3  C   LIG    1        8.088   1.708  -2.968  0.00  0.00    +0.015 A 
ATOM      4  C   LIG    1        8.830   0.942  -3.872  0.00  0.00    +0.018 A 
ATOM      5  C   LIG    1        8.274  -0.216  -4.420  0.00  0.00    +0.015 A 
ATOM      6  C   LIG    1        7.000  -0.602  -4.064  0.00  0.00    +0.046 A 
ENDROOT
BRANCH   4   7
ATOM      7  C   LIG    1       10.197   1.357  -4.246  0.00  0.00    +0.144 A 
ATOM      8  N   LIG    1       11.127   0.440  -4.324  0.00  0.00    -0.229 NA
ATOM      9  C   LIG    1       12.396   0.746  -4.661  0.00  0.00    +0.079 A 
ATOM     10  C   LIG    1       13.387  -0.238  -4.743  0.00  0.00    +0.032 A 
ATOM     11  C   LIG    1       14.662   0.107  -5.087  0.00  0.00    +0.048 A 
ATOM     12  C   LIG    1       14.996   1.432  -5.360  0.00  0.00    +0.121 A 
ATOM     13  C   LIG    1       14.038   2.426  -5.285  0.00  0.00    +0.061 A 
ATOM     14  C   LIG    1       12.731   2.091  -4.936  0.00  0.00    +0.068 A 
ATOM     15  C   LIG    1       11.670   3.104  -4.842  0.00  0.00    +0.262 A 
ATOM     16  O   LIG    1       11.897   4.279  -5.067  0.00  0.00    -0.267 OA
ATOM     17  N   LIG    1       10.431   2.681  -4.500  0.00  0.00    -0.295 N 
ATOM     18  C   LIG    1        9.334   3.647  -4.397  0.00  0.00    +0.154 C 
BRANCH  12  19
ATOM     19  O   LIG    1       16.273   1.750  -5.700  0.00  0.00    -0.495 OA
ATOM     20  C   LIG    1       17.215   0.677  -5.758  0.00  0.00    +0.277 C 
ENDBRANCH  12  19
ENDBRANCH   4   7
BRANCH   1  21
ATOM     21  O   LIG    1        5.007  -0.215  -2.826  0.00  0.00    -0.489 OA
BRANCH  21  22
ATOM     22  C   LIG    1        4.307   0.620  -1.902  0.00  0.00    +0.258 C 
BRANCH  22  23
ATOM     23  C   LIG    1        2.918   0.034  -1.637  0.00  0.00    +0.135 C 
BRANCH  23  24
ATOM     24  O   LIG    1        3.050  -1.228  -0.981  0.00  0.00    -0.390 OA
ATOM     25  H   LIG    1        3.508  -1.183  -0.131  0.00  0.00    +0.210 HD
ENDBRANCH  23  24
BRANCH  23  26
ATOM     26  C   LIG    1        2.123   0.991  -0.747  0.00  0.00    -0.047 C 
BRANCH  26  27
ATOM     27  N   LIG    1        0.789   0.429  -0.493  0.00  0.00    +0.384 N 
ATOM     28  H   LIG    1        0.305   0.304  -1.369  0.00  0.00    -0.085 HD
ATOM     29  H   LIG    1        0.883  -0.462  -0.030  0.00  0.00    -0.085 HD
BRANCH  27  31
ATOM     30  C   LIG    1       -0.116   2.699  -0.340  0.00  0.00    -0.011 C 
ATOM     31  C   LIG    1        0.025   1.347   0.362  0.00  0.00    -0.077 C 
ATOM     32  C   LIG    1       -1.363   0.762   0.627  0.00  0.00    -0.011 C 
ATOM     33  C   LIG    1        0.760   1.538   1.691  0.00  0.00    -0.011 C 
ENDBRANCH  27  31
ENDBRANCH  26  27
ENDBRANCH  23  26
ENDBRANCH  22  23
ENDBRANCH  21  22
ENDBRANCH   1  21
TORSDOF 9
