REMARK  Name = ZINC01903557
REMARK                            x       y       z     vdW  Elec       q    Type
REMARK                         _______ _______ _______ _____ _____    ______ ____
ROOT
ATOM      1  C   LIG    1       -0.646  -6.086  -2.414  0.00  0.00    +0.001 A 
ATOM      2  C   LIG    1       -1.044  -6.794  -1.317  0.00  0.00    +0.008 A 
ATOM      3  C   LIG    1       -1.445  -6.118  -0.151  0.00  0.00    -0.014 A 
ATOM      4  C   LIG    1       -1.862  -6.801   1.005  0.00  0.00    +0.041 A 
ATOM      5  C   LIG    1       -2.243  -6.100   2.113  0.00  0.00    +0.123 A 
ATOM      6  C   LIG    1       -2.229  -4.710   2.136  0.00  0.00    +0.046 A 
ATOM      7  C   LIG    1       -1.824  -3.999   1.016  0.00  0.00    +0.052 A 
ATOM      8  C   LIG    1       -1.791  -2.529   0.989  0.00  0.00    +0.279 A 
ATOM      9  O   LIG    1       -2.128  -1.899   1.973  0.00  0.00    -0.265 OA
ATOM     10  N   LIG    1       -1.390  -1.878  -0.119  0.00  0.00    -0.193 N 
ATOM     11  C   LIG    1       -1.010  -2.522  -1.238  0.00  0.00    +0.279 A 
ATOM     12  O   LIG    1       -0.661  -1.886  -2.214  0.00  0.00    -0.265 OA
ATOM     13  C   LIG    1       -1.013  -3.992  -1.286  0.00  0.00    +0.050 A 
ATOM     14  C   LIG    1       -1.427  -4.708  -0.141  0.00  0.00    +0.007 A 
ATOM     15  C   LIG    1       -0.624  -4.697  -2.417  0.00  0.00    +0.014 A 
ENDROOT
BRANCH   5  16
ATOM     16  N   LIG    1       -2.679  -6.838   3.319  0.00  0.00    +0.006 N 
ATOM     17  O   LIG    1       -3.021  -6.228   4.316  0.00  0.00    -0.130 OA
BRANCH  16  18
ATOM     18  O   LIG    1       -2.696  -8.056   3.316  0.00  0.00    -0.396 OA
ATOM     19  H   LIG    1       -2.433  -8.526   2.549  0.00  0.00    +0.329 HD
ENDBRANCH  16  18
ENDBRANCH   5  16
BRANCH  10  20
ATOM     20  N   LIG    1       -1.372  -0.512  -0.108  0.00  0.00    -0.277 N 
ATOM     21  H   LIG    1       -1.831  -0.138  -0.925  0.00  0.00    +0.167 HD
BRANCH  20  22
ATOM     22  C   LIG    1        0.002  -0.004   0.002  0.00  0.00    +0.148 C 
BRANCH  22  23
ATOM     23  C   LIG    1       -0.019   1.526   0.010  0.00  0.00    +0.176 C 
BRANCH  23  24
ATOM     24  O   LIG    1       -0.688   1.987   1.186  0.00  0.00    -0.393 OA
ATOM     25  H   LIG    1       -0.738   2.950   1.258  0.00  0.00    +0.209 HD
ENDBRANCH  23  24
ENDBRANCH  22  23
ENDBRANCH  20  22
ENDBRANCH  10  20
TORSDOF 6
