REMARK  Name = ZINC02021499
REMARK                            x       y       z     vdW  Elec       q    Type
REMARK                         _______ _______ _______ _____ _____    ______ ____
ROOT
ATOM      1  C   LIG    1       -0.729   1.579   1.267  0.00  0.00    -0.079 C 
ENDROOT
BRANCH   1   2
ATOM      2  N   LIG    1        0.009   1.099   2.455  0.00  0.00    +0.382 N 
ATOM      3  H   LIG    1        0.999   1.351   2.357  0.00  0.00    -0.082 HD
ATOM      4  C   LIG    1       -0.531   1.735   3.675  0.00  0.00    -0.060 C 
ATOM      5  C   LIG    1        0.286   1.262   4.880  0.00  0.00    +0.089 C 
ATOM      6  N   LIG    1        0.200  -0.201   4.984  0.00  0.00    -0.303 N 
ATOM      7  C   LIG    1        0.712  -0.844   3.765  0.00  0.00    +0.089 C 
ATOM      8  C   LIG    1       -0.105  -0.371   2.560  0.00  0.00    -0.060 C 
BRANCH   6   9
ATOM      9  C   LIG    1        0.869  -0.660   6.105  0.00  0.00    +0.218 A 
ATOM     10  N   LIG    1        1.474   0.212   6.898  0.00  0.00    -0.223 NA
ATOM     11  C   LIG    1        2.118  -0.193   7.981  0.00  0.00    +0.116 A 
ATOM     12  C   LIG    1        2.164  -1.547   8.274  0.00  0.00    +0.039 A 
ATOM     13  C   LIG    1        1.525  -2.432   7.419  0.00  0.00    +0.116 A 
ATOM     14  N   LIG    1        0.894  -1.960   6.356  0.00  0.00    -0.223 NA
ENDBRANCH   6   9
ENDBRANCH   1   2
BRANCH   1  15
ATOM     15  C   LIG    1       -0.013   1.086   0.008  0.00  0.00    -0.017 C 
BRANCH  15  16
ATOM     16  C   LIG    1       -0.753   1.593  -1.232  0.00  0.00    +0.018 C 
BRANCH  16  17
ATOM     17  C   LIG    1       -0.037   1.099  -2.490  0.00  0.00    +0.116 C 
BRANCH  17  23
ATOM     18  C   LIG    1       -2.413   2.725  -7.448  0.00  0.00    +0.012 C 
ATOM     19  C   LIG    1       -1.603   2.170  -6.275  0.00  0.00    -0.018 C 
ATOM     20  C   LIG    1       -0.419   1.359  -6.806  0.00  0.00    +0.012 C 
ATOM     21  C   LIG    1       -1.088   3.327  -5.412  0.00  0.00    +0.103 C 
ATOM     22  C   LIG    1       -0.391   2.768  -4.200  0.00  0.00    +0.222 C 
ATOM     23  N   LIG    1       -0.745   1.585  -3.677  0.00  0.00    -0.242 N 
ATOM     24  C   LIG    1       -1.719   0.826  -4.201  0.00  0.00    +0.222 C 
ATOM     25  O   LIG    1       -1.982  -0.241  -3.689  0.00  0.00    -0.275 OA
ATOM     26  O   LIG    1        0.509   3.399  -3.688  0.00  0.00    -0.275 OA
ATOM     27  C   LIG    1       -2.497   1.276  -5.410  0.00  0.00    +0.103 C 
ENDBRANCH  17  23
ENDBRANCH  16  17
ENDBRANCH  15  16
ENDBRANCH   1  15
TORSDOF 6
