REMARK  Name = ZINC02016055
REMARK                            x       y       z     vdW  Elec       q    Type
REMARK                         _______ _______ _______ _____ _____    ______ ____
ROOT
ATOM      1  C   LIG    1        3.750   5.846   1.305  0.00  0.00    +0.029 C 
ATOM      2  C   LIG    1        2.954   5.987   0.006  0.00  0.00    +0.137 C 
ENDROOT
BRANCH   2   3
ATOM      3  C   LIG    1        2.419   7.392  -0.104  0.00  0.00    +0.227 C 
ATOM      4  N   LIG    1        3.191   8.368  -0.623  0.00  0.00    -0.304 N 
ATOM      5  H   LIG    1        4.090   8.166  -0.924  0.00  0.00    +0.149 HD
ATOM      6  O   LIG    1        1.294   7.644   0.273  0.00  0.00    -0.275 OA
BRANCH   4   7
ATOM      7  C   LIG    1        2.671   9.733  -0.730  0.00  0.00    +0.151 C 
ATOM      8  C   LIG    1        3.379  10.443  -1.884  0.00  0.00    +0.042 C 
ATOM      9  C   LIG    1        3.292  11.969  -1.658  0.00  0.00    +0.079 C 
ATOM     10  S   LIG    1        3.287  12.071   0.171  0.00  0.00    -0.086 S 
ATOM     11  C   LIG    1        2.877  10.441   0.590  0.00  0.00    +0.209 C 
ATOM     12  O   LIG    1        2.777   9.969   1.703  0.00  0.00    -0.283 OA
ENDBRANCH   4   7
ENDBRANCH   2   3
BRANCH   2  13
ATOM     13  S   LIG    1        1.574   4.816   0.013  0.00  0.00    -0.070 S 
BRANCH  13  14
ATOM     14  C   LIG    1        2.464   3.295  -0.004  0.00  0.00    +0.227 C 
ATOM     15  O   LIG    1        3.681   3.302  -0.016  0.00  0.00    -0.279 OA
BRANCH  14  16
ATOM     16  C   LIG    1        1.738   2.021  -0.004  0.00  0.00    +0.066 A 
ATOM     17  C   LIG    1        2.241   0.730  -0.015  0.00  0.00    +0.020 A 
ATOM     18  C   LIG    1        1.329  -0.296  -0.012  0.00  0.00    +0.008 A 
ATOM     19  C   LIG    1        0.002  -0.004   0.002  0.00  0.00    +0.046 A 
ATOM     20  S   LIG    1       -0.021   1.729   0.012  0.00  0.00    -0.093 S 
ENDBRANCH  14  16
ENDBRANCH  13  14
ENDBRANCH   2  13
TORSDOF 5
