REMARK  Name = ZINC02047743
REMARK                            x       y       z     vdW  Elec       q    Type
REMARK                         _______ _______ _______ _____ _____    ______ ____
ROOT
ATOM      1  C   LIG    1       -3.215   9.948   6.340  0.00  0.00    +0.154 C 
ATOM      2  N   LIG    1       -2.572  10.597   5.195  0.00  0.00    -0.295 N 
ATOM      3  C   LIG    1       -2.098   9.832   4.159  0.00  0.00    +0.148 A 
ATOM      4  C   LIG    1       -1.476  10.442   3.048  0.00  0.00    +0.037 A 
ATOM      5  C   LIG    1       -1.004   9.624   2.010  0.00  0.00    +0.126 A 
ATOM      6  N   LIG    1       -1.156   8.317   2.117  0.00  0.00    -0.222 NA
ATOM      7  C   LIG    1       -1.752   7.778   3.175  0.00  0.00    +0.221 A 
ATOM      8  C   LIG    1       -1.336  11.848   2.993  0.00  0.00    +0.027 A 
ATOM      9  C   LIG    1       -1.813  12.602   4.031  0.00  0.00    +0.050 A 
ATOM     10  N   LIG    1       -2.212   8.509   4.179  0.00  0.00    -0.196 NA
ATOM     11  C   LIG    1       -2.453  11.938   5.169  0.00  0.00    +0.260 A 
ATOM     12  O   LIG    1       -2.879  12.602   6.097  0.00  0.00    -0.267 OA
ENDROOT
BRANCH   9  13
ATOM     13  C   LIG    1       -1.681  14.078   4.004  0.00  0.00    +0.024 A 
ATOM     14  C   LIG    1       -0.552  14.691   4.549  0.00  0.00    +0.050 A 
ATOM     15 CL   LIG    1        0.704  13.726   5.260  0.00  0.00    -0.083 Cl
ATOM     16  C   LIG    1       -0.434  16.067   4.517  0.00  0.00    +0.021 A 
ATOM     17  C   LIG    1       -1.437  16.837   3.955  0.00  0.00    +0.003 A 
ATOM     18  C   LIG    1       -2.561  16.236   3.418  0.00  0.00    +0.021 A 
ATOM     19  C   LIG    1       -2.689  14.861   3.440  0.00  0.00    +0.050 A 
ATOM     20 CL   LIG    1       -4.101  14.108   2.766  0.00  0.00    -0.083 Cl
ENDBRANCH   9  13
BRANCH   7  21
ATOM     21  N   LIG    1       -1.890   6.405   3.234  0.00  0.00    -0.284 N 
ATOM     22  H   LIG    1       -2.244   5.987   4.034  0.00  0.00    +0.155 HD
BRANCH  21  23
ATOM     23  C   LIG    1       -1.520   5.618   2.139  0.00  0.00    +0.035 A 
ATOM     24  C   LIG    1       -1.683   6.103   0.847  0.00  0.00    +0.023 A 
ATOM     25  C   LIG    1       -1.318   5.326  -0.235  0.00  0.00    +0.003 A 
ATOM     26  C   LIG    1       -0.783   4.067  -0.037  0.00  0.00    +0.015 A 
ATOM     27  C   LIG    1       -0.622   3.574   1.252  0.00  0.00    +0.009 A 
ATOM     28  C   LIG    1       -0.988   4.352   2.342  0.00  0.00    +0.038 A 
BRANCH  27  29
ATOM     29  S   LIG    1        0.054   1.966   1.504  0.00  0.00    -0.129 S 
ATOM     30  C   LIG    1        0.369   1.355  -0.175  0.00  0.00    +0.090 C 
ENDBRANCH  27  29
ENDBRANCH  21  23
ENDBRANCH   7  21
TORSDOF 4
