REMARK  Name = ZINC02008845
REMARK                            x       y       z     vdW  Elec       q    Type
REMARK                         _______ _______ _______ _____ _____    ______ ____
ROOT
ATOM      1  C   LIG    1       -5.667   3.052   1.371  0.00  0.00    +0.037 A 
ATOM      2  C   LIG    1       -7.001   3.318   1.091  0.00  0.00    +0.127 A 
ATOM      3  C   LIG    1       -7.356   4.397   0.290  0.00  0.00    +0.092 A 
ATOM      4  C   LIG    1       -6.377   5.222  -0.234  0.00  0.00    +0.134 A 
ATOM      5  C   LIG    1       -5.027   4.961   0.050  0.00  0.00    +0.101 A 
ATOM      6  C   LIG    1       -3.969   5.826  -0.483  0.00  0.00    +0.174 C 
ATOM      7  O   LIG    1       -4.218   6.899  -0.993  0.00  0.00    -0.292 OA
ATOM      8  C   LIG    1       -2.546   5.310  -0.365  0.00  0.00    +0.129 C 
ATOM      9  C   LIG    1       -2.417   4.646   1.013  0.00  0.00    +0.215 C 
ATOM     10  O   LIG    1       -3.373   3.591   1.122  0.00  0.00    -0.482 OA
ATOM     11  C   LIG    1       -4.672   3.863   0.855  0.00  0.00    +0.142 A 
ENDROOT
BRANCH   9  12
ATOM     12  C   LIG    1       -1.028   4.083   1.172  0.00  0.00    +0.035 A 
ATOM     13  C   LIG    1       -0.780   2.758   0.867  0.00  0.00    +0.014 A 
ATOM     14  C   LIG    1        0.491   2.238   1.017  0.00  0.00    +0.046 A 
ATOM     15  C   LIG    1        1.525   3.049   1.463  0.00  0.00    +0.120 A 
ATOM     16  C   LIG    1        1.281   4.380   1.764  0.00  0.00    +0.091 A 
ATOM     17  C   LIG    1        0.003   4.898   1.618  0.00  0.00    +0.127 A 
BRANCH  15  18
ATOM     18  O   LIG    1        2.776   2.538   1.605  0.00  0.00    -0.507 OA
ATOM     19  H   LIG    1        3.324   2.612   0.812  0.00  0.00    +0.292 HD
ENDBRANCH  15  18
BRANCH  17  20
ATOM     20  O   LIG    1       -0.239   6.202   1.913  0.00  0.00    -0.506 OA
ATOM     21  H   LIG    1       -0.124   6.802   1.163  0.00  0.00    +0.292 HD
ENDBRANCH  17  20
ENDBRANCH   9  12
BRANCH   2  22
ATOM     22  O   LIG    1       -7.968   2.517   1.604  0.00  0.00    -0.506 OA
ATOM     23  H   LIG    1       -8.201   1.769   1.037  0.00  0.00    +0.292 HD
ENDBRANCH   2  22
BRANCH   4  24
ATOM     24  O   LIG    1       -6.718   6.275  -1.018  0.00  0.00    -0.506 OA
ATOM     25  H   LIG    1       -6.766   6.065  -1.960  0.00  0.00    +0.292 HD
ENDBRANCH   4  24
BRANCH   1  26
ATOM     26  C   LIG    1       -5.302   1.875   2.239  0.00  0.00    +0.050 C 
BRANCH  26  27
ATOM     27  C   LIG    1       -5.112   2.347   3.683  0.00  0.00    +0.022 C 
BRANCH  27  28
ATOM     28  C   LIG    1       -6.429   2.838   4.228  0.00  0.00    -0.076 C 
ATOM     29  C   LIG    1       -7.581   1.880   4.391  0.00  0.00    +0.039 C 
ATOM     30  C   LIG    1       -6.571   4.097   4.560  0.00  0.00    +0.007 C 
ENDBRANCH  27  28
BRANCH  27  31
ATOM     31  C   LIG    1       -4.609   1.182   4.537  0.00  0.00    +0.035 C 
BRANCH  31  35
ATOM     32  C   LIG    1       -5.813  -0.055   6.763  0.00  0.00    +0.038 C 
ATOM     33  C   LIG    1       -4.865   1.099   6.964  0.00  0.00    -0.080 C 
ATOM     34  C   LIG    1       -4.561   1.592   8.355  0.00  0.00    +0.038 C 
ATOM     35  C   LIG    1       -4.305   1.674   5.929  0.00  0.00    -0.028 C 
ENDBRANCH  31  35
ENDBRANCH  27  31
ENDBRANCH  26  27
ENDBRANCH   1  26
TORSDOF 10
