REMARK  Name = ZINC02038048
REMARK                            x       y       z     vdW  Elec       q    Type
REMARK                         _______ _______ _______ _____ _____    ______ ____
ROOT
ATOM      1  C   LIG    1       -0.735   1.461   1.123  0.00  0.00    +0.074 C 
ENDROOT
BRANCH   1   2
ATOM      2  C   LIG    1        0.073   0.850   2.239  0.00  0.00    +0.214 C 
ATOM      3  N   LIG    1       -0.299   1.038   3.521  0.00  0.00    -0.329 N 
ATOM      4  H   LIG    1        0.221   0.645   4.239  0.00  0.00    +0.145 HD
ATOM      5  H   LIG    1       -1.086   1.567   3.725  0.00  0.00    +0.145 HD
ATOM      6  O   LIG    1        1.057   0.189   1.983  0.00  0.00    -0.276 OA
ENDBRANCH   1   2
BRANCH   1   7
ATOM      7  C   LIG    1       -0.755   2.983   1.282  0.00  0.00    +0.009 C 
ATOM      8  C   LIG    1       -1.691   3.593   0.236  0.00  0.00    +0.004 C 
ENDBRANCH   1   7
BRANCH   1   9
ATOM      9  C   LIG    1       -0.103   1.098  -0.222  0.00  0.00    +0.013 C 
BRANCH   9  10
ATOM     10  C   LIG    1       -0.229  -0.409  -0.454  0.00  0.00    +0.000 C 
BRANCH  10  12
ATOM     11  C   LIG    1        0.161  -2.262  -2.084  0.00  0.00    +0.004 C 
ATOM     12  C   LIG    1        0.287  -0.755  -1.853  0.00  0.00    -0.003 C 
ENDBRANCH  10  12
ENDBRANCH   9  10
ENDBRANCH   1   9
TORSDOF 5
