REMARK  Name = ZINC02009671
REMARK                            x       y       z     vdW  Elec       q    Type
REMARK                         _______ _______ _______ _____ _____    ______ ____
ROOT
ATOM      1  N   LIG    1       -0.075  -2.780  -0.013  0.00  0.00    -0.331 N 
ATOM      2  C   LIG    1        0.573  -3.197   1.240  0.00  0.00    +0.086 C 
ATOM      3  C   LIG    1        0.853  -4.701   1.165  0.00  0.00    -0.060 C 
ATOM      4  N   LIG    1        1.631  -4.993  -0.046  0.00  0.00    +0.382 N 
ATOM      5  H   LIG    1        2.471  -4.434  -0.047  0.00  0.00    -0.082 HD
ATOM      6  C   LIG    1        0.835  -4.679  -1.240  0.00  0.00    -0.060 C 
ATOM      7  C   LIG    1        0.551  -3.178  -1.283  0.00  0.00    +0.086 C 
ENDROOT
BRANCH   1  13
ATOM      8  C   LIG    1       -1.201  -0.638   0.010  0.00  0.00    +0.141 A 
ATOM      9  C   LIG    1       -2.374   0.099   0.019  0.00  0.00    +0.047 A 
ATOM     10  C   LIG    1       -3.597  -0.547   0.028  0.00  0.00    +0.004 A 
ATOM     11  C   LIG    1       -3.653  -1.928   0.027  0.00  0.00    +0.002 A 
ATOM     12  C   LIG    1       -2.487  -2.671   0.017  0.00  0.00    +0.027 A 
ATOM     13  C   LIG    1       -1.257  -2.030   0.003  0.00  0.00    +0.072 A 
BRANCH   8  15
ATOM     14  C   LIG    1       -0.017   1.425   0.010  0.00  0.00    +0.277 C 
ATOM     15  O   LIG    1        0.002  -0.004   0.002  0.00  0.00    -0.493 OA
ENDBRANCH   8  15
ENDBRANCH   1  13
BRANCH   4  16
ATOM     16  C   LIG    1        1.994  -6.416  -0.062  0.00  0.00    -0.079 C 
BRANCH  16  17
ATOM     17  C   LIG    1        2.908  -6.696  -1.256  0.00  0.00    -0.017 C 
BRANCH  17  18
ATOM     18  C   LIG    1        3.285  -8.179  -1.273  0.00  0.00    +0.018 C 
BRANCH  18  19
ATOM     19  C   LIG    1        4.200  -8.459  -2.468  0.00  0.00    +0.116 C 
BRANCH  19  20
ATOM     20  N   LIG    1        4.561  -9.879  -2.484  0.00  0.00    -0.242 N 
ATOM     21  C   LIG    1        5.638 -10.359  -1.849  0.00  0.00    +0.222 C 
ATOM     22  C   LIG    1        5.718 -11.854  -2.068  0.00  0.00    +0.105 C 
ATOM     23  C   LIG    1        4.488 -12.158  -2.947  0.00  0.00    +0.105 C 
ATOM     24  O   LIG    1        6.424  -9.701  -1.202  0.00  0.00    -0.275 OA
ATOM     25  C   LIG    1        3.839 -10.803  -3.129  0.00  0.00    +0.222 C 
ATOM     26  O   LIG    1        2.827 -10.588  -3.761  0.00  0.00    -0.275 OA
ENDBRANCH  19  20
ENDBRANCH  18  19
ENDBRANCH  17  18
ENDBRANCH  16  17
ENDBRANCH   4  16
TORSDOF 7
