REMARK  Name = ZINC01870851
REMARK                            x       y       z     vdW  Elec       q    Type
REMARK                         _______ _______ _______ _____ _____    ______ ____
ROOT
ATOM      1  C   LIG    1        2.654   1.861   7.359  0.00  0.00    +0.035 C 
ATOM      2  C   LIG    1        1.531   1.401   6.738  0.00  0.00    +0.078 C 
ATOM      3  C   LIG    1        0.713   2.034   5.753  0.00  0.00    +0.258 C 
ATOM      4  N   LIG    1       -0.337   1.372   5.299  0.00  0.00    -0.255 N 
ATOM      5  C   LIG    1       -0.631   0.136   5.758  0.00  0.00    +0.121 C 
ATOM      6  S   LIG    1       -1.931  -0.890   5.321  0.00  0.00    -0.027 S 
ATOM      7  O   LIG    1        0.976   3.151   5.343  0.00  0.00    -0.269 OA
ATOM      8  S   LIG    1        0.680  -0.159   6.934  0.00  0.00    -0.061 S 
ENDROOT
BRANCH   1  11
ATOM      9  C   LIG    1        4.433   5.105   6.987  0.00  0.00    +0.008 A 
ATOM     10  C   LIG    1        3.933   4.025   7.670  0.00  0.00    +0.015 A 
ATOM     11  C   LIG    1        3.260   3.062   6.925  0.00  0.00    +0.013 A 
ATOM     12  S   LIG    1        3.356   3.743   5.278  0.00  0.00    -0.097 S 
ATOM     13  C   LIG    1        4.242   5.187   5.644  0.00  0.00    +0.046 A 
ENDBRANCH   1  11
BRANCH   4  14
ATOM     14  C   LIG    1       -1.199   1.991   4.289  0.00  0.00    +0.115 C 
BRANCH  14  15
ATOM     15  C   LIG    1       -0.686   1.632   2.893  0.00  0.00    +0.019 C 
BRANCH  15  16
ATOM     16  C   LIG    1       -1.585   2.278   1.837  0.00  0.00    +0.002 C 
BRANCH  16  17
ATOM     17  C   LIG    1       -1.073   1.920   0.441  0.00  0.00    +0.011 C 
BRANCH  17  18
ATOM     18  C   LIG    1       -1.972   2.566  -0.614  0.00  0.00    +0.120 C 
BRANCH  18  19
ATOM     19  C   LIG    1       -1.467   2.212  -1.989  0.00  0.00    +0.305 C 
ATOM     20  O   LIG    1       -0.488   1.516  -2.113  0.00  0.00    -0.251 OA
BRANCH  19  21
ATOM     21  O   LIG    1       -2.105   2.672  -3.077  0.00  0.00    -0.481 OA
ATOM     22  H   LIG    1       -2.865   3.213  -2.982  0.00  0.00    +0.295 HD
ENDBRANCH  19  21
ENDBRANCH  18  19
ENDBRANCH  17  18
ENDBRANCH  16  17
ENDBRANCH  15  16
ENDBRANCH  14  15
ENDBRANCH   4  14
TORSDOF 8
