REMARK  Name = ZINC02007908
REMARK                            x       y       z     vdW  Elec       q    Type
REMARK                         _______ _______ _______ _____ _____    ______ ____
ROOT
ATOM      1  C   LIG    1       -6.011   7.498  -0.384  0.00  0.00    +0.005 C 
ATOM      2  C   LIG    1       -6.885   6.559   0.452  0.00  0.00    +0.005 C 
ATOM      3  C   LIG    1       -6.564   5.109   0.064  0.00  0.00    +0.043 C 
ATOM      4  C   LIG    1       -5.076   4.941   0.054  0.00  0.00    -0.004 A 
ATOM      5  C   LIG    1       -4.146   5.921   0.055  0.00  0.00    -0.021 A 
ATOM      6  C   LIG    1       -2.767   5.465   0.051  0.00  0.00    +0.091 A 
ATOM      7  C   LIG    1       -2.545   4.093   0.036  0.00  0.00    +0.087 A 
ATOM      8  S   LIG    1       -4.147   3.434   0.041  0.00  0.00    -0.077 S 
ATOM      9  C   LIG    1       -4.553   7.389   0.064  0.00  0.00    +0.037 C 
ENDROOT
BRANCH   7  10
ATOM     10  N   LIG    1       -1.337   3.418   0.027  0.00  0.00    -0.270 N 
ATOM     11  H   LIG    1       -0.504   3.914   0.026  0.00  0.00    +0.156 HD
ATOM     12  C   LIG    1       -1.319   2.070   0.020  0.00  0.00    +0.326 C 
ATOM     13  O   LIG    1       -2.362   1.449   0.021  0.00  0.00    -0.263 OA
BRANCH  12  14
ATOM     14  C   LIG    1       -0.016   1.341   0.009  0.00  0.00    +0.393 C 
ATOM     15  O   LIG    1        1.026   1.962   0.003  0.00  0.00    -0.240 OA
BRANCH  14  16
ATOM     16  O   LIG    1        0.002  -0.004   0.002  0.00  0.00    -0.474 OA
ATOM     17  H   LIG    1       -0.803  -0.484   0.007  0.00  0.00    +0.296 HD
ENDBRANCH  14  16
ENDBRANCH  12  14
ENDBRANCH   7  10
BRANCH   6  18
ATOM     18  C   LIG    1       -1.652   6.415   0.057  0.00  0.00    +0.339 C 
ATOM     19  O   LIG    1       -1.192   6.820  -0.994  0.00  0.00    -0.245 OA
BRANCH  18  20
ATOM     20  O   LIG    1       -1.135   6.841   1.228  0.00  0.00    -0.477 OA
ATOM     21  H   LIG    1       -1.489   6.528   2.037  0.00  0.00    +0.295 HD
ENDBRANCH  18  20
ENDBRANCH   6  18
TORSDOF 5
