REMARK  Name = ZINC01814176
REMARK                            x       y       z     vdW  Elec       q    Type
REMARK                         _______ _______ _______ _____ _____    ______ ____
ROOT
ATOM      1  C   LIG    1        2.516  -1.420   3.066  0.00  0.00    +0.172 A 
ATOM      2  N   LIG    1        2.827  -0.314   2.419  0.00  0.00    -0.223 NA
ATOM      3  C   LIG    1        2.046   0.151   1.440  0.00  0.00    +0.083 A 
ATOM      4  C   LIG    1        0.885  -0.530   1.096  0.00  0.00    +0.050 A 
ATOM      5  C   LIG    1        0.002  -0.004   0.002  0.00  0.00    +0.007 C 
ATOM      6  C   LIG    1       -0.019   1.523   0.010  0.00  0.00    +0.047 C 
ATOM      7  C   LIG    1        1.389   2.059  -0.000  0.00  0.00    -0.037 A 
ATOM      8  C   LIG    1        1.694   3.211  -0.693  0.00  0.00    +0.004 A 
ATOM      9  C   LIG    1        2.991   3.694  -0.699  0.00  0.00    +0.000 A 
ATOM     10  C   LIG    1        3.989   3.026  -0.013  0.00  0.00    +0.001 A 
ATOM     11  C   LIG    1        3.697   1.871   0.686  0.00  0.00    +0.010 A 
ATOM     12  C   LIG    1        0.498  -0.511  -1.362  0.00  0.00    +0.012 C 
ATOM     13  C   LIG    1       -0.653  -1.343  -1.965  0.00  0.00    +0.001 C 
ATOM     14  C   LIG    1       -1.923  -0.802  -1.262  0.00  0.00    +0.001 C 
ATOM     15  C   LIG    1       -1.430  -0.542   0.183  0.00  0.00    +0.012 C 
ATOM     16  C   LIG    1        0.562  -1.704   1.787  0.00  0.00    +0.259 A 
ATOM     17  O   LIG    1       -0.448  -2.331   1.512  0.00  0.00    -0.267 OA
ATOM     18  C   LIG    1        2.394   1.384   0.696  0.00  0.00    +0.004 A 
ATOM     19  N   LIG    1        1.393  -2.128   2.764  0.00  0.00    -0.284 N 
ENDROOT
BRANCH   1  20
ATOM     20  S   LIG    1        3.578  -1.994   4.349  0.00  0.00    -0.088 S 
BRANCH  20  21
ATOM     21  C   LIG    1        4.851  -0.708   4.304  0.00  0.00    +0.077 C 
BRANCH  21  22
ATOM     22  C   LIG    1        5.913  -1.004   5.364  0.00  0.00    +0.011 C 
BRANCH  22  24
ATOM     23  C   LIG    1        8.051  -0.213   6.386  0.00  0.00    +0.004 C 
ATOM     24  C   LIG    1        6.989   0.083   5.326  0.00  0.00    -0.003 C 
ENDBRANCH  22  24
ENDBRANCH  21  22
ENDBRANCH  20  21
ENDBRANCH   1  20
BRANCH  19  25
ATOM     25  C   LIG    1        1.084  -3.356   3.502  0.00  0.00    +0.154 C 
BRANCH  25  26
ATOM     26  C   LIG    1        1.711  -4.534   2.803  0.00  0.00    -0.013 C 
ATOM     27  C   LIG    1        2.514  -5.334   3.460  0.00  0.00    +0.005 C 
ENDBRANCH  25  26
ENDBRANCH  19  25
TORSDOF 6
