REMARK  Name = ZINC02030689
REMARK                            x       y       z     vdW  Elec       q    Type
REMARK                         _______ _______ _______ _____ _____    ______ ____
ROOT
ATOM      1  C   LIG    1       -0.013   1.086   0.008  0.00  0.00    +0.142 C 
ATOM      2  N   LIG    1       -0.698   1.558   1.213  0.00  0.00    -0.235 N 
ATOM      3  C   LIG    1       -0.816   2.881   1.408  0.00  0.00    +0.254 C 
ATOM      4  C   LIG    1       -1.499   3.426   2.597  0.00  0.00    +0.048 A 
ATOM      5  C   LIG    1       -1.623   4.796   2.791  0.00  0.00    +0.014 A 
ATOM      6  C   LIG    1       -2.266   5.276   3.920  0.00  0.00    +0.001 A 
ATOM      7  C   LIG    1       -2.787   4.404   4.859  0.00  0.00    +0.001 A 
ATOM      8  C   LIG    1       -2.674   3.035   4.684  0.00  0.00    +0.012 A 
ATOM      9  C   LIG    1       -2.032   2.539   3.556  0.00  0.00    +0.039 A 
ATOM     10  C   LIG    1       -1.885   1.088   3.322  0.00  0.00    +0.249 C 
ATOM     11  O   LIG    1       -2.322   0.279   4.113  0.00  0.00    -0.282 OA
ATOM     12  O   LIG    1       -0.354   3.646   0.585  0.00  0.00    -0.270 OA
ATOM     13  C   LIG    1       -1.177   0.649   2.078  0.00  0.00    +0.293 C 
ATOM     14  O   LIG    1       -1.036  -0.535   1.850  0.00  0.00    -0.266 OA
ENDROOT
TORSDOF 0
