REMARK  Name = ZINC01684448
REMARK                            x       y       z     vdW  Elec       q    Type
REMARK                         _______ _______ _______ _____ _____    ______ ____
ROOT
ATOM      1  N   LIG    1        5.989   2.249  -0.044  0.00  0.00    -0.199 N 
ATOM      2  H   LIG    1        5.976   3.219  -0.039  0.00  0.00    +0.178 HD
ATOM      3  C   LIG    1        7.165   1.591  -0.059  0.00  0.00    +0.320 C 
ATOM      4  O   LIG    1        7.181   0.376  -0.065  0.00  0.00    -0.263 OA
ENDROOT
BRANCH   3   5
ATOM      5  C   LIG    1        8.445   2.353  -0.067  0.00  0.00    +0.320 C 
ATOM      6  N   LIG    1        9.621   1.695  -0.082  0.00  0.00    -0.199 N 
ATOM      7  H   LIG    1        9.634   0.725  -0.087  0.00  0.00    +0.178 HD
ATOM      8  O   LIG    1        8.428   3.567  -0.061  0.00  0.00    -0.263 OA
BRANCH   6   9
ATOM      9  N   LIG    1       10.825   2.411  -0.090  0.00  0.00    -0.187 NA
ATOM     10  C   LIG    1       11.958   1.777  -0.104  0.00  0.00    +0.142 C 
BRANCH  10  11
ATOM     11  C   LIG    1       13.224   2.530  -0.113  0.00  0.00    +0.036 A 
ATOM     12  C   LIG    1       13.210   3.932  -0.100  0.00  0.00    +0.125 A 
ATOM     13  C   LIG    1       14.406   4.631  -0.108  0.00  0.00    +0.046 A 
ATOM     14  C   LIG    1       15.607   3.948  -0.129  0.00  0.00    +0.004 A 
ATOM     15  C   LIG    1       15.626   2.564  -0.142  0.00  0.00    +0.001 A 
ATOM     16  C   LIG    1       14.445   1.852  -0.128  0.00  0.00    +0.013 A 
BRANCH  12  17
ATOM     17  O   LIG    1       12.029   4.602  -0.080  0.00  0.00    -0.506 OA
ATOM     18  H   LIG    1       11.697   4.788   0.809  0.00  0.00    +0.292 HD
ENDBRANCH  12  17
ENDBRANCH  10  11
ENDBRANCH   6   9
ENDBRANCH   3   5
BRANCH   1  20
ATOM     19  C   LIG    1        3.651   2.167  -0.022  0.00  0.00    +0.142 C 
ATOM     20  N   LIG    1        4.785   1.532  -0.036  0.00  0.00    -0.187 NA
BRANCH  19  23
ATOM     21  C   LIG    1       -0.017   1.380   0.010  0.00  0.00    +0.001 A 
ATOM     22  C   LIG    1        1.165   2.092   0.002  0.00  0.00    +0.013 A 
ATOM     23  C   LIG    1        2.386   1.414  -0.013  0.00  0.00    +0.036 A 
ATOM     24  C   LIG    1        2.400   0.011  -0.021  0.00  0.00    +0.125 A 
ATOM     25  C   LIG    1        1.204  -0.687  -0.013  0.00  0.00    +0.046 A 
ATOM     26  C   LIG    1        0.002  -0.004   0.002  0.00  0.00    +0.004 A 
BRANCH  24  27
ATOM     27  O   LIG    1        3.581  -0.659  -0.036  0.00  0.00    -0.506 OA
ATOM     28  H   LIG    1        3.932  -0.858   0.843  0.00  0.00    +0.292 HD
ENDBRANCH  24  27
ENDBRANCH  19  23
ENDBRANCH   1  20
TORSDOF 7
