REMARK  Name = ZINC01687322
REMARK                            x       y       z     vdW  Elec       q    Type
REMARK                         _______ _______ _______ _____ _____    ______ ____
ROOT
ATOM      1  O   LIG    1        4.141  -0.946   1.304  0.00  0.00    -0.371 OA
ENDROOT
BRANCH   1   2
ATOM      2  C   LIG    1        3.711  -0.707  -0.038  0.00  0.00    +0.195 C 
BRANCH   2   6
ATOM      3  C   LIG    1       -0.017   1.378   0.010  0.00  0.00    +0.000 A 
ATOM      4  C   LIG    1        1.171   2.086   0.002  0.00  0.00    +0.000 A 
ATOM      5  C   LIG    1        2.377   1.411  -0.013  0.00  0.00    +0.006 A 
ATOM      6  C   LIG    1        2.396   0.029  -0.020  0.00  0.00    -0.022 A 
ATOM      7  C   LIG    1        1.208  -0.679  -0.012  0.00  0.00    +0.006 A 
ATOM      8  C   LIG    1        0.002  -0.004   0.002  0.00  0.00    +0.000 A 
ENDBRANCH   2   6
ENDBRANCH   1   2
BRANCH   1   9
ATOM      9  C   LIG    1        5.385  -1.642   1.400  0.00  0.00    +0.195 C 
BRANCH   9  10
ATOM     10  C   LIG    1        5.740  -1.839   2.852  0.00  0.00    -0.022 A 
ATOM     11  C   LIG    1        6.482  -0.882   3.518  0.00  0.00    +0.006 A 
ATOM     12  C   LIG    1        6.807  -1.063   4.850  0.00  0.00    +0.000 A 
ATOM     13  C   LIG    1        6.389  -2.200   5.515  0.00  0.00    +0.000 A 
ATOM     14  C   LIG    1        5.646  -3.157   4.849  0.00  0.00    +0.000 A 
ATOM     15  C   LIG    1        5.318  -2.974   3.518  0.00  0.00    +0.006 A 
ENDBRANCH   9  10
ENDBRANCH   1   9
TORSDOF 4
