REMARK  Name = ZINC01703222
REMARK                            x       y       z     vdW  Elec       q    Type
REMARK                         _______ _______ _______ _____ _____    ______ ____
ROOT
ATOM      1  C   LIG    1       -0.076   5.330   0.031  0.00  0.00    +0.203 A 
ATOM      2  N   LIG    1        1.066   6.014   0.029  0.00  0.00    -0.125 NA
ATOM      3  N   LIG    1        1.044   7.304   0.030  0.00  0.00    -0.125 NA
ATOM      4  C   LIG    1       -0.119   7.950   0.044  0.00  0.00    +0.203 A 
ATOM      5  N   LIG    1       -1.261   7.266   0.052  0.00  0.00    -0.125 NA
ATOM      6  N   LIG    1       -1.240   5.976   0.045  0.00  0.00    -0.125 NA
ENDROOT
BRANCH   1   9
ATOM      7  C   LIG    1       -1.220   1.748   0.017  0.00  0.00    +0.004 A 
ATOM      8  C   LIG    1       -1.246   3.128   0.031  0.00  0.00    +0.012 A 
ATOM      9  C   LIG    1       -0.051   3.848   0.023  0.00  0.00    +0.026 A 
ATOM     10  C   LIG    1        1.165   3.169   0.008  0.00  0.00    +0.057 A 
ATOM     11  C   LIG    1        1.181   1.784   0.000  0.00  0.00    +0.118 A 
ATOM     12  C   LIG    1       -0.013   1.076   0.008  0.00  0.00    +0.045 A 
BRANCH  11  13
ATOM     13  O   LIG    1        2.366   1.118  -0.015  0.00  0.00    -0.507 OA
ATOM     14  H   LIG    1        2.700   0.931  -0.903  0.00  0.00    +0.292 HD
ENDBRANCH  11  13
ENDBRANCH   1   9
BRANCH   4  15
ATOM     15  C   LIG    1       -0.144   9.432   0.052  0.00  0.00    +0.026 A 
ATOM     16  C   LIG    1       -1.362  10.112   0.066  0.00  0.00    +0.012 A 
ATOM     17  C   LIG    1       -1.381  11.492   0.073  0.00  0.00    +0.004 A 
ATOM     18  C   LIG    1       -0.197  12.204   0.066  0.00  0.00    +0.045 A 
ATOM     19  C   LIG    1        1.020  11.536   0.052  0.00  0.00    +0.118 A 
ATOM     20  C   LIG    1        1.050  10.151   0.049  0.00  0.00    +0.057 A 
BRANCH  19  21
ATOM     21  O   LIG    1        2.182  12.241   0.045  0.00  0.00    -0.507 OA
ATOM     22  H   LIG    1        2.526  12.440   0.927  0.00  0.00    +0.292 HD
ENDBRANCH  19  21
ENDBRANCH   4  15
TORSDOF 4
