REMARK  Name = ZINC01853521
REMARK                            x       y       z     vdW  Elec       q    Type
REMARK                         _______ _______ _______ _____ _____    ______ ____
ROOT
ATOM      1  C   LIG    1       -2.847   1.353  -2.329  0.00  0.00    +0.124 A 
ATOM      2  C   LIG    1       -2.375   2.250  -3.284  0.00  0.00    +0.046 A 
ATOM      3  C   LIG    1       -3.159   2.604  -4.345  0.00  0.00    +0.019 A 
ATOM      4  C   LIG    1       -4.443   2.073  -4.465  0.00  0.00    +0.064 A 
ATOM      5  C   LIG    1       -5.321   2.436  -5.593  0.00  0.00    +0.193 A 
ATOM      6  C   LIG    1       -6.607   1.848  -5.633  0.00  0.00    +0.098 A 
ATOM      7  C   LIG    1       -6.981   0.986  -4.650  0.00  0.00    +0.139 A 
ATOM      8  O   LIG    1       -6.173   0.663  -3.627  0.00  0.00    -0.454 OA
ATOM      9  O   LIG    1       -4.952   3.214  -6.458  0.00  0.00    -0.287 OA
ATOM     10  C   LIG    1       -4.930   1.172  -3.502  0.00  0.00    +0.143 A 
ATOM     11  C   LIG    1       -4.120   0.817  -2.433  0.00  0.00    +0.092 A 
ENDROOT
BRANCH   7  12
ATOM     12  C   LIG    1       -8.328   0.383  -4.708  0.00  0.00    +0.017 A 
ATOM     13  C   LIG    1       -9.194   0.703  -5.756  0.00  0.00    +0.011 A 
ATOM     14  C   LIG    1      -10.449   0.131  -5.807  0.00  0.00    +0.001 A 
ATOM     15  C   LIG    1      -10.853  -0.748  -4.818  0.00  0.00    +0.000 A 
ATOM     16  C   LIG    1      -10.002  -1.065  -3.774  0.00  0.00    +0.001 A 
ATOM     17  C   LIG    1       -8.742  -0.505  -3.714  0.00  0.00    +0.011 A 
ENDBRANCH   7  12
BRANCH   1  18
ATOM     18  O   LIG    1       -2.054   1.005  -1.282  0.00  0.00    -0.489 OA
BRANCH  18  19
ATOM     19  C   LIG    1       -0.753   1.593  -1.232  0.00  0.00    +0.258 C 
BRANCH  19  20
ATOM     20  C   LIG    1       -0.013   1.086   0.008  0.00  0.00    +0.135 C 
BRANCH  20  21
ATOM     21  O   LIG    1       -0.682   1.547   1.184  0.00  0.00    -0.390 OA
ATOM     22  H   LIG    1       -0.732   2.510   1.256  0.00  0.00    +0.210 HD
ENDBRANCH  20  21
BRANCH  20  23
ATOM     23  C   LIG    1        1.423   1.615  -0.003  0.00  0.00    -0.048 C 
BRANCH  23  24
ATOM     24  N   LIG    1        2.164   1.027   1.129  0.00  0.00    +0.381 N 
ATOM     25  H   LIG    1        2.168   0.004   1.035  0.00  0.00    -0.086 HD
ATOM     26  H   LIG    1        1.702   1.288   2.008  0.00  0.00    -0.086 HD
BRANCH  24  27
ATOM     27  C   LIG    1        3.554   1.520   1.143  0.00  0.00    -0.083 C 
BRANCH  27  29
ATOM     28  C   LIG    1        5.739   1.401   2.347  0.00  0.00    +0.002 C 
ATOM     29  C   LIG    1        4.296   0.894   2.325  0.00  0.00    -0.022 C 
ENDBRANCH  27  29
ENDBRANCH  24  27
ENDBRANCH  23  24
ENDBRANCH  20  23
ENDBRANCH  19  20
ENDBRANCH  18  19
ENDBRANCH   1  18
TORSDOF 9
