REMARK  Name = ZINC01747048
REMARK                            x       y       z     vdW  Elec       q    Type
REMARK                         _______ _______ _______ _____ _____    ______ ____
ROOT
ATOM      1  CA  LIG    1        2.761   5.069   0.002  0.00  0.00    +0.036 C 
ENDROOT
BRANCH   1   2
ATOM      2  N   LIG    1        2.298   5.563   1.311  0.00  0.00    +0.387 N 
ATOM      3  H1  LIG    1        1.344   5.224   1.482  0.00  0.00    -0.089 HD
ATOM      4  H2  LIG    1        2.296   6.582   1.319  0.00  0.00    -0.089 HD
ATOM      5  H3  LIG    1        2.910   5.220   2.050  0.00  0.00    -0.089 HD
ENDBRANCH   1   2
BRANCH   1   6
ATOM      6  C   LIG    1        4.179   5.510  -0.255  0.00  0.00    +0.290 C 
ATOM      7  O   LIG    1        4.883   5.848   0.666  0.00  0.00    -0.253 OA
BRANCH   6   8
ATOM      8  OXT LIG    1        4.659   5.528  -1.509  0.00  0.00    -0.482 OA
ATOM      9  HXT LIG    1        4.113   5.265  -2.223  0.00  0.00    +0.295 HD
ENDBRANCH   6   8
ENDBRANCH   1   6
BRANCH   1  10
ATOM     10  C   LIG    1        2.694   3.540  -0.004  0.00  0.00    +0.009 C 
BRANCH  10  12
ATOM     11  C   LIG    1        1.183   1.573   0.292  0.00  0.00    +0.019 C 
ATOM     12  C   LIG    1        1.237   3.094   0.134  0.00  0.00    +0.093 C 
BRANCH  12  13
ATOM     13  C   LIG    1        0.469   3.498  -1.099  0.00  0.00    +0.308 C 
ATOM     14  O   LIG    1        1.030   4.083  -1.995  0.00  0.00    -0.251 OA
BRANCH  13  15
ATOM     15  O   LIG    1       -0.838   3.208  -1.200  0.00  0.00    -0.480 OA
ATOM     16  H   LIG    1       -1.272   2.754  -0.505  0.00  0.00    +0.295 HD
ENDBRANCH  13  15
ENDBRANCH  12  13
ENDBRANCH  10  12
ENDBRANCH   1  10
TORSDOF 7
