REMARK  Name = ZINC02059636
REMARK                            x       y       z     vdW  Elec       q    Type
REMARK                         _______ _______ _______ _____ _____    ______ ____
ROOT
ATOM      1  N   LIG    1       -5.862  -2.174   1.428  0.00  0.00    -0.244 N 
ATOM      2  C   LIG    1       -5.358  -1.981   0.068  0.00  0.00    +0.198 C 
ATOM      3  N   LIG    1       -5.409  -3.246  -0.674  0.00  0.00    -0.321 N 
ATOM      4  H   LIG    1       -5.727  -3.269  -1.590  0.00  0.00    +0.148 HD
ATOM      5  C   LIG    1       -4.994  -4.411  -0.046  0.00  0.00    +0.041 A 
ATOM      6  C   LIG    1       -4.467  -5.476  -0.755  0.00  0.00    +0.024 A 
ATOM      7  C   LIG    1       -4.094  -6.626  -0.086  0.00  0.00    +0.002 A 
ATOM      8  C   LIG    1       -4.246  -6.722   1.288  0.00  0.00    +0.001 A 
ATOM      9  C   LIG    1       -4.765  -5.668   2.011  0.00  0.00    +0.015 A 
ATOM     10  C   LIG    1       -5.133  -4.498   1.351  0.00  0.00    +0.058 A 
ATOM     11  C   LIG    1       -5.688  -3.342   2.077  0.00  0.00    +0.254 C 
ATOM     12  O   LIG    1       -5.987  -3.442   3.252  0.00  0.00    -0.270 OA
ENDROOT
BRANCH   1  16
ATOM     13  C   LIG    1       -7.872   0.941   3.327  0.00  0.00    -0.044 A 
ATOM     14  C   LIG    1       -8.343   0.448   2.124  0.00  0.00    +0.006 A 
ATOM     15  C   LIG    1       -7.679  -0.584   1.492  0.00  0.00    +0.024 A 
ATOM     16  C   LIG    1       -6.537  -1.128   2.065  0.00  0.00    +0.039 A 
ATOM     17  C   LIG    1       -6.069  -0.633   3.276  0.00  0.00    +0.024 A 
ATOM     18  C   LIG    1       -6.735   0.403   3.901  0.00  0.00    +0.006 A 
BRANCH  13  19
ATOM     19  C   LIG    1       -8.599   2.068   4.014  0.00  0.00    +0.016 C 
ATOM     20  C   LIG    1       -7.658   3.265   4.166  0.00  0.00    +0.012 C 
BRANCH  19  22
ATOM     21  C   LIG    1       -9.909   2.707   6.044  0.00  0.00    +0.004 C 
ATOM     22  C   LIG    1       -9.065   1.607   5.397  0.00  0.00    +0.004 C 
ENDBRANCH  19  22
ENDBRANCH  13  19
ENDBRANCH   1  16
BRANCH   2  23
ATOM     23  C   LIG    1       -3.933  -1.495   0.128  0.00  0.00    -0.009 A 
ATOM     24  C   LIG    1       -3.054  -1.805  -0.892  0.00  0.00    +0.007 A 
ATOM     25  C   LIG    1       -1.746  -1.360  -0.837  0.00  0.00    +0.004 A 
ATOM     26  C   LIG    1       -1.319  -0.603   0.238  0.00  0.00    -0.045 A 
ATOM     27  C   LIG    1       -2.197  -0.297   1.261  0.00  0.00    +0.004 A 
ATOM     28  C   LIG    1       -3.506  -0.739   1.204  0.00  0.00    +0.007 A 
BRANCH  26  29
ATOM     29  C   LIG    1        0.107  -0.117   0.299  0.00  0.00    +0.013 C 
ATOM     30  C   LIG    1        0.783  -0.675   1.553  0.00  0.00    +0.012 C 
ATOM     31  C   LIG    1        0.123   1.412   0.347  0.00  0.00    +0.012 C 
ENDBRANCH  26  29
ENDBRANCH   2  23
TORSDOF 5
