REMARK  Name = ZINC02043598
REMARK                            x       y       z     vdW  Elec       q    Type
REMARK                         _______ _______ _______ _____ _____    ______ ____
ROOT
ATOM      1  C   LIG    1       -2.087   1.822  -1.235  0.00  0.00    +0.016 C 
ATOM      2  C   LIG    1       -1.248   2.078   0.019  0.00  0.00    +0.061 C 
ATOM      3  C   LIG    1       -0.727   3.522   0.028  0.00  0.00    +0.047 C 
ATOM      4  C   LIG    1        0.779   3.429   0.013  0.00  0.00    -0.036 A 
ATOM      5  C   LIG    1        1.740   4.423   0.010  0.00  0.00    +0.004 A 
ATOM      6  C   LIG    1        3.083   4.096  -0.005  0.00  0.00    +0.000 A 
ATOM      7  C   LIG    1        3.477   2.769  -0.015  0.00  0.00    +0.001 A 
ATOM      8  C   LIG    1        2.532   1.767  -0.012  0.00  0.00    +0.011 A 
ATOM      9  C   LIG    1        1.166   2.089   0.002  0.00  0.00    +0.021 A 
ATOM     10  C   LIG    1       -0.014   1.208   0.009  0.00  0.00    +0.167 C 
ATOM     11  O   LIG    1        0.002  -0.004   0.002  0.00  0.00    -0.292 OA
ENDROOT
TORSDOF 0
