REMARK  Name = ZINC01906908
REMARK                            x       y       z     vdW  Elec       q    Type
REMARK                         _______ _______ _______ _____ _____    ______ ____
ROOT
ATOM      1  N   LIG    1       -1.543  -0.221   0.047  0.00  0.00    -0.340 N 
ATOM      2  C   LIG    1       -2.390  -0.199   1.140  0.00  0.00    +0.050 A 
ATOM      3  C   LIG    1       -2.186   0.130   2.477  0.00  0.00    +0.026 A 
ATOM      4  C   LIG    1       -3.232   0.062   3.372  0.00  0.00    +0.002 A 
ATOM      5  C   LIG    1       -4.494  -0.333   2.954  0.00  0.00    +0.001 A 
ATOM      6  C   LIG    1       -4.716  -0.662   1.634  0.00  0.00    +0.010 A 
ATOM      7  C   LIG    1       -3.667  -0.598   0.719  0.00  0.00    +0.008 A 
ATOM      8  C   LIG    1       -3.565  -0.874  -0.726  0.00  0.00    +0.009 A 
ATOM      9  C   LIG    1       -4.480  -1.297  -1.686  0.00  0.00    +0.034 A 
ATOM     10  C   LIG    1       -4.074  -1.454  -3.000  0.00  0.00    +0.035 A 
ATOM     11  C   LIG    1       -2.752  -1.205  -3.356  0.00  0.00    +0.025 A 
ATOM     12  C   LIG    1       -1.839  -0.791  -2.410  0.00  0.00    +0.028 A 
ATOM     13  C   LIG    1       -2.233  -0.619  -1.087  0.00  0.00    +0.050 A 
ENDROOT
BRANCH  10  14
ATOM     14  N   LIG    1       -4.992  -1.875  -3.972  0.00  0.00    -0.269 N 
ATOM     15  H   LIG    1       -5.791  -2.358  -3.707  0.00  0.00    +0.156 HD
ATOM     16  C   LIG    1       -4.767  -1.607  -5.273  0.00  0.00    +0.307 C 
ATOM     17  N   LIG    1       -5.729  -1.845  -6.187  0.00  0.00    -0.281 N 
ATOM     18  C   LIG    1       -7.089  -2.224  -5.773  0.00  0.00    +0.137 C 
ATOM     19  C   LIG    1       -8.086  -1.312  -6.497  0.00  0.00    +0.179 C 
ATOM     20  O   LIG    1       -7.818  -1.342  -7.901  0.00  0.00    -0.377 OA
ATOM     21  C   LIG    1       -6.527  -0.845  -8.261  0.00  0.00    +0.179 C 
ATOM     22  C   LIG    1       -5.451  -1.727  -7.627  0.00  0.00    +0.137 C 
ATOM     23  O   LIG    1       -3.695  -1.151  -5.623  0.00  0.00    -0.252 OA
ENDBRANCH  10  14
BRANCH   1  25
ATOM     24  C   LIG    1        0.038   1.630  -0.186  0.00  0.00    +0.027 C 
ATOM     25  C   LIG    1       -0.122   0.132   0.081  0.00  0.00    +0.119 C 
ENDBRANCH   1  25
TORSDOF 2
