REMARK  Name = ZINC01683334
REMARK                            x       y       z     vdW  Elec       q    Type
REMARK                         _______ _______ _______ _____ _____    ______ ____
ROOT
ATOM      1  C   LIG    1       -1.298   2.124   0.015  0.00  0.00    +0.237 C 
ATOM      2  O   LIG    1       -1.554   1.502   1.025  0.00  0.00    -0.283 OA
ENDROOT
BRANCH   1   6
ATOM      3  C   LIG    1       -0.681   0.065  -3.647  0.00  0.00    +0.019 A 
ATOM      4  C   LIG    1       -0.862  -0.655  -2.482  0.00  0.00    +0.047 A 
ATOM      5  C   LIG    1       -1.062   0.006  -1.280  0.00  0.00    +0.128 A 
ATOM      6  C   LIG    1       -1.080   1.411  -1.253  0.00  0.00    +0.068 A 
ATOM      7  C   LIG    1       -0.896   2.127  -2.442  0.00  0.00    +0.030 A 
ATOM      8  C   LIG    1       -0.699   1.452  -3.626  0.00  0.00    +0.019 A 
ATOM      9 BR   LIG    1       -0.450   2.420  -5.231  0.00  0.00    -0.050 Br
BRANCH   5  10
ATOM     10  O   LIG    1       -1.239  -0.700  -0.136  0.00  0.00    -0.506 OA
ATOM     11  H   LIG    1       -2.162  -0.913   0.056  0.00  0.00    +0.292 HD
ENDBRANCH   5  10
ENDBRANCH   1   6
BRANCH   1  12
ATOM     12  C   LIG    1       -1.204   3.612   0.059  0.00  0.00    +0.237 C 
ATOM     13  O   LIG    1       -0.117   4.153   0.027  0.00  0.00    -0.283 OA
BRANCH  12  14
ATOM     14  C   LIG    1       -2.427   4.424   0.141  0.00  0.00    +0.068 A 
ATOM     15  C   LIG    1       -3.676   3.805   0.282  0.00  0.00    +0.030 A 
ATOM     16  C   LIG    1       -4.816   4.573   0.363  0.00  0.00    +0.019 A 
ATOM     17 BR   LIG    1       -6.501   3.737   0.561  0.00  0.00    -0.050 Br
ATOM     18  C   LIG    1       -4.736   5.956   0.295  0.00  0.00    +0.019 A 
ATOM     19  C   LIG    1       -3.513   6.580   0.151  0.00  0.00    +0.047 A 
ATOM     20  C   LIG    1       -2.352   5.826   0.073  0.00  0.00    +0.128 A 
BRANCH  20  21
ATOM     21  O   LIG    1       -1.150   6.437  -0.069  0.00  0.00    -0.506 OA
ATOM     22  H   LIG    1       -0.885   6.576  -0.988  0.00  0.00    +0.292 HD
ENDBRANCH  20  21
ENDBRANCH  12  14
ENDBRANCH   1  12
TORSDOF 5
