REMARK  Name = ZINC01707644
REMARK                            x       y       z     vdW  Elec       q    Type
REMARK                         _______ _______ _______ _____ _____    ______ ____
ROOT
ATOM      1  C   LIG    1        0.011   1.072   2.506  0.00  0.00    +0.044 C 
ENDROOT
BRANCH   1   2
ATOM      2  N   LIG    1       -0.675   1.571   3.711  0.00  0.00    +0.388 N 
ATOM      3  H   LIG    1       -0.708   2.597   3.681  0.00  0.00    -0.089 HD
ATOM      4  H   LIG    1       -0.171   1.279   4.546  0.00  0.00    -0.089 HD
ATOM      5  H   LIG    1       -1.627   1.210   3.745  0.00  0.00    -0.089 HD
ENDBRANCH   1   2
BRANCH   1   7
ATOM      6  C   LIG    1       -0.013   1.086   0.008  0.00  0.00    +0.006 C 
ATOM      7  C   LIG    1       -0.729   1.579   1.267  0.00  0.00    -0.020 C 
ATOM      8  C   LIG    1       -0.750   3.109   1.275  0.00  0.00    +0.006 C 
ENDBRANCH   1   7
BRANCH   1   9
ATOM      9  P   LIG    1        0.036  -0.750   2.496  0.00  0.00    +0.314 P 
ATOM     10  O   LIG    1       -1.349  -1.262   2.385  0.00  0.00    -0.261 OA
BRANCH   9  11
ATOM     11  O   LIG    1        0.698  -1.286   3.863  0.00  0.00    -0.325 OA
ATOM     12  H   LIG    1        0.176  -0.974   4.619  0.00  0.00    +0.220 HD
ENDBRANCH   9  11
BRANCH   9  13
ATOM     13  O   LIG    1        0.902  -1.268   1.242  0.00  0.00    -0.325 OA
ATOM     14  H   LIG    1        0.503  -0.946   0.418  0.00  0.00    +0.220 HD
ENDBRANCH   9  13
ENDBRANCH   1   9
TORSDOF 5
