REMARK  Name = ZINC02155429
REMARK                            x       y       z     vdW  Elec       q    Type
REMARK                         _______ _______ _______ _____ _____    ______ ____
ROOT
ATOM      1  S   LIG    1        1.147   3.833  -0.025  0.00  0.00    +0.025 S 
ATOM      2  O   LIG    1       -0.167   4.228  -0.394  0.00  0.00    -0.164 OA
ATOM      3  O   LIG    1        2.297   4.231  -0.759  0.00  0.00    -0.164 OA
ENDROOT
BRANCH   1   6
ATOM      4  C   LIG    1       -0.025  -0.001   0.218  0.00  0.00    +0.048 A 
ATOM      5  C   LIG    1       -0.028   1.380   0.194  0.00  0.00    +0.031 A 
ATOM      6  C   LIG    1        1.154   2.071   0.006  0.00  0.00    +0.094 A 
ATOM      7  C   LIG    1        2.342   1.383  -0.158  0.00  0.00    +0.031 A 
ATOM      8  C   LIG    1        2.350   0.002  -0.134  0.00  0.00    +0.048 A 
ATOM      9  C   LIG    1        1.165  -0.695   0.054  0.00  0.00    +0.132 A 
BRANCH   9  10
ATOM     10  O   LIG    1        1.171  -2.053   0.078  0.00  0.00    -0.422 OA
BRANCH  10  11
ATOM     11  C   LIG    1        0.674  -2.687  -1.004  0.00  0.00    +0.358 C 
ATOM     12  O   LIG    1        0.177  -2.045  -1.910  0.00  0.00    -0.243 OA
BRANCH  11  13
ATOM     13  C   LIG    1        0.733  -4.148  -1.089  0.00  0.00    +0.155 C 
ATOM     14 CL   LIG    1        1.442  -5.064   0.204  0.00  0.00    -0.074 Cl
ATOM     15  C   LIG    1        0.239  -4.777  -2.163  0.00  0.00    +0.132 C 
ATOM     16 CL   LIG    1        0.309  -6.508  -2.263  0.00  0.00    -0.069 Cl
ATOM     17 CL   LIG    1       -0.470  -3.860  -3.455  0.00  0.00    -0.069 Cl
ENDBRANCH  11  13
ENDBRANCH  10  11
ENDBRANCH   9  10
ENDBRANCH   1   6
BRANCH   1  18
ATOM     18  C   LIG    1        1.392   4.384   1.631  0.00  0.00    +0.094 A 
ATOM     19  C   LIG    1        0.302   4.604   2.453  0.00  0.00    +0.031 A 
ATOM     20  C   LIG    1        0.491   5.030   3.753  0.00  0.00    +0.048 A 
ATOM     21  C   LIG    1        1.776   5.250   4.230  0.00  0.00    +0.132 A 
ATOM     22  C   LIG    1        2.867   5.034   3.401  0.00  0.00    +0.048 A 
ATOM     23  C   LIG    1        2.673   4.602   2.104  0.00  0.00    +0.031 A 
BRANCH  21  24
ATOM     24  O   LIG    1        1.964   5.674   5.508  0.00  0.00    -0.422 OA
BRANCH  24  25
ATOM     25  C   LIG    1        2.269   6.977   5.681  0.00  0.00    +0.358 C 
ATOM     26  O   LIG    1        2.258   7.735   4.731  0.00  0.00    -0.243 OA
BRANCH  25  27
ATOM     27  C   LIG    1        2.613   7.477   7.014  0.00  0.00    +0.155 C 
ATOM     28 CL   LIG    1        2.628   6.394   8.371  0.00  0.00    -0.074 Cl
ATOM     29  C   LIG    1        2.915   8.769   7.186  0.00  0.00    +0.132 C 
ATOM     30 CL   LIG    1        3.322   9.363   8.766  0.00  0.00    -0.069 Cl
ATOM     31 CL   LIG    1        2.900   9.853   5.830  0.00  0.00    -0.069 Cl
ENDBRANCH  25  27
ENDBRANCH  24  25
ENDBRANCH  21  24
ENDBRANCH   1  18
TORSDOF 8
