REMARK  Name = ZINC02040495
REMARK                            x       y       z     vdW  Elec       q    Type
REMARK                         _______ _______ _______ _____ _____    ______ ____
ROOT
ATOM      1  C   LIG    1       -1.155  -2.216  -0.175  0.00  0.00    +0.104 C 
ATOM      2  C   LIG    1       -2.398  -2.674   0.563  0.00  0.00    +0.032 C 
ATOM      3  C   LIG    1       -2.619  -4.173   0.388  0.00  0.00    +0.038 C 
ATOM      4  C   LIG    1       -1.310  -4.901   0.560  0.00  0.00    -0.032 A 
ATOM      5  C   LIG    1       -1.045  -5.585   1.728  0.00  0.00    +0.054 A 
ATOM      6  C   LIG    1        0.158  -6.265   1.875  0.00  0.00    +0.165 A 
ATOM      7  C   LIG    1        1.098  -6.261   0.850  0.00  0.00    +0.204 A 
ATOM      8  C   LIG    1        0.837  -5.569  -0.326  0.00  0.00    +0.173 A 
ATOM      9  C   LIG    1       -0.373  -4.882  -0.464  0.00  0.00    +0.031 A 
ATOM     10  C   LIG    1       -0.647  -4.109  -1.711  0.00  0.00    -0.009 A 
ATOM     11  C   LIG    1       -0.441  -4.772  -2.909  0.00  0.00    +0.013 A 
ATOM     12  C   LIG    1       -0.637  -4.433  -4.171  0.00  0.00    +0.055 A 
ATOM     13  C   LIG    1       -1.130  -3.246  -4.686  0.00  0.00    +0.220 A 
ATOM     14  O   LIG    1       -1.258  -3.168  -5.900  0.00  0.00    -0.284 OA
ATOM     15  C   LIG    1       -1.490  -2.135  -3.930  0.00  0.00    +0.164 A 
ATOM     16  C   LIG    1       -1.446  -1.975  -2.599  0.00  0.00    +0.055 A 
ATOM     17  C   LIG    1       -1.076  -2.801  -1.572  0.00  0.00    -0.016 A 
ENDROOT
BRANCH   1  20
ATOM     18  C   LIG    1       -0.025   1.429  -0.480  0.00  0.00    +0.109 C 
ATOM     19  C   LIG    1       -0.011  -0.075  -0.382  0.00  0.00    +0.210 C 
ATOM     20  N   LIG    1       -1.169  -0.755  -0.271  0.00  0.00    -0.309 N 
ATOM     21  H   LIG    1       -2.013  -0.276  -0.253  0.00  0.00    +0.149 HD
ATOM     22  O   LIG    1        1.044  -0.674  -0.403  0.00  0.00    -0.276 OA
ENDBRANCH   1  20
BRANCH   6  23
ATOM     23  O   LIG    1        0.418  -6.937   3.028  0.00  0.00    -0.491 OA
ATOM     24  C   LIG    1       -0.589  -6.901   4.041  0.00  0.00    +0.277 C 
ENDBRANCH   6  23
BRANCH   7  25
ATOM     25  O   LIG    1        2.272  -6.933   0.999  0.00  0.00    -0.488 OA
ATOM     26  C   LIG    1        2.294  -8.299   0.581  0.00  0.00    +0.277 C 
ENDBRANCH   7  25
BRANCH   8  27
ATOM     27  O   LIG    1        1.750  -5.560  -1.333  0.00  0.00    -0.491 OA
ATOM     28  C   LIG    1        2.790  -4.583  -1.257  0.00  0.00    +0.277 C 
ENDBRANCH   8  27
BRANCH  15  29
ATOM     29  O   LIG    1       -1.947  -1.071  -4.634  0.00  0.00    -0.503 OA
ATOM     30  H   LIG    1       -1.969  -1.212  -5.591  0.00  0.00    +0.292 HD
ENDBRANCH  15  29
TORSDOF 5
