REMARK  Name = ZINC02035977
REMARK                            x       y       z     vdW  Elec       q    Type
REMARK                         _______ _______ _______ _____ _____    ______ ____
ROOT
ATOM      1  C   LIG    1        1.171   2.086   0.002  0.00  0.00    -0.047 A 
ATOM      2  C   LIG    1       -0.017   1.378   0.010  0.00  0.00    +0.005 A 
ATOM      3  C   LIG    1        0.002  -0.004   0.002  0.00  0.00    +0.022 A 
ATOM      4  C   LIG    1        1.209  -0.679  -0.013  0.00  0.00    +0.059 A 
ATOM      5 CL   LIG    1        1.234  -2.415  -0.023  0.00  0.00    -0.082 Cl
ATOM      6  C   LIG    1        2.398   0.030  -0.021  0.00  0.00    +0.059 A 
ATOM      7 CL   LIG    1        3.914  -0.816  -0.040  0.00  0.00    -0.082 Cl
ATOM      8  C   LIG    1        2.378   1.413  -0.013  0.00  0.00    +0.025 A 
ENDROOT
BRANCH   1   9
ATOM      9  C   LIG    1        1.149   3.593   0.010  0.00  0.00    +0.019 C 
BRANCH   9  11
ATOM     10  C   LIG    1        1.258   5.622   1.463  0.00  0.00    -0.014 C 
ATOM     11  C   LIG    1        1.155   4.096   1.455  0.00  0.00    -0.074 C 
BRANCH  11  12
ATOM     12  N   LIG    1       -0.086   3.660   2.120  0.00  0.00    +0.380 N 
ATOM     13  H   LIG    1       -0.120   2.634   2.133  0.00  0.00    -0.090 HD
ATOM     14  H   LIG    1       -0.896   4.013   1.613  0.00  0.00    -0.090 HD
ATOM     15  H   LIG    1       -0.109   4.006   3.078  0.00  0.00    -0.090 HD
ENDBRANCH  11  12
ENDBRANCH   9  11
ENDBRANCH   1   9
TORSDOF 3
