REMARK  Name = ZINC01729576
REMARK                            x       y       z     vdW  Elec       q    Type
REMARK                         _______ _______ _______ _____ _____    ______ ____
ROOT
ATOM      1  C   LIG    1       -4.420   7.490   4.510  0.00  0.00    +0.123 A 
ATOM      2  C   LIG    1       -4.485   8.863   4.592  0.00  0.00    +0.055 A 
ATOM      3  C   LIG    1       -3.856   9.650   3.614  0.00  0.00    +0.006 A 
ATOM      4  C   LIG    1       -3.903  11.056   3.668  0.00  0.00    +0.011 A 
ATOM      5  C   LIG    1       -3.269  11.761   2.685  0.00  0.00    +0.020 A 
ATOM      6  C   LIG    1       -2.600  11.084   1.667  0.00  0.00    +0.111 A 
ATOM      7  N   LIG    1       -2.558   9.775   1.621  0.00  0.00    -0.253 NA
ATOM      8  C   LIG    1       -3.158   9.027   2.551  0.00  0.00    +0.092 A 
ATOM      9  C   LIG    1       -3.107   7.616   2.492  0.00  0.00    +0.057 A 
ATOM     10  C   LIG    1       -3.739   6.870   3.461  0.00  0.00    +0.070 A 
ENDROOT
BRANCH   1  12
ATOM     11  C   LIG    1       -5.716   7.424   6.502  0.00  0.00    +0.277 C 
ATOM     12  O   LIG    1       -5.030   6.731   5.458  0.00  0.00    -0.495 OA
ENDBRANCH   1  12
BRANCH   9  13
ATOM     13  N   LIG    1       -2.425   6.983   1.454  0.00  0.00    -0.342 N 
ATOM     14  H   LIG    1       -1.985   7.511   0.770  0.00  0.00    +0.146 HD
BRANCH  13  15
ATOM     15  C   LIG    1       -2.375   5.520   1.396  0.00  0.00    +0.100 C 
BRANCH  15  16
ATOM     16  C   LIG    1       -1.571   5.086   0.168  0.00  0.00    +0.003 C 
BRANCH  16  17
ATOM     17  C   LIG    1       -1.519   3.558   0.108  0.00  0.00    -0.070 C 
ATOM     18  N   LIG    1       -0.765   3.055   1.272  0.00  0.00    +0.381 N 
ATOM     19  H   LIG    1        0.196   3.416   1.235  0.00  0.00    -0.086 HD
ATOM     20  H   LIG    1       -1.219   3.379   2.134  0.00  0.00    -0.086 HD
ATOM     21  C   LIG    1       -0.731   1.580   1.266  0.00  0.00    -0.082 C 
ATOM     22  C   LIG    1       -0.013   1.086   0.008  0.00  0.00    -0.019 C 
ATOM     23  C   LIG    1       -0.755   1.594  -1.231  0.00  0.00    -0.003 C 
ATOM     24  C   LIG    1       -0.823   3.123  -1.184  0.00  0.00    -0.016 C 
ENDBRANCH  16  17
ENDBRANCH  15  16
ENDBRANCH  13  15
ENDBRANCH   9  13
TORSDOF 5
