REMARK  Name = ZINC02033589
REMARK                            x       y       z     vdW  Elec       q    Type
REMARK                         _______ _______ _______ _____ _____    ______ ____
ROOT
ATOM      1  C   LIG    1        2.403   0.379  -4.230  0.00  0.00    +0.246 C 
ATOM      2  C   LIG    1        1.403   0.542  -5.383  0.00  0.00    +0.244 C 
ATOM      3  O   LIG    1        2.023   1.326  -6.407  0.00  0.00    -0.479 OA
ATOM      4  C   LIG    1        3.296   0.987  -6.751  0.00  0.00    +0.163 A 
ATOM      5  C   LIG    1        3.822   1.444  -7.950  0.00  0.00    +0.050 A 
ATOM      6  C   LIG    1        5.114   1.110  -8.311  0.00  0.00    +0.011 A 
ATOM      7  C   LIG    1        5.885   0.321  -7.478  0.00  0.00    -0.001 A 
ATOM      8  C   LIG    1        5.366  -0.138  -6.283  0.00  0.00    +0.056 A 
ATOM      9  C   LIG    1        4.070   0.191  -5.915  0.00  0.00    +0.163 A 
ATOM     10  O   LIG    1        3.571  -0.275  -4.737  0.00  0.00    -0.477 OA
ENDROOT
BRANCH   7  11
ATOM     11  C   LIG    1        7.293  -0.039  -7.875  0.00  0.00    +0.240 C 
ATOM     12  C   LIG    1        8.249   1.086  -7.453  0.00  0.00    +0.230 C 
ATOM     13  C   LIG    1        9.641   0.687  -7.907  0.00  0.00    +0.202 C 
ATOM     14  C   LIG    1        9.745   0.052  -9.225  0.00  0.00    +0.103 A 
ATOM     15  C   LIG    1       10.995  -0.119  -9.841  0.00  0.00    +0.134 A 
ATOM     16  C   LIG    1       11.066  -0.732 -11.079  0.00  0.00    +0.091 A 
ATOM     17  C   LIG    1        9.906  -1.170 -11.707  0.00  0.00    +0.124 A 
ATOM     18  C   LIG    1        8.667  -0.998 -11.105  0.00  0.00    +0.092 A 
ATOM     19  C   LIG    1        8.572  -0.386  -9.867  0.00  0.00    +0.139 A 
ATOM     20  O   LIG    1       10.619   0.883  -7.214  0.00  0.00    -0.289 OA
ATOM     21  O   LIG    1        7.360  -0.210  -9.291  0.00  0.00    -0.480 OA
BRANCH  12  22
ATOM     22  O   LIG    1        8.223   1.238  -6.032  0.00  0.00    -0.380 OA
ATOM     23  H   LIG    1        8.806   1.934  -5.700  0.00  0.00    +0.211 HD
ENDBRANCH  12  22
BRANCH  15  24
ATOM     24  O   LIG    1       12.125   0.312  -9.226  0.00  0.00    -0.506 OA
ATOM     25  H   LIG    1       12.538  -0.349  -8.654  0.00  0.00    +0.292 HD
ENDBRANCH  15  24
BRANCH  17  26
ATOM     26  O   LIG    1        9.986  -1.773 -12.919  0.00  0.00    -0.507 OA
ATOM     27  H   LIG    1       10.092  -2.733 -12.876  0.00  0.00    +0.292 HD
ENDBRANCH  17  26
ENDBRANCH   7  11
BRANCH   1  30
ATOM     28  C   LIG    1        0.606  -0.608  -1.056  0.00  0.00    +0.162 A 
ATOM     29  C   LIG    1        1.173   0.159  -2.062  0.00  0.00    +0.056 A 
ATOM     30  C   LIG    1        1.787  -0.456  -3.137  0.00  0.00    -0.000 A 
ATOM     31  C   LIG    1        1.837  -1.836  -3.212  0.00  0.00    +0.011 A 
ATOM     32  C   LIG    1        1.273  -2.606  -2.212  0.00  0.00    +0.049 A 
ATOM     33  C   LIG    1        0.662  -1.996  -1.129  0.00  0.00    +0.158 A 
BRANCH  28  35
ATOM     34  C   LIG    1       -0.017   1.425   0.010  0.00  0.00    +0.277 C 
ATOM     35  O   LIG    1        0.002  -0.004   0.002  0.00  0.00    -0.491 OA
ENDBRANCH  28  35
BRANCH  33  36
ATOM     36  O   LIG    1        0.112  -2.753  -0.142  0.00  0.00    -0.503 OA
ATOM     37  H   LIG    1       -0.816  -2.979  -0.291  0.00  0.00    +0.292 HD
ENDBRANCH  33  36
ENDBRANCH   1  30
BRANCH   2  38
ATOM     38  C   LIG    1        0.145   1.252  -4.878  0.00  0.00    +0.204 C 
BRANCH  38  39
ATOM     39  O   LIG    1       -0.828   1.297  -5.924  0.00  0.00    -0.391 OA
ATOM     40  H   LIG    1       -1.654   1.734  -5.674  0.00  0.00    +0.210 HD
ENDBRANCH  38  39
ENDBRANCH   2  38
TORSDOF 9
