REMARK  Name = ZINC01766166
REMARK                            x       y       z     vdW  Elec       q    Type
REMARK                         _______ _______ _______ _____ _____    ______ ____
ROOT
ATOM      1  C   LIG    1       -2.410  -2.516  -1.326  0.00  0.00    +0.130 A 
ATOM      2  C   LIG    1       -2.452  -3.421  -2.415  0.00  0.00    +0.041 A 
ATOM      3  C   LIG    1       -1.400  -3.532  -3.331  0.00  0.00    +0.028 A 
ATOM      4  C   LIG    1       -1.497  -4.423  -4.361  0.00  0.00    +0.019 A 
ATOM      5 BR   LIG    1       -0.077  -4.574  -5.600  0.00  0.00    -0.050 Br
ATOM      6  C   LIG    1       -2.629  -5.221  -4.511  0.00  0.00    +0.017 A 
ATOM      7  C   LIG    1       -3.670  -5.137  -3.635  0.00  0.00    +0.029 A 
ATOM      8  C   LIG    1       -3.603  -4.233  -2.566  0.00  0.00    +0.076 A 
ATOM      9  N   LIG    1       -4.599  -4.111  -1.676  0.00  0.00    -0.235 NA
ATOM     10  C   LIG    1       -4.505  -3.255  -0.686  0.00  0.00    +0.223 A 
ATOM     11  N   LIG    1       -3.448  -2.480  -0.502  0.00  0.00    -0.220 NA
ENDROOT
BRANCH   1  12
ATOM     12  N   LIG    1       -1.318  -1.700  -1.126  0.00  0.00    -0.325 N 
ATOM     13  H   LIG    1       -0.566  -1.737  -1.737  0.00  0.00    +0.148 HD
BRANCH  12  14
ATOM     14  C   LIG    1       -1.293  -0.775   0.010  0.00  0.00    +0.130 C 
BRANCH  14  16
ATOM     15  C   LIG    1       -0.016   1.306   0.009  0.00  0.00    +0.005 C 
ATOM     16  C   LIG    1        0.002  -0.004   0.002  0.00  0.00    -0.016 C 
ENDBRANCH  14  16
ENDBRANCH  12  14
ENDBRANCH   1  12
TORSDOF 3
