REMARK  Name = ZINC01671505
REMARK                            x       y       z     vdW  Elec       q    Type
REMARK                         _______ _______ _______ _____ _____    ______ ____
ROOT
ATOM      1  C   LIG    1       -0.419  -2.125  -0.009  0.00  0.00    +0.117 C 
ENDROOT
BRANCH   1   2
ATOM      2  C   LIG    1       -1.746  -2.825  -0.157  0.00  0.00    -0.026 A 
ATOM      3  C   LIG    1       -2.916  -2.161   0.162  0.00  0.00    +0.005 A 
ATOM      4  C   LIG    1       -4.133  -2.803   0.027  0.00  0.00    +0.000 A 
ATOM      5  C   LIG    1       -4.180  -4.107  -0.428  0.00  0.00    +0.000 A 
ATOM      6  C   LIG    1       -3.010  -4.770  -0.748  0.00  0.00    +0.000 A 
ATOM      7  C   LIG    1       -1.793  -4.128  -0.616  0.00  0.00    +0.005 A 
ENDBRANCH   1   2
BRANCH   1   8
ATOM      8  C   LIG    1        0.384  -2.795   1.076  0.00  0.00    -0.026 A 
ATOM      9  C   LIG    1       -0.199  -3.768   1.867  0.00  0.00    +0.005 A 
ATOM     10  C   LIG    1        0.537  -4.382   2.863  0.00  0.00    +0.000 A 
ATOM     11  C   LIG    1        1.857  -4.024   3.067  0.00  0.00    +0.000 A 
ATOM     12  C   LIG    1        2.440  -3.052   2.276  0.00  0.00    +0.000 A 
ATOM     13  C   LIG    1        1.705  -2.441   1.278  0.00  0.00    +0.005 A 
ENDBRANCH   1   8
BRANCH   1  14
ATOM     14  C   LIG    1        0.336  -2.200  -1.311  0.00  0.00    +0.322 C 
ATOM     15  O   LIG    1        1.415  -2.742  -1.353  0.00  0.00    -0.249 OA
BRANCH  14  16
ATOM     16  O   LIG    1       -0.190  -1.665  -2.424  0.00  0.00    -0.466 OA
BRANCH  16  17
ATOM     17  C   LIG    1        0.580  -1.773  -3.623  0.00  0.00    +0.214 C 
BRANCH  17  18
ATOM     18  C   LIG    1       -0.176  -1.111  -4.776  0.00  0.00    -0.037 C 
BRANCH  18  19
ATOM     19  N   LIG    1       -0.296   0.331  -4.519  0.00  0.00    +0.382 N 
ATOM     20  H   LIG    1       -0.728   0.477  -3.619  0.00  0.00    -0.082 HD
BRANCH  19  21
ATOM     21  C   LIG    1       -1.124   0.947  -5.565  0.00  0.00    -0.082 C 
ATOM     22  C   LIG    1       -2.555   0.416  -5.461  0.00  0.00    -0.017 C 
ENDBRANCH  19  21
BRANCH  19  23
ATOM     23  C   LIG    1        1.039   0.943  -4.528  0.00  0.00    -0.082 C 
ATOM     24  C   LIG    1        0.929   2.412  -4.117  0.00  0.00    -0.017 C 
ENDBRANCH  19  23
ENDBRANCH  18  19
ENDBRANCH  17  18
ENDBRANCH  16  17
ENDBRANCH  14  16
ENDBRANCH   1  14
BRANCH   1  25
ATOM     25  C   LIG    1       -0.653  -0.659   0.361  0.00  0.00    +0.027 C 
BRANCH  25  27
ATOM     26  C   LIG    1        0.443   1.561   0.691  0.00  0.00    +0.004 C 
ATOM     27  C   LIG    1        0.683   0.085   0.368  0.00  0.00    -0.002 C 
ENDBRANCH  25  27
ENDBRANCH   1  25
TORSDOF 11
