REMARK  Name = ZINC01999286
REMARK                            x       y       z     vdW  Elec       q    Type
REMARK                         _______ _______ _______ _____ _____    ______ ____
ROOT
ATOM      1  N   LIG    1       -0.782   0.610   2.308  0.00  0.00    -0.286 N 
ATOM      2  C   LIG    1       -1.754  -0.314   2.554  0.00  0.00    +0.203 A 
ATOM      3  N   LIG    1       -1.425  -1.042   3.581  0.00  0.00    -0.231 NA
ATOM      4  C   LIG    1       -0.225  -0.634   4.058  0.00  0.00    +0.147 A 
ATOM      5  C   LIG    1        0.607  -1.035   5.117  0.00  0.00    +0.147 A 
ATOM      6  N   LIG    1        1.754  -0.390   5.301  0.00  0.00    -0.219 NA
ATOM      7  C   LIG    1        2.113   0.606   4.512  0.00  0.00    +0.225 A 
ATOM      8  N   LIG    1        1.367   1.016   3.508  0.00  0.00    -0.216 NA
ATOM      9  C   LIG    1        0.205   0.428   3.243  0.00  0.00    +0.167 A 
ENDROOT
BRANCH   1  14
ATOM     10  C   LIG    1       -3.260   2.224  -1.372  0.00  0.00    +0.041 C 
ATOM     11  C   LIG    1       -1.979   2.408  -0.556  0.00  0.00    +0.149 C 
ATOM     12  C   LIG    1       -0.811   1.623  -1.201  0.00  0.00    +0.176 C 
ATOM     13  C   LIG    1       -0.013   1.086   0.008  0.00  0.00    +0.195 C 
ATOM     14  C   LIG    1       -0.788   1.610   1.237  0.00  0.00    +0.253 C 
ATOM     15  O   LIG    1       -2.133   1.830   0.759  0.00  0.00    -0.348 OA
BRANCH  12  16
ATOM     16  O   LIG    1        0.002   2.491  -1.992  0.00  0.00    -0.387 OA
ATOM     17  H   LIG    1       -0.450   2.858  -2.765  0.00  0.00    +0.210 HD
ENDBRANCH  12  16
BRANCH  13  18
ATOM     18  O   LIG    1        1.319   1.603  -0.002  0.00  0.00    -0.385 OA
ATOM     19  H   LIG    1        1.842   1.330  -0.768  0.00  0.00    +0.210 HD
ENDBRANCH  13  18
ENDBRANCH   1  14
BRANCH   5  20
ATOM     20  N   LIG    1        0.239  -2.078   5.949  0.00  0.00    -0.341 N 
ATOM     21  H   LIG    1        0.821  -2.346   6.677  0.00  0.00    +0.144 HD
ATOM     22  H   LIG    1       -0.625  -1.855   6.401  0.00  0.00    +0.144 HD
ENDBRANCH   5  20
TORSDOF 4
