REMARK  Name = ZINC01886491
REMARK                            x       y       z     vdW  Elec       q    Type
REMARK                         _______ _______ _______ _____ _____    ______ ____
ROOT
ATOM      1  CA  PHE A  1       -2.945   0.711   1.462  0.00  0.00    +0.143 C 
ENDROOT
BRANCH   1   3
ATOM      2  C   UNK A  0       -1.829  -0.153   3.448  0.00  0.00    +0.401 C 
ATOM      3  N   PHE A  1       -1.968  -0.170   2.108  0.00  0.00    -0.271 N 
ATOM      4  H   PHE A  1       -1.422  -0.765   1.571  0.00  0.00    +0.153 HD
ATOM      5  O   UNK A  0       -2.513   0.592   4.121  0.00  0.00    -0.226 OA
BRANCH   2   6
ATOM      6  O   UNK A  0       -0.931  -0.963   4.042  0.00  0.00    -0.445 OA
BRANCH   6   8
ATOM      7  C   UNK A  0       -2.186  -1.252   6.108  0.00  0.00    +0.055 C 
ATOM      8  C   UNK A  0       -0.835  -0.892   5.489  0.00  0.00    +0.107 C 
ATOM      9  C   UNK A  0       -0.446   0.528   5.905  0.00  0.00    +0.055 C 
ATOM     10  C   UNK A  0        0.230  -1.876   5.978  0.00  0.00    +0.055 C 
ENDBRANCH   6   8
ENDBRANCH   2   6
ENDBRANCH   1   3
BRANCH   1  11
ATOM     11  C   PHE A  1       -4.299   0.049   1.467  0.00  0.00    +0.245 C 
ATOM     12  O   PHE A  1       -4.434  -1.046   1.959  0.00  0.00    -0.299 OA
ENDBRANCH   1  11
BRANCH   1  13
ATOM     13  CB  PHE A  1       -2.514   0.980   0.019  0.00  0.00    +0.065 C 
BRANCH  13  14
ATOM     14  CG  PHE A  1       -1.219   1.751   0.017  0.00  0.00    -0.045 A 
ATOM     15  CD2 PHE A  1       -0.013   1.076   0.008  0.00  0.00    +0.004 A 
ATOM     16  CE2 PHE A  1        1.175   1.783   0.000  0.00  0.00    +0.000 A 
ATOM     17  CZ  PHE A  1        1.156   3.165   0.008  0.00  0.00    +0.000 A 
ATOM     18  CE1 PHE A  1       -0.050   3.840   0.022  0.00  0.00    +0.000 A 
ATOM     19  CD1 PHE A  1       -1.238   3.133   0.030  0.00  0.00    +0.004 A 
ENDBRANCH  13  14
ENDBRANCH   1  13
TORSDOF 6
