REMARK  Name = ZINC01727348
REMARK                            x       y       z     vdW  Elec       q    Type
REMARK                         _______ _______ _______ _____ _____    ______ ____
ROOT
ATOM      1  C   LIG    1       -0.112   5.253   0.030  0.00  0.00    +0.006 A 
ATOM      2  C   LIG    1       -0.095   3.849   0.023  0.00  0.00    -0.011 A 
ATOM      3  C   LIG    1       -1.288   3.105   0.030  0.00  0.00    +0.009 A 
ATOM      4  C   LIG    1       -1.235   1.746   0.017  0.00  0.00    +0.001 A 
ATOM      5  C   LIG    1       -0.013   1.076   0.008  0.00  0.00    +0.001 A 
ATOM      6  C   LIG    1        1.163   1.762   0.000  0.00  0.00    +0.008 A 
ATOM      7  C   LIG    1        1.148   3.167   0.008  0.00  0.00    -0.017 A 
ATOM      8  C   LIG    1        2.342   3.909   0.001  0.00  0.00    +0.012 A 
ATOM      9  C   LIG    1        2.292   5.268   0.009  0.00  0.00    +0.046 A 
ATOM     10  C   LIG    1        1.067   5.942   0.023  0.00  0.00    +0.121 A 
ENDROOT
BRANCH  10  11
ATOM     11  O   LIG    1        1.050   7.301   0.030  0.00  0.00    -0.506 OA
ATOM     12  H   LIG    1        1.053   7.690   0.916  0.00  0.00    +0.292 HD
ENDBRANCH  10  11
BRANCH   1  13
ATOM     13  C   LIG    1       -1.423   5.995   0.046  0.00  0.00    +0.074 C 
BRANCH  13  17
ATOM     14  C   LIG    1       -2.627   6.675   4.088  0.00  0.00    +0.000 A 
ATOM     15  C   LIG    1       -1.843   7.607   3.434  0.00  0.00    +0.000 A 
ATOM     16  C   LIG    1       -1.453   7.387   2.126  0.00  0.00    +0.004 A 
ATOM     17  C   LIG    1       -1.848   6.235   1.472  0.00  0.00    -0.043 A 
ATOM     18  C   LIG    1       -2.637   5.306   2.124  0.00  0.00    +0.004 A 
ATOM     19  C   LIG    1       -3.022   5.523   3.433  0.00  0.00    +0.000 A 
ENDBRANCH  13  17
ENDBRANCH   1  13
TORSDOF 3
