REMARK  Name = ZINC01698904
REMARK                            x       y       z     vdW  Elec       q    Type
REMARK                         _______ _______ _______ _____ _____    ______ ____
ROOT
ATOM      1  C   LIG    1        1.177   2.086   0.002  0.00  0.00    +0.121 A 
ATOM      2  C   LIG    1       -0.017   1.373   0.010  0.00  0.00    +0.046 A 
ATOM      3  C   LIG    1        0.002  -0.004   0.002  0.00  0.00    +0.018 A 
ATOM      4  C   LIG    1        1.223  -0.684  -0.013  0.00  0.00    +0.059 A 
ATOM      5  C   LIG    1        2.421   0.037  -0.021  0.00  0.00    +0.018 A 
ATOM      6  C   LIG    1        2.393   1.413  -0.013  0.00  0.00    +0.046 A 
ENDROOT
BRANCH   4   7
ATOM      7  C   LIG    1        1.248  -2.159  -0.021  0.00  0.00    +0.337 C 
ATOM      8  O   LIG    1        0.206  -2.784  -0.014  0.00  0.00    -0.245 OA
BRANCH   7   9
ATOM      9  O   LIG    1        2.426  -2.813  -0.036  0.00  0.00    -0.477 OA
ATOM     10  H   LIG    1        3.229  -2.331  -0.041  0.00  0.00    +0.295 HD
ENDBRANCH   7   9
ENDBRANCH   4   7
BRANCH   1  11
ATOM     11  O   LIG    1        1.154   3.443   0.010  0.00  0.00    -0.492 OA
BRANCH  11  12
ATOM     12  C   LIG    1        2.416   4.113   0.001  0.00  0.00    +0.229 C 
BRANCH  12  13
ATOM     13  C   LIG    1        2.190   5.626   0.011  0.00  0.00    +0.041 C 
BRANCH  13  14
ATOM     14  C   LIG    1        3.541   6.343   0.002  0.00  0.00    +0.003 C 
BRANCH  14  15
ATOM     15  C   LIG    1        3.315   7.857   0.013  0.00  0.00    +0.000 C 
BRANCH  15  16
ATOM     16  C   LIG    1        4.667   8.574   0.004  0.00  0.00    -0.000 C 
BRANCH  16  18
ATOM     17  C   LIG    1        5.792  10.805   0.005  0.00  0.00    +0.004 C 
ATOM     18  C   LIG    1        4.441  10.087   0.014  0.00  0.00    -0.003 C 
ENDBRANCH  16  18
ENDBRANCH  15  16
ENDBRANCH  14  15
ENDBRANCH  13  14
ENDBRANCH  12  13
ENDBRANCH  11  12
ENDBRANCH   1  11
TORSDOF 9
