REMARK  Name = ZINC01714192
REMARK                            x       y       z     vdW  Elec       q    Type
REMARK                         _______ _______ _______ _____ _____    ______ ____
ROOT
ATOM      1  C   LIG    1        1.251   1.968   0.001  0.00  0.00    +0.144 C 
ATOM      2  C   LIG    1        1.252   3.308   0.007  0.00  0.00    +0.082 C 
ATOM      3  C   LIG    1       -0.014   4.066   0.023  0.00  0.00    +0.189 C 
ATOM      4  C   LIG    1       -1.303   3.342   0.032  0.00  0.00    +0.033 A 
ATOM      5  C   LIG    1       -2.509   4.032   0.046  0.00  0.00    +0.012 A 
ATOM      6  C   LIG    1       -3.704   3.330   0.037  0.00  0.00    +0.001 A 
ATOM      7  C   LIG    1       -3.705   1.948   0.030  0.00  0.00    +0.001 A 
ATOM      8  C   LIG    1       -2.510   1.245   0.021  0.00  0.00    +0.012 A 
ATOM      9  C   LIG    1       -1.303   1.935   0.019  0.00  0.00    +0.034 A 
ATOM     10  O   LIG    1        0.003   5.281   0.028  0.00  0.00    -0.287 OA
ATOM     11  C   LIG    1       -0.014   1.211   0.009  0.00  0.00    +0.212 C 
ATOM     12  O   LIG    1        0.002  -0.004   0.002  0.00  0.00    -0.285 OA
ENDROOT
BRANCH   1  13
ATOM     13  S   LIG    1        2.784   1.099  -0.018  0.00  0.00    +0.029 S 
ATOM     14  O   LIG    1        3.809   2.083   0.004  0.00  0.00    -0.164 OA
ATOM     15  O   LIG    1        2.686   0.125  -1.048  0.00  0.00    -0.164 OA
BRANCH  13  20
ATOM     16  C   LIG    1        3.184  -1.926   5.187  0.00  0.00    +0.044 C 
ATOM     17  C   LIG    1        3.084  -1.171   3.887  0.00  0.00    -0.050 A 
ATOM     18  C   LIG    1        2.498  -1.765   2.785  0.00  0.00    +0.005 A 
ATOM     19  C   LIG    1        2.406  -1.072   1.593  0.00  0.00    +0.027 A 
ATOM     20  C   LIG    1        2.901   0.216   1.502  0.00  0.00    +0.094 A 
ATOM     21  C   LIG    1        3.491   0.808   2.602  0.00  0.00    +0.027 A 
ATOM     22  C   LIG    1        3.579   0.117   3.796  0.00  0.00    +0.005 A 
ENDBRANCH  13  20
ENDBRANCH   1  13
TORSDOF 2
