REMARK  Name = ZINC01687323
REMARK                            x       y       z     vdW  Elec       q    Type
REMARK                         _______ _______ _______ _____ _____    ______ ____
ROOT
ATOM      1  N   LIG    1       -1.191   1.867   0.018  0.00  0.00    -0.318 N 
ATOM      2  H   LIG    1       -1.204   2.837   0.023  0.00  0.00    +0.148 HD
ATOM      3  C   LIG    1       -0.014   1.209   0.009  0.00  0.00    +0.325 C 
ATOM      4  O   LIG    1        0.002  -0.004   0.002  0.00  0.00    -0.280 OA
ENDROOT
BRANCH   1   5
ATOM      5  C   LIG    1       -2.449   1.117   0.020  0.00  0.00    +0.103 C 
BRANCH   5   7
ATOM      6  C   LIG    1       -4.940   1.312   0.033  0.00  0.00    +0.005 C 
ATOM      7  C   LIG    1       -3.626   2.095   0.031  0.00  0.00    +0.015 C 
ENDBRANCH   5   7
ENDBRANCH   1   5
TORSDOF 2
