REMARK  Name = ZINC01683675
REMARK                            x       y       z     vdW  Elec       q    Type
REMARK                         _______ _______ _______ _____ _____    ______ ____
ROOT
ATOM      1  C   LIG    1       -0.018   1.470   0.015  0.00  0.00    +0.025 A 
ATOM      2  C   LIG    1       -1.236   2.157   0.001  0.00  0.00    +0.012 A 
ATOM      3  C   LIG    1       -1.246   3.536   0.018  0.00  0.00    +0.001 A 
ATOM      4  C   LIG    1       -0.054   4.240   0.038  0.00  0.00    +0.000 A 
ATOM      5  C   LIG    1        1.156   3.567   0.046  0.00  0.00    +0.001 A 
ATOM      6  C   LIG    1        1.183   2.189   0.035  0.00  0.00    +0.012 A 
ENDROOT
BRANCH   1   7
ATOM      7  C   LIG    1        0.002  -0.004   0.002  0.00  0.00    +0.228 C 
ATOM      8  O   LIG    1        1.056  -0.596  -0.107  0.00  0.00    -0.284 OA
BRANCH   7  10
ATOM      9  C   LIG    1       -1.242  -2.270   0.228  0.00  0.00    +0.095 C 
ATOM     10  C   LIG    1       -1.271  -0.767   0.122  0.00  0.00    +0.200 C 
ATOM     11  O   LIG    1       -2.327  -0.180   0.136  0.00  0.00    -0.289 OA
ENDBRANCH   7  10
ENDBRANCH   1   7
TORSDOF 2
