REMARK  Name = ZINC01915469
REMARK                            x       y       z     vdW  Elec       q    Type
REMARK                         _______ _______ _______ _____ _____    ______ ____
ROOT
ATOM      1  N   LIG    1        4.227   2.223   1.332  0.00  0.00    -0.213 N 
ATOM      2  C   LIG    1        3.897   3.113   2.293  0.00  0.00    +0.310 C 
ATOM      3  C   LIG    1        4.726   2.740   3.485  0.00  0.00    +0.310 C 
ATOM      4  N   LIG    1        5.455   1.671   3.096  0.00  0.00    -0.207 N 
ATOM      5  O   LIG    1        4.740   3.283   4.570  0.00  0.00    -0.264 OA
ATOM      6  O   LIG    1        3.098   4.021   2.209  0.00  0.00    -0.264 OA
ATOM      7  C   LIG    1        5.145   1.374   1.824  0.00  0.00    +0.319 C 
ATOM      8  O   LIG    1        5.635   0.457   1.196  0.00  0.00    -0.252 OA
ENDROOT
BRANCH   1   9
ATOM      9  C   LIG    1        3.671   2.185  -0.023  0.00  0.00    +0.155 C 
BRANCH   9  12
ATOM     10  C   LIG    1        1.736  -1.010  -0.567  0.00  0.00    +0.020 A 
ATOM     11  C   LIG    1        2.773  -0.097  -0.520  0.00  0.00    +0.008 A 
ATOM     12  C   LIG    1        2.541   1.190  -0.074  0.00  0.00    -0.011 A 
ATOM     13  C   LIG    1        1.270   1.566   0.325  0.00  0.00    +0.047 A 
ATOM     14 CL   LIG    1        0.979   3.183   0.886  0.00  0.00    -0.083 Cl
ATOM     15  C   LIG    1        0.232   0.653   0.278  0.00  0.00    +0.040 A 
ATOM     16  C   LIG    1        0.466  -0.636  -0.168  0.00  0.00    +0.042 A 
ATOM     17 CL   LIG    1       -0.836  -1.783  -0.227  0.00  0.00    -0.083 Cl
ENDBRANCH   9  12
ENDBRANCH   1   9
BRANCH   4  18
ATOM     18  C   LIG    1        6.421   0.950   3.928  0.00  0.00    +0.238 C 
BRANCH  18  19
ATOM     19  C   LIG    1        5.720  -0.165   4.661  0.00  0.00    +0.323 C 
ATOM     20  O   LIG    1        4.524  -0.341   4.503  0.00  0.00    -0.249 OA
BRANCH  19  21
ATOM     21  O   LIG    1        6.348  -0.891   5.412  0.00  0.00    -0.480 OA
ATOM     22  H   LIG    1        7.268  -0.756   5.533  0.00  0.00    +0.295 HD
ENDBRANCH  19  21
ENDBRANCH  18  19
ENDBRANCH   4  18
TORSDOF 5
