REMARK  Name = ZINC02361761
REMARK                            x       y       z     vdW  Elec       q    Type
REMARK                         _______ _______ _______ _____ _____    ______ ____
ROOT
ATOM      1  C   LIG    1        1.845  -4.617  -3.413  0.00  0.00    +0.165 A 
ATOM      2  C   LIG    1        1.792  -6.027  -3.533  0.00  0.00    +0.179 A 
ATOM      3  N   LIG    1        2.284  -6.623  -4.599  0.00  0.00    -0.226 NA
ATOM      4  C   LIG    1        2.839  -5.891  -5.576  0.00  0.00    +0.091 A 
ATOM      5  C   LIG    1        3.370  -6.504  -6.722  0.00  0.00    +0.030 A 
ATOM      6  C   LIG    1        3.927  -5.739  -7.702  0.00  0.00    +0.002 A 
ATOM      7  C   LIG    1        3.980  -4.353  -7.583  0.00  0.00    +0.002 A 
ATOM      8  C   LIG    1        3.475  -3.725  -6.485  0.00  0.00    +0.030 A 
ATOM      9  C   LIG    1        2.892  -4.482  -5.456  0.00  0.00    +0.091 A 
ATOM     10  N   LIG    1        2.382  -3.886  -4.368  0.00  0.00    -0.227 NA
ENDROOT
BRANCH   1  11
ATOM     11  N   LIG    1        1.322  -4.001  -2.285  0.00  0.00    -0.296 N 
ATOM     12  H   LIG    1        0.996  -4.538  -1.546  0.00  0.00    +0.154 HD
BRANCH  11  15
ATOM     13  C   LIG    1        0.994  -0.476  -3.292  0.00  0.00    +0.125 A 
ATOM     14  C   LIG    1        1.051  -1.860  -3.364  0.00  0.00    +0.069 A 
ATOM     15  C   LIG    1        1.266  -2.607  -2.213  0.00  0.00    +0.039 A 
ATOM     16  C   LIG    1        1.424  -1.967  -0.991  0.00  0.00    +0.069 A 
ATOM     17  C   LIG    1        1.367  -0.584  -0.920  0.00  0.00    +0.125 A 
ATOM     18  C   LIG    1        1.157   0.162  -2.071  0.00  0.00    +0.091 A 
BRANCH  13  20
ATOM     19  C   LIG    1        0.744   1.675  -4.271  0.00  0.00    +0.277 C 
ATOM     20  O   LIG    1        0.784   0.255  -4.418  0.00  0.00    -0.495 OA
ENDBRANCH  13  20
BRANCH  17  21
ATOM     21  O   LIG    1        1.521   0.043   0.276  0.00  0.00    -0.495 OA
ATOM     22  C   LIG    1        1.451   1.470   0.275  0.00  0.00    +0.277 C 
ENDBRANCH  17  21
ENDBRANCH  11  15
ENDBRANCH   1  11
BRANCH   2  23
ATOM     23  N   LIG    1        1.219  -6.783  -2.523  0.00  0.00    -0.197 N 
ATOM     24  H   LIG    1        0.850  -6.340  -1.725  0.00  0.00    +0.175 HD
BRANCH  23  25
ATOM     25  S   LIG    1        1.154  -8.432  -2.658  0.00  0.00    +0.074 S 
ATOM     26  O   LIG    1        2.497  -8.896  -2.619  0.00  0.00    -0.150 OA
ATOM     27  O   LIG    1        0.282  -8.717  -3.743  0.00  0.00    -0.150 OA
BRANCH  25  28
ATOM     28  C   LIG    1        0.368  -9.044  -1.205  0.00  0.00    +0.109 A 
ATOM     29  C   LIG    1        1.124  -9.364  -0.093  0.00  0.00    +0.031 A 
ATOM     30  C   LIG    1        0.508  -9.844   1.048  0.00  0.00    +0.040 A 
ATOM     31  C   LIG    1       -0.867 -10.003   1.076  0.00  0.00    +0.124 A 
ATOM     32  F   LIG    1       -1.470 -10.472   2.191  0.00  0.00    -0.205 F 
ATOM     33  C   LIG    1       -1.623  -9.682  -0.038  0.00  0.00    +0.040 A 
ATOM     34  C   LIG    1       -1.006  -9.198  -1.176  0.00  0.00    +0.031 A 
ENDBRANCH  25  28
ENDBRANCH  23  25
ENDBRANCH   2  23
TORSDOF 7
