REMARK  Name = ZINC01914818
REMARK                            x       y       z     vdW  Elec       q    Type
REMARK                         _______ _______ _______ _____ _____    ______ ____
ROOT
ATOM      1  C   LIG    1       -0.106   0.262   0.129  0.00  0.00    +0.037 A 
ATOM      2  C   LIG    1        1.285   0.729   0.096  0.00  0.00    +0.017 A 
ATOM      3  C   LIG    1        1.886   1.986   0.202  0.00  0.00    +0.056 A 
ATOM      4  C   LIG    1        3.260   2.093   0.129  0.00  0.00    +0.122 A 
ATOM      5  C   LIG    1        4.045   0.956  -0.050  0.00  0.00    +0.048 A 
ATOM      6  C   LIG    1        3.463  -0.287  -0.155  0.00  0.00    +0.030 A 
ATOM      7  C   LIG    1        2.080  -0.417  -0.084  0.00  0.00    +0.051 A 
ATOM      8  N   LIG    1        1.228  -1.498  -0.155  0.00  0.00    -0.338 N 
ATOM      9  C   LIG    1       -0.075  -1.075  -0.026  0.00  0.00    +0.035 A 
ENDROOT
BRANCH   1  10
ATOM     10  S   LIG    1       -1.542   1.262   0.333  0.00  0.00    -0.117 S 
BRANCH  10  12
ATOM     11  C   LIG    1       -2.299   0.441  -2.164  0.00  0.00    +0.022 C 
ATOM     12  C   LIG    1       -2.009   1.711  -1.362  0.00  0.00    +0.013 C 
ATOM     13  C   LIG    1       -0.862   2.479  -2.020  0.00  0.00    +0.022 C 
ATOM     14  C   LIG    1       -3.260   2.591  -1.330  0.00  0.00    +0.022 C 
ENDBRANCH  10  12
ENDBRANCH   1  10
BRANCH   4  15
ATOM     15  O   LIG    1        3.851   3.314   0.232  0.00  0.00    -0.486 OA
BRANCH  15  16
ATOM     16  C   LIG    1        5.277   3.354   0.148  0.00  0.00    +0.284 C 
BRANCH  16  17
ATOM     17  C   LIG    1        5.748   4.779   0.281  0.00  0.00    +0.079 A 
ATOM     18  C   LIG    1        4.806   5.791   0.456  0.00  0.00    +0.027 A 
ATOM     19  C   LIG    1        5.215   7.089   0.579  0.00  0.00    +0.012 A 
ATOM     20  C   LIG    1        6.595   7.358   0.525  0.00  0.00    +0.000 A 
ATOM     21  C   LIG    1        7.090   8.667   0.644  0.00  0.00    +0.010 A 
ATOM     22  C   LIG    1        8.432   8.886   0.587  0.00  0.00    +0.001 A 
ATOM     23  C   LIG    1        9.323   7.829   0.411  0.00  0.00    +0.002 A 
ATOM     24  C   LIG    1        8.878   6.549   0.290  0.00  0.00    +0.028 A 
ATOM     25  C   LIG    1        7.499   6.282   0.345  0.00  0.00    +0.071 A 
ATOM     26  N   LIG    1        7.033   5.033   0.236  0.00  0.00    -0.248 NA
ENDBRANCH  16  17
ENDBRANCH  15  16
ENDBRANCH   4  15
BRANCH   8  27
ATOM     27  C   LIG    1        1.647  -2.890  -0.341  0.00  0.00    +0.157 C 
BRANCH  27  28
ATOM     28  C   LIG    1        2.021  -3.484   0.993  0.00  0.00    -0.028 A 
ATOM     29  C   LIG    1        3.047  -2.927   1.734  0.00  0.00    +0.007 A 
ATOM     30  C   LIG    1        3.387  -3.468   2.959  0.00  0.00    +0.020 A 
ATOM     31  C   LIG    1        2.708  -4.574   3.439  0.00  0.00    +0.041 A 
ATOM     32 CL   LIG    1        3.139  -5.258   4.975  0.00  0.00    -0.084 Cl
ATOM     33  C   LIG    1        1.686  -5.134   2.694  0.00  0.00    +0.020 A 
ATOM     34  C   LIG    1        1.343  -4.589   1.472  0.00  0.00    +0.007 A 
ENDBRANCH  27  28
ENDBRANCH   8  27
BRANCH   9  35
ATOM     35  C   LIG    1       -1.286  -1.972  -0.054  0.00  0.00    +0.072 C 
BRANCH  35  36
ATOM     36  C   LIG    1       -1.732  -2.271   1.379  0.00  0.00    +0.067 C 
ATOM     37  C   LIG    1       -2.096  -0.962   2.083  0.00  0.00    +0.023 C 
ATOM     38  C   LIG    1       -0.593  -2.957   2.135  0.00  0.00    +0.023 C 
BRANCH  36  39
ATOM     39  C   LIG    1       -2.935  -3.178   1.351  0.00  0.00    +0.311 C 
ATOM     40  O   LIG    1       -3.389  -3.548   0.294  0.00  0.00    -0.250 OA
BRANCH  39  41
ATOM     41  O   LIG    1       -3.503  -3.575   2.501  0.00  0.00    -0.480 OA
ATOM     42  H   LIG    1       -3.151  -3.289   3.320  0.00  0.00    +0.295 HD
ENDBRANCH  39  41
ENDBRANCH  36  39
ENDBRANCH  35  36
ENDBRANCH   9  35
TORSDOF 11
