REMARK  Name = ZINC02189412
REMARK                            x       y       z     vdW  Elec       q    Type
REMARK                         _______ _______ _______ _____ _____    ______ ____
ROOT
ATOM      1  C   LIG    1       -0.675  -4.370  -1.036  0.00  0.00    +0.136 A 
ATOM      2  N   LIG    1        0.474  -5.006  -1.037  0.00  0.00    -0.233 NA
ATOM      3  C   LIG    1        0.558  -6.352  -0.946  0.00  0.00    +0.080 A 
ATOM      4  C   LIG    1        1.723  -7.154  -0.932  0.00  0.00    +0.031 A 
ATOM      5  C   LIG    1        1.640  -8.508  -0.840  0.00  0.00    +0.025 A 
ATOM      6  C   LIG    1        0.411  -9.158  -0.757  0.00  0.00    +0.035 A 
ATOM      7  C   LIG    1       -0.756  -8.404  -0.768  0.00  0.00    +0.040 A 
ATOM      8  C   LIG    1       -0.674  -7.038  -0.860  0.00  0.00    +0.042 A 
ATOM      9  S   LIG    1       -1.852  -5.709  -0.909  0.00  0.00    -0.061 S 
ENDROOT
BRANCH   6  10
ATOM     10  N   LIG    1        0.352 -10.554  -0.663  0.00  0.00    -0.281 N 
ATOM     11  H   LIG    1        1.052 -11.039  -0.197  0.00  0.00    +0.155 HD
ATOM     12  C   LIG    1       -0.675 -11.225  -1.221  0.00  0.00    +0.248 C 
ATOM     13  O   LIG    1       -1.500 -10.629  -1.886  0.00  0.00    -0.270 OA
BRANCH  12  14
ATOM     14  C   LIG    1       -0.800 -12.684  -1.023  0.00  0.00    +0.037 A 
ATOM     15  C   LIG    1        0.148 -13.372  -0.264  0.00  0.00    +0.013 A 
ATOM     16  C   LIG    1        0.024 -14.733  -0.080  0.00  0.00    +0.005 A 
ATOM     17  C   LIG    1       -1.033 -15.419  -0.653  0.00  0.00    -0.042 A 
ATOM     18  C   LIG    1       -1.973 -14.744  -1.411  0.00  0.00    +0.005 A 
ATOM     19  C   LIG    1       -1.863 -13.381  -1.599  0.00  0.00    +0.013 A 
BRANCH  17  20
ATOM     20  C   LIG    1       -1.159 -16.907  -0.452  0.00  0.00    -0.013 C 
ATOM     21  C   LIG    1       -2.487 -17.216   0.243  0.00  0.00    +0.015 C 
ATOM     22  C   LIG    1       -0.002 -17.404   0.416  0.00  0.00    +0.015 C 
ATOM     23  C   LIG    1       -1.118 -17.611  -1.809  0.00  0.00    +0.015 C 
ENDBRANCH  17  20
ENDBRANCH  12  14
ENDBRANCH   6  10
BRANCH   1  24
ATOM     24  S   LIG    1       -0.980  -2.637  -1.141  0.00  0.00    -0.084 S 
BRANCH  24  25
ATOM     25  C   LIG    1        0.721  -2.025  -1.236  0.00  0.00    +0.161 C 
BRANCH  25  26
ATOM     26  C   LIG    1        1.356  -2.503  -2.516  0.00  0.00    +0.318 C 
ATOM     27  O   LIG    1        2.231  -3.335  -2.482  0.00  0.00    -0.250 OA
BRANCH  26  28
ATOM     28  O   LIG    1        0.949  -2.005  -3.694  0.00  0.00    -0.480 OA
ATOM     29  H   LIG    1        0.270  -1.359  -3.721  0.00  0.00    +0.295 HD
ENDBRANCH  26  28
ENDBRANCH  25  26
BRANCH  25  30
ATOM     30  C   LIG    1        0.714  -0.495  -1.211  0.00  0.00    +0.025 C 
BRANCH  30  32
ATOM     31  C   LIG    1        0.176   1.521   0.165  0.00  0.00    +0.004 C 
ATOM     32  C   LIG    1        0.183  -0.009   0.140  0.00  0.00    -0.002 C 
ENDBRANCH  30  32
ENDBRANCH  25  30
ENDBRANCH  24  25
ENDBRANCH   1  24
TORSDOF 9
