REMARK  Name = ZINC02384259
REMARK                            x       y       z     vdW  Elec       q    Type
REMARK                         _______ _______ _______ _____ _____    ______ ____
ROOT
ATOM      1  N   LIG    1        0.017  -0.014   0.026  0.00  0.00    +0.380 N 
ATOM      2  H   LIG    1        0.572  -0.325   0.832  0.00  0.00    -0.082 HD
ATOM      3  C   LIG    1        0.646  -0.520  -1.213  0.00  0.00    -0.071 C 
ATOM      4  C   LIG    1        2.101  -0.048  -1.260  0.00  0.00    +0.002 C 
ATOM      5  C   LIG    1        2.137   1.483  -1.252  0.00  0.00    +0.004 C 
ATOM      6  C   LIG    1        1.417   1.995  -0.001  0.00  0.00    -0.018 C 
ATOM      7  C   LIG    1       -0.018   1.464   0.010  0.00  0.00    -0.079 C 
ENDROOT
BRANCH   4   8
ATOM      8  C   LIG    1        2.755  -0.560  -2.518  0.00  0.00    -0.046 A 
ATOM      9  C   LIG    1        2.249  -0.205  -3.754  0.00  0.00    +0.004 A 
ATOM     10  C   LIG    1        2.849  -0.675  -4.907  0.00  0.00    +0.004 A 
ATOM     11  C   LIG    1        3.956  -1.500  -4.824  0.00  0.00    -0.048 A 
ATOM     12  C   LIG    1        4.610  -2.012  -6.081  0.00  0.00    +0.044 C 
ATOM     13  C   LIG    1        4.462  -1.854  -3.588  0.00  0.00    -0.047 A 
ATOM     14  C   LIG    1        5.668  -2.754  -3.497  0.00  0.00    +0.044 C 
ATOM     15  C   LIG    1        3.865  -1.380  -2.434  0.00  0.00    +0.007 A 
ENDBRANCH   4   8
BRANCH   1  16
ATOM     16  C   LIG    1       -1.354  -0.550   0.152  0.00  0.00    -0.079 C 
BRANCH  16  18
ATOM     17  C   LIG    1       -3.305  -0.769   1.696  0.00  0.00    +0.002 C 
ATOM     18  C   LIG    1       -1.894  -0.201   1.540  0.00  0.00    -0.022 C 
ENDBRANCH  16  18
ENDBRANCH   1  16
TORSDOF 3
