REMARK  Name = ZINC02099787
REMARK                            x       y       z     vdW  Elec       q    Type
REMARK                         _______ _______ _______ _____ _____    ______ ____
ROOT
ATOM      1  N   LIG    1       -1.825   2.379  -1.352  0.00  0.00    -0.260 N 
ATOM      2  C   LIG    1       -1.533   3.459  -2.184  0.00  0.00    +0.048 A 
ATOM      3  C   LIG    1       -0.760   4.594  -1.977  0.00  0.00    +0.025 A 
ATOM      4  C   LIG    1       -0.619   5.532  -2.982  0.00  0.00    +0.017 A 
ATOM      5  C   LIG    1       -1.240   5.354  -4.208  0.00  0.00    +0.019 A 
ATOM      6 BR   LIG    1       -1.034   6.650  -5.569  0.00  0.00    -0.050 Br
ATOM      7  C   LIG    1       -2.009   4.230  -4.436  0.00  0.00    +0.029 A 
ATOM      8  C   LIG    1       -2.157   3.277  -3.429  0.00  0.00    +0.049 A 
ATOM      9  C   LIG    1       -2.890   2.000  -3.350  0.00  0.00    +0.250 C 
ATOM     10  O   LIG    1       -3.566   1.480  -4.214  0.00  0.00    -0.282 OA
ATOM     11  C   LIG    1       -2.619   1.486  -1.968  0.00  0.00    +0.292 C 
ATOM     12  O   LIG    1       -3.040   0.453  -1.491  0.00  0.00    -0.266 OA
ENDROOT
BRANCH   1  13
ATOM     13  C   LIG    1       -1.333   2.239   0.021  0.00  0.00    +0.144 C 
BRANCH  13  15
ATOM     14  C   LIG    1        0.002  -0.004   0.002  0.00  0.00    +0.040 C 
ATOM     15  C   LIG    1       -0.018   1.503   0.010  0.00  0.00    -0.062 C 
ATOM     16  C   LIG    1        1.107   2.173   0.003  0.00  0.00    +0.009 C 
ENDBRANCH  13  15
ENDBRANCH   1  13
TORSDOF 2
