REMARK  Name = ZINC02046959
REMARK                            x       y       z     vdW  Elec       q    Type
REMARK                         _______ _______ _______ _____ _____    ______ ____
ROOT
ATOM      1  C   LIG    1        1.139   5.803   0.005  0.00  0.00    +0.162 A 
ATOM      2  C   LIG    1       -0.055   5.138   0.013  0.00  0.00    +0.062 A 
ATOM      3  C   LIG    1       -0.073   3.748   0.176  0.00  0.00    +0.044 A 
ATOM      4  C   LIG    1        1.144   3.039   0.333  0.00  0.00    +0.080 A 
ATOM      5  N   LIG    1        1.098   1.706   0.489  0.00  0.00    -0.235 NA
ATOM      6  C   LIG    1       -0.053   1.077   0.495  0.00  0.00    +0.223 A 
ATOM      7  N   LIG    1       -1.213   1.696   0.347  0.00  0.00    -0.220 NA
ATOM      8  C   LIG    1        2.355   3.740   0.322  0.00  0.00    +0.078 A 
ATOM      9  C   LIG    1       -1.282   3.012   0.192  0.00  0.00    +0.134 A 
ATOM     10  C   LIG    1        2.346   5.108   0.160  0.00  0.00    +0.164 A 
ENDROOT
BRANCH   1  12
ATOM     11  C   LIG    1       -0.108   7.804  -0.305  0.00  0.00    +0.277 C 
ATOM     12  O   LIG    1        1.155   7.153  -0.153  0.00  0.00    -0.491 OA
ENDBRANCH   1  12
BRANCH   9  13
ATOM     13  N   LIG    1       -2.499   3.645   0.044  0.00  0.00    -0.299 N 
ATOM     14  H   LIG    1       -2.541   4.614   0.008  0.00  0.00    +0.154 HD
BRANCH  13  15
ATOM     15  C   LIG    1       -3.672   2.891  -0.055  0.00  0.00    +0.033 A 
ATOM     16  C   LIG    1       -4.864   3.388   0.460  0.00  0.00    +0.023 A 
ATOM     17  C   LIG    1       -6.024   2.643   0.364  0.00  0.00    +0.003 A 
ATOM     18  C   LIG    1       -6.004   1.403  -0.245  0.00  0.00    +0.015 A 
ATOM     19  C   LIG    1       -4.815   0.900  -0.762  0.00  0.00    +0.009 A 
ATOM     20  C   LIG    1       -3.649   1.649  -0.671  0.00  0.00    +0.038 A 
BRANCH  19  21
ATOM     21  S   LIG    1       -4.791  -0.681  -1.538  0.00  0.00    -0.129 S 
ATOM     22  C   LIG    1       -6.508  -1.253  -1.423  0.00  0.00    +0.090 C 
ENDBRANCH  19  21
ENDBRANCH  13  15
ENDBRANCH   9  13
BRANCH  10  23
ATOM     23  O   LIG    1        3.521   5.791   0.148  0.00  0.00    -0.491 OA
ATOM     24  C   LIG    1        4.717   5.027   0.310  0.00  0.00    +0.277 C 
ENDBRANCH  10  23
TORSDOF 5
