REMARK  Name = ZINC01720410
REMARK                            x       y       z     vdW  Elec       q    Type
REMARK                         _______ _______ _______ _____ _____    ______ ____
ROOT
ATOM      1  C   LIG    1       -6.646   0.698  -1.348  0.00  0.00    +0.203 A 
ATOM      2  C   LIG    1       -5.573   1.585  -1.306  0.00  0.00    +0.180 A 
ATOM      3  N   LIG    1       -4.457   0.809  -1.411  0.00  0.00    -0.237 N 
ATOM      4  N   LIG    1       -4.826  -0.419  -1.511  0.00  0.00    -0.064 NA
ATOM      5  N   LIG    1       -6.106  -0.525  -1.474  0.00  0.00    -0.122 NA
ENDROOT
BRANCH   1   6
ATOM      6  C   LIG    1       -8.084   1.034  -1.272  0.00  0.00    +0.362 C 
ATOM      7  O   LIG    1       -8.432   2.192  -1.159  0.00  0.00    -0.243 OA
BRANCH   6   9
ATOM      8  C   LIG    1      -10.401   0.458  -1.247  0.00  0.00    +0.280 C 
ATOM      9  O   LIG    1       -9.008   0.055  -1.328  0.00  0.00    -0.463 OA
ENDBRANCH   6   9
ENDBRANCH   1   6
BRANCH   2  10
ATOM     10  C   LIG    1       -5.631   3.053  -1.174  0.00  0.00    +0.360 C 
ATOM     11  O   LIG    1       -6.706   3.614  -1.090  0.00  0.00    -0.243 OA
BRANCH  10  12
ATOM     12  O   LIG    1       -4.492   3.773  -1.148  0.00  0.00    -0.463 OA
ATOM     13  C   LIG    1       -4.625   5.213  -1.017  0.00  0.00    +0.280 C 
ENDBRANCH  10  12
ENDBRANCH   2  10
BRANCH   3  14
ATOM     14  C   LIG    1       -3.074   1.292  -1.414  0.00  0.00    +0.151 C 
BRANCH  14  15
ATOM     15  C   LIG    1       -2.545   1.335   0.021  0.00  0.00    +0.060 C 
BRANCH  15  16
ATOM     16  C   LIG    1       -1.122   1.831   0.017  0.00  0.00    -0.021 A 
ATOM     17  C   LIG    1       -0.013   1.076   0.008  0.00  0.00    +0.087 A 
ATOM     18  N   LIG    1        1.097   1.876   0.002  0.00  0.00    -0.360 N 
ATOM     19  C   LIG    1        0.719   3.200   0.012  0.00  0.00    +0.047 A 
ATOM     20  C   LIG    1        1.426   4.398   0.011  0.00  0.00    +0.026 A 
ATOM     21  C   LIG    1        0.744   5.595   0.024  0.00  0.00    +0.002 A 
ATOM     22  C   LIG    1       -0.644   5.620   0.037  0.00  0.00    +0.001 A 
ATOM     23  C   LIG    1       -1.358   4.455   0.038  0.00  0.00    +0.010 A 
ATOM     24  H   LIG    1        2.014   1.559  -0.009  0.00  0.00    +0.165 HD
ATOM     25  C   LIG    1       -0.688   3.230   0.025  0.00  0.00    +0.003 A 
ENDBRANCH  15  16
ENDBRANCH  14  15
ENDBRANCH   3  14
TORSDOF 7
