REMARK  Name = ZINC01713905
REMARK                            x       y       z     vdW  Elec       q    Type
REMARK                         _______ _______ _______ _____ _____    ______ ____
ROOT
ATOM      1  C   LIG    1        3.588   0.793  -0.028  0.00  0.00    +0.129 C 
ATOM      2  N   LIG    1        2.123   0.766  -0.014  0.00  0.00    -0.329 N 
ATOM      3  C   LIG    1        1.355  -0.382  -0.013  0.00  0.00    +0.033 A 
ATOM      4  C   LIG    1        1.684  -1.734  -0.024  0.00  0.00    +0.023 A 
ATOM      5  C   LIG    1        0.689  -2.687  -0.020  0.00  0.00    +0.002 A 
ATOM      6  C   LIG    1       -0.647  -2.312  -0.005  0.00  0.00    +0.000 A 
ATOM      7  C   LIG    1       -0.995  -0.980   0.006  0.00  0.00    +0.006 A 
ATOM      8  C   LIG    1        0.002  -0.004   0.002  0.00  0.00    -0.021 A 
ATOM      9  C   LIG    1       -0.018   1.465   0.010  0.00  0.00    +0.046 C 
ATOM     10  C   LIG    1       -1.079   2.462   0.031  0.00  0.00    +0.015 C 
ATOM     11  C   LIG    1       -2.433   2.099   0.038  0.00  0.00    +0.007 C 
ATOM     12  C   LIG    1       -3.369   3.097   0.053  0.00  0.00    +0.016 C 
ATOM     13  C   LIG    1       -2.961   4.428   0.057  0.00  0.00    +0.084 C 
ATOM     14  N   LIG    1       -1.693   4.761   0.046  0.00  0.00    -0.302 NA
ATOM     15  C   LIG    1       -1.324   6.179   0.052  0.00  0.00    +0.105 C 
ATOM     16  C   LIG    1       -0.730   3.834   0.031  0.00  0.00    +0.060 C 
ATOM     17  C   LIG    1        0.630   4.197   0.020  0.00  0.00    +0.021 C 
ATOM     18  C   LIG    1        1.606   3.257   0.005  0.00  0.00    +0.024 C 
ATOM     19  C   LIG    1        1.313   1.886  -0.000  0.00  0.00    +0.081 C 
ENDROOT
TORSDOF 0
