REMARK  Name = ZINC01700067
REMARK                            x       y       z     vdW  Elec       q    Type
REMARK                         _______ _______ _______ _____ _____    ______ ____
ROOT
ATOM      1  C   LIG    1       -0.018   1.503   0.010  0.00  0.00    +0.044 C 
ATOM      2  C   LIG    1        0.002  -0.004   0.002  0.00  0.00    -0.050 A 
ATOM      3  C   LIG    1        0.006  -0.689  -1.199  0.00  0.00    +0.005 A 
ATOM      4  C   LIG    1        0.025  -2.071  -1.206  0.00  0.00    +0.033 A 
ATOM      5  C   LIG    1        0.040  -2.768  -0.013  0.00  0.00    +0.122 A 
ATOM      6  C   LIG    1        0.037  -2.084   1.188  0.00  0.00    +0.033 A 
ATOM      7  C   LIG    1        0.023  -0.702   1.195  0.00  0.00    +0.005 A 
ENDROOT
BRANCH   5   8
ATOM      8  N   LIG    1        0.059  -4.248  -0.021  0.00  0.00    +0.006 N 
ATOM      9  O   LIG    1        0.061  -4.847  -1.072  0.00  0.00    -0.130 OA
BRANCH   8  10
ATOM     10  O   LIG    1        0.073  -4.859   1.022  0.00  0.00    -0.396 OA
ATOM     11  H   LIG    1        0.071  -4.395   1.836  0.00  0.00    +0.329 HD
ENDBRANCH   8  10
ENDBRANCH   5   8
TORSDOF 2
