REMARK  Name = ZINC02059637
REMARK                            x       y       z     vdW  Elec       q    Type
REMARK                         _______ _______ _______ _____ _____    ______ ____
ROOT
ATOM      1  N   LIG    1       -2.427   1.041   0.020  0.00  0.00    -0.244 N 
ATOM      2  C   LIG    1       -3.693   1.766   0.141  0.00  0.00    +0.198 C 
ATOM      3  N   LIG    1       -4.673   0.958   0.875  0.00  0.00    -0.321 N 
ATOM      4  H   LIG    1       -5.235   1.362   1.556  0.00  0.00    +0.148 HD
ATOM      5  C   LIG    1       -4.784  -0.396   0.578  0.00  0.00    +0.041 A 
ATOM      6  C   LIG    1       -5.973  -1.084   0.746  0.00  0.00    +0.024 A 
ATOM      7  C   LIG    1       -6.032  -2.432   0.446  0.00  0.00    +0.002 A 
ATOM      8  C   LIG    1       -4.911  -3.099  -0.023  0.00  0.00    +0.001 A 
ATOM      9  C   LIG    1       -3.719  -2.427  -0.200  0.00  0.00    +0.015 A 
ATOM     10  C   LIG    1       -3.647  -1.067   0.096  0.00  0.00    +0.058 A 
ATOM     11  C   LIG    1       -2.401  -0.302  -0.095  0.00  0.00    +0.254 C 
ATOM     12  O   LIG    1       -1.360  -0.876  -0.350  0.00  0.00    -0.270 OA
ENDROOT
BRANCH   1  16
ATOM     13  C   LIG    1        1.153   3.170   0.011  0.00  0.00    -0.044 A 
ATOM     14  C   LIG    1        0.829   2.360  -1.063  0.00  0.00    +0.006 A 
ATOM     15  C   LIG    1       -0.355   1.650  -1.061  0.00  0.00    +0.024 A 
ATOM     16  C   LIG    1       -1.224   1.755   0.017  0.00  0.00    +0.039 A 
ATOM     17  C   LIG    1       -0.893   2.564   1.096  0.00  0.00    +0.024 A 
ATOM     18  C   LIG    1        0.293   3.272   1.088  0.00  0.00    +0.006 A 
BRANCH  13  19
ATOM     19  C   LIG    1        2.446   3.944   0.005  0.00  0.00    +0.016 C 
ATOM     20  C   LIG    1        2.146   5.441   0.099  0.00  0.00    +0.012 C 
BRANCH  19  22
ATOM     21  C   LIG    1        4.662   4.211   1.128  0.00  0.00    +0.004 C 
ATOM     22  C   LIG    1        3.300   3.519   1.202  0.00  0.00    +0.004 C 
ENDBRANCH  19  22
ENDBRANCH  13  19
ENDBRANCH   1  16
BRANCH   2  23
ATOM     23  C   LIG    1       -4.229   2.066  -1.235  0.00  0.00    -0.009 A 
ATOM     24  C   LIG    1       -3.357   2.257  -2.291  0.00  0.00    +0.007 A 
ATOM     25  C   LIG    1       -3.849   2.528  -3.554  0.00  0.00    +0.004 A 
ATOM     26  C   LIG    1       -5.213   2.618  -3.759  0.00  0.00    -0.045 A 
ATOM     27  C   LIG    1       -6.085   2.432  -2.703  0.00  0.00    +0.004 A 
ATOM     28  C   LIG    1       -5.593   2.156  -1.441  0.00  0.00    +0.007 A 
BRANCH  26  29
ATOM     29  C   LIG    1       -5.750   2.918  -5.135  0.00  0.00    +0.013 C 
ATOM     30  C   LIG    1       -5.300   1.825  -6.107  0.00  0.00    +0.012 C 
ATOM     31  C   LIG    1       -5.215   4.272  -5.607  0.00  0.00    +0.012 C 
ENDBRANCH  26  29
ENDBRANCH   2  23
TORSDOF 5
