REMARK  Name = ZINC02022074
REMARK                            x       y       z     vdW  Elec       q    Type
REMARK                         _______ _______ _______ _____ _____    ______ ____
ROOT
ATOM      1  C   LIG    1       -0.017   1.378   0.010  0.00  0.00    +0.000 A 
ATOM      2  C   LIG    1        1.171   2.086   0.002  0.00  0.00    +0.000 A 
ATOM      3  C   LIG    1        2.377   1.411  -0.013  0.00  0.00    +0.004 A 
ATOM      4  C   LIG    1        2.396   0.029  -0.020  0.00  0.00    -0.046 A 
ATOM      5  C   LIG    1        1.208  -0.679  -0.012  0.00  0.00    +0.004 A 
ATOM      6  C   LIG    1        0.002  -0.004   0.002  0.00  0.00    +0.000 A 
ENDROOT
BRANCH   4   7
ATOM      7  C   LIG    1        3.711  -0.707  -0.038  0.00  0.00    +0.059 C 
BRANCH   7   8
ATOM      8  C   LIG    1        4.171  -0.963   1.399  0.00  0.00    +0.157 C 
BRANCH   8   9
ATOM      9  N   LIG    1        5.450  -1.678   1.382  0.00  0.00    -0.234 NA
ATOM     10  C   LIG    1        6.459  -1.168   1.915  0.00  0.00    +0.036 C 
ATOM     11  S   LIG    1        7.712  -0.534   2.578  0.00  0.00    +0.020 S 
ENDBRANCH   8   9
ENDBRANCH   7   8
ENDBRANCH   4   7
TORSDOF 3
