REMARK  Name = ZINC02189411
REMARK                            x       y       z     vdW  Elec       q    Type
REMARK                         _______ _______ _______ _____ _____    ______ ____
ROOT
ATOM      1  C   LIG    1       -2.412   0.813  -1.304  0.00  0.00    +0.136 A 
ATOM      2  N   LIG    1       -2.777  -0.020  -0.356  0.00  0.00    -0.233 NA
ATOM      3  C   LIG    1       -3.996  -0.604  -0.333  0.00  0.00    +0.080 A 
ATOM      4  C   LIG    1       -4.512  -1.508   0.624  0.00  0.00    +0.031 A 
ATOM      5  C   LIG    1       -5.767  -2.016   0.501  0.00  0.00    +0.025 A 
ATOM      6  C   LIG    1       -6.592  -1.670  -0.567  0.00  0.00    +0.035 A 
ATOM      7  C   LIG    1       -6.120  -0.785  -1.528  0.00  0.00    +0.040 A 
ATOM      8  C   LIG    1       -4.854  -0.270  -1.406  0.00  0.00    +0.042 A 
ATOM      9  S   LIG    1       -3.857   0.854  -2.354  0.00  0.00    -0.061 S 
ENDROOT
BRANCH   6  10
ATOM     10  N   LIG    1       -7.881  -2.208  -0.670  0.00  0.00    -0.281 N 
ATOM     11  H   LIG    1       -8.052  -3.118  -0.379  0.00  0.00    +0.155 HD
ATOM     12  C   LIG    1       -8.884  -1.462  -1.174  0.00  0.00    +0.248 C 
ATOM     13  O   LIG    1       -8.654  -0.354  -1.617  0.00  0.00    -0.270 OA
BRANCH  12  14
ATOM     14  C   LIG    1      -10.264  -1.992  -1.188  0.00  0.00    +0.037 A 
ATOM     15  C   LIG    1      -10.530  -3.267  -0.685  0.00  0.00    +0.013 A 
ATOM     16  C   LIG    1      -11.822  -3.753  -0.696  0.00  0.00    +0.005 A 
ATOM     17  C   LIG    1      -12.849  -2.984  -1.214  0.00  0.00    -0.042 A 
ATOM     18  C   LIG    1      -12.591  -1.723  -1.719  0.00  0.00    +0.005 A 
ATOM     19  C   LIG    1      -11.305  -1.222  -1.709  0.00  0.00    +0.013 A 
BRANCH  17  20
ATOM     20  C   LIG    1      -14.256  -3.524  -1.227  0.00  0.00    -0.013 C 
ATOM     21  C   LIG    1      -15.163  -2.603  -0.409  0.00  0.00    +0.015 C 
ATOM     22  C   LIG    1      -14.270  -4.927  -0.617  0.00  0.00    +0.015 C 
ATOM     23  C   LIG    1      -14.763  -3.590  -2.669  0.00  0.00    +0.015 C 
ENDBRANCH  17  20
ENDBRANCH  12  14
ENDBRANCH   6  10
BRANCH   1  24
ATOM     24  S   LIG    1       -0.882   1.667  -1.496  0.00  0.00    -0.084 S 
BRANCH  24  25
ATOM     25  C   LIG    1       -0.004   1.072  -0.030  0.00  0.00    +0.161 C 
BRANCH  25  26
ATOM     26  C   LIG    1       -0.704   1.565   1.210  0.00  0.00    +0.318 C 
ATOM     27  O   LIG    1       -1.301   0.787   1.917  0.00  0.00    -0.250 OA
BRANCH  26  28
ATOM     28  O   LIG    1       -0.666   2.868   1.530  0.00  0.00    -0.480 OA
ATOM     29  H   LIG    1       -0.204   3.471   0.982  0.00  0.00    +0.295 HD
ENDBRANCH  26  28
ENDBRANCH  25  26
BRANCH  25  30
ATOM     30  C   LIG    1        1.433   1.599  -0.047  0.00  0.00    +0.025 C 
BRANCH  30  32
ATOM     31  C   LIG    1        3.618   1.525  -1.256  0.00  0.00    +0.004 C 
ATOM     32  C   LIG    1        2.181   0.999  -1.239  0.00  0.00    -0.002 C 
ENDBRANCH  30  32
ENDBRANCH  25  30
ENDBRANCH  24  25
ENDBRANCH   1  24
TORSDOF 9
