REMARK  Name = ZINC02153450
REMARK                            x       y       z     vdW  Elec       q    Type
REMARK                         _______ _______ _______ _____ _____    ______ ____
ROOT
ATOM      1  C   LIG    1       -0.017   1.367   0.010  0.00  0.00    +0.018 A 
ATOM      2  C   LIG    1        1.183   2.045   0.002  0.00  0.00    +0.037 A 
ATOM      3  C   LIG    1        2.342   1.338  -0.013  0.00  0.00    +0.143 A 
ATOM      4  S   LIG    1        1.754  -0.348  -0.017  0.00  0.00    -0.068 S 
ATOM      5  C   LIG    1        0.002  -0.004   0.002  0.00  0.00    +0.028 A 
ENDROOT
BRANCH   5   6
ATOM      6  C   LIG    1       -1.129  -0.948   0.008  0.00  0.00    +0.028 A 
ATOM      7  C   LIG    1       -1.110  -2.319   0.006  0.00  0.00    +0.018 A 
ATOM      8  C   LIG    1       -2.310  -2.996   0.013  0.00  0.00    +0.037 A 
ATOM      9  C   LIG    1       -3.469  -2.289   0.022  0.00  0.00    +0.143 A 
ATOM     10  S   LIG    1       -2.881  -0.604   0.028  0.00  0.00    -0.068 S 
BRANCH   9  11
ATOM     11  S   LIG    1       -5.128  -2.883   0.031  0.00  0.00    +0.067 S 
ATOM     12  O   LIG    1       -5.094  -4.192  -0.522  0.00  0.00    -0.152 OA
ATOM     13  O   LIG    1       -5.933  -1.847  -0.513  0.00  0.00    -0.152 OA
BRANCH  11  14
ATOM     14  N   LIG    1       -5.579  -3.051   1.616  0.00  0.00    -0.172 NA
ATOM     15  C   LIG    1       -5.354  -4.313   2.338  0.00  0.00    +0.137 C 
ATOM     16  C   LIG    1       -4.648  -3.995   3.661  0.00  0.00    +0.177 C 
ATOM     17  O   LIG    1       -5.385  -2.987   4.357  0.00  0.00    -0.377 OA
ATOM     18  C   LIG    1       -5.467  -1.739   3.666  0.00  0.00    +0.177 C 
ATOM     19  C   LIG    1       -6.210  -1.940   2.345  0.00  0.00    +0.137 C 
ENDBRANCH  11  14
ENDBRANCH   9  11
ENDBRANCH   5   6
BRANCH   3  20
ATOM     20  S   LIG    1        4.001   1.932  -0.026  0.00  0.00    +0.067 S 
ATOM     21  O   LIG    1        3.958   3.244  -0.570  0.00  0.00    -0.152 OA
ATOM     22  O   LIG    1        4.798   0.899  -0.590  0.00  0.00    -0.152 OA
BRANCH  20  23
ATOM     23  N   LIG    1        4.478   2.089   1.552  0.00  0.00    -0.172 NA
ATOM     24  C   LIG    1        4.265   3.346   2.286  0.00  0.00    +0.137 C 
ATOM     25  C   LIG    1        3.580   3.019   3.618  0.00  0.00    +0.177 C 
ATOM     26  O   LIG    1        4.328   2.007   4.296  0.00  0.00    -0.377 OA
ATOM     27  C   LIG    1        4.399   0.763   3.595  0.00  0.00    +0.177 C 
ATOM     28  C   LIG    1        5.120   0.973   2.264  0.00  0.00    +0.137 C 
ENDBRANCH  20  23
ENDBRANCH   3  20
TORSDOF 5
