REMARK  Name = ZINC02028562
REMARK                            x       y       z     vdW  Elec       q    Type
REMARK                         _______ _______ _______ _____ _____    ______ ____
ROOT
ATOM      1  C   LIG    1        4.643   0.651   0.016  0.00  0.00    +0.074 A 
ATOM      2  C   LIG    1        3.926  -0.530   0.107  0.00  0.00    +0.097 A 
ATOM      3  N   LIG    1        2.622  -0.226   0.017  0.00  0.00    -0.227 NA
ATOM      4  C   LIG    1        2.482   1.072  -0.135  0.00  0.00    +0.139 A 
ATOM      5  N   LIG    1        3.716   1.657  -0.137  0.00  0.00    -0.337 N 
ATOM      6  H   LIG    1        3.910   2.633  -0.233  0.00  0.00    +0.167 HD
ENDROOT
BRANCH   4   7
ATOM      7  C   LIG    1        1.195   1.785  -0.274  0.00  0.00    +0.017 A 
ATOM      8  C   LIG    1       -0.006   1.074  -0.256  0.00  0.00    +0.012 A 
ATOM      9  C   LIG    1       -1.203   1.745  -0.392  0.00  0.00    +0.016 A 
ATOM     10  C   LIG    1       -1.216   3.122  -0.536  0.00  0.00    +0.018 A 
ATOM     11 BR   LIG    1       -2.863   4.034  -0.715  0.00  0.00    -0.050 Br
ATOM     12  C   LIG    1       -0.028   3.833  -0.554  0.00  0.00    +0.016 A 
ATOM     13  C   LIG    1        1.176   3.173  -0.424  0.00  0.00    +0.012 A 
ENDBRANCH   4   7
BRANCH   1  17
ATOM     14  C   LIG    1        8.863   1.085   0.174  0.00  0.00    +0.000 A 
ATOM     15  C   LIG    1        8.057   1.911   0.937  0.00  0.00    +0.001 A 
ATOM     16  C   LIG    1        6.685   1.776   0.890  0.00  0.00    +0.010 A 
ATOM     17  C   LIG    1        6.110   0.802   0.070  0.00  0.00    +0.000 A 
ATOM     18  C   LIG    1        6.930  -0.032  -0.693  0.00  0.00    +0.010 A 
ATOM     19  C   LIG    1        8.300   0.118  -0.641  0.00  0.00    +0.001 A 
ENDBRANCH   1  17
BRANCH   2  20
ATOM     20  C   LIG    1        4.497  -1.887   0.280  0.00  0.00    +0.002 A 
ATOM     21  C   LIG    1        3.976  -2.962  -0.439  0.00  0.00    +0.010 A 
ATOM     22  C   LIG    1        4.516  -4.222  -0.278  0.00  0.00    +0.001 A 
ATOM     23  C   LIG    1        5.563  -4.421   0.604  0.00  0.00    +0.000 A 
ATOM     24  C   LIG    1        6.079  -3.360   1.325  0.00  0.00    +0.001 A 
ATOM     25  C   LIG    1        5.552  -2.094   1.168  0.00  0.00    +0.010 A 
ENDBRANCH   2  20
TORSDOF 3
