REMARK  Name = ZINC01686937
REMARK                            x       y       z     vdW  Elec       q    Type
REMARK                         _______ _______ _______ _____ _____    ______ ____
ROOT
ATOM      1  C   LIG    1        1.210  -0.678  -0.011  0.00  0.00    +0.001 A 
ATOM      2  C   LIG    1        2.407   0.017  -0.016  0.00  0.00    +0.001 A 
ATOM      3  C   LIG    1        2.411   1.399  -0.010  0.00  0.00    +0.012 A 
ATOM      4  C   LIG    1        1.202   2.092   0.002  0.00  0.00    +0.033 A 
ATOM      5  C   LIG    1       -0.017   1.387   0.010  0.00  0.00    -0.006 A 
ATOM      6  C   LIG    1       -1.304   2.116   0.032  0.00  0.00    -0.006 A 
ATOM      7  C   LIG    1       -2.489   1.440   0.299  0.00  0.00    +0.011 A 
ATOM      8  C   LIG    1       -3.689   2.128   0.315  0.00  0.00    +0.033 A 
ATOM      9  C   LIG    1       -3.725   3.489   0.064  0.00  0.00    +0.122 A 
ATOM     10  C   LIG    1       -2.560   4.180  -0.209  0.00  0.00    +0.045 A 
ATOM     11  C   LIG    1       -1.344   3.500  -0.229  0.00  0.00    +0.035 A 
ATOM     12  C   LIG    1       -0.082   4.214  -0.518  0.00  0.00    +0.234 C 
ATOM     13  O   LIG    1       -0.060   5.257  -1.138  0.00  0.00    -0.283 OA
ATOM     14  C   LIG    1        1.178   3.571   0.005  0.00  0.00    +0.234 C 
ATOM     15  O   LIG    1        2.116   4.228   0.406  0.00  0.00    -0.283 OA
ATOM     16  C   LIG    1        0.002  -0.004   0.002  0.00  0.00    +0.009 A 
ENDROOT
BRANCH   9  17
ATOM     17  N   LIG    1       -5.019   4.208   0.086  0.00  0.00    +0.006 N 
ATOM     18  O   LIG    1       -5.055   5.405  -0.135  0.00  0.00    -0.130 OA
BRANCH  17  19
ATOM     19  O   LIG    1       -6.048   3.602   0.326  0.00  0.00    -0.396 OA
ATOM     20  H   LIG    1       -6.021   2.681   0.496  0.00  0.00    +0.329 HD
ENDBRANCH  17  19
ENDBRANCH   9  17
TORSDOF 2
