REMARK  Name = ZINC01846448
REMARK                            x       y       z     vdW  Elec       q    Type
REMARK                         _______ _______ _______ _____ _____    ______ ____
ROOT
ATOM      1  S   LIG    1        3.896   2.308  -0.023  0.00  0.00    -0.085 S 
ENDROOT
BRANCH   1   4
ATOM      2  C   LIG    1        0.010   1.427   0.522  0.00  0.00    +0.034 A 
ATOM      3  C   LIG    1        1.191   2.121   0.348  0.00  0.00    +0.019 A 
ATOM      4  C   LIG    1        2.387   1.427   0.200  0.00  0.00    +0.043 A 
ATOM      5  C   LIG    1        2.389   0.038   0.229  0.00  0.00    +0.137 A 
ATOM      6  C   LIG    1        1.204  -0.649   0.404  0.00  0.00    +0.066 A 
ATOM      7  C   LIG    1        0.016   0.044   0.550  0.00  0.00    +0.124 A 
BRANCH   5   8
ATOM      8  N   LIG    1        3.659  -0.705   0.071  0.00  0.00    +0.007 N 
ATOM      9  O   LIG    1        3.660  -1.913   0.096  0.00  0.00    -0.130 OA
BRANCH   8  10
ATOM     10  O   LIG    1        4.697  -0.102  -0.082  0.00  0.00    -0.396 OA
ATOM     11  H   LIG    1        4.696   0.834  -0.101  0.00  0.00    +0.329 HD
ENDBRANCH   8  10
ENDBRANCH   5   8
BRANCH   7  12
ATOM     12  N   LIG    1       -1.252  -0.696   0.738  0.00  0.00    +0.006 N 
ATOM     13  O   LIG    1       -2.292  -0.091   0.867  0.00  0.00    -0.130 OA
BRANCH  12  14
ATOM     14  O   LIG    1       -1.249  -1.904   0.763  0.00  0.00    -0.396 OA
ATOM     15  H   LIG    1       -0.444  -2.373   0.663  0.00  0.00    +0.329 HD
ENDBRANCH  12  14
ENDBRANCH   7  12
ENDBRANCH   1   4
BRANCH   1  16
ATOM     16  C   LIG    1        3.392   3.991  -0.159  0.00  0.00    +0.043 A 
ATOM     17  C   LIG    1        3.547   4.854   0.919  0.00  0.00    +0.019 A 
ATOM     18  C   LIG    1        3.151   6.172   0.809  0.00  0.00    +0.034 A 
ATOM     19  C   LIG    1        2.599   6.634  -0.372  0.00  0.00    +0.124 A 
ATOM     20  C   LIG    1        2.443   5.778  -1.447  0.00  0.00    +0.066 A 
ATOM     21  C   LIG    1        2.843   4.460  -1.347  0.00  0.00    +0.137 A 
BRANCH  19  22
ATOM     22  N   LIG    1        2.175   8.047  -0.486  0.00  0.00    +0.006 N 
ATOM     23  O   LIG    1        2.311   8.797   0.453  0.00  0.00    -0.130 OA
BRANCH  22  24
ATOM     24  O   LIG    1        1.693   8.453  -1.518  0.00  0.00    -0.396 OA
ATOM     25  H   LIG    1        1.588   7.872  -2.245  0.00  0.00    +0.329 HD
ENDBRANCH  22  24
ENDBRANCH  19  22
BRANCH  21  26
ATOM     26  N   LIG    1        2.682   3.547  -2.500  0.00  0.00    +0.007 N 
ATOM     27  O   LIG    1        2.205   3.955  -3.533  0.00  0.00    -0.130 OA
BRANCH  26  28
ATOM     28  O   LIG    1        3.028   2.392  -2.409  0.00  0.00    -0.396 OA
ATOM     29  H   LIG    1        3.398   2.075  -1.609  0.00  0.00    +0.329 HD
ENDBRANCH  26  28
ENDBRANCH  21  26
ENDBRANCH   1  16
TORSDOF 10
