REMARK  Name = ZINC02043206
REMARK                            x       y       z     vdW  Elec       q    Type
REMARK                         _______ _______ _______ _____ _____    ______ ____
ROOT
ATOM      1  S   LIG    1        2.007  -4.018  -2.476  0.00  0.00    +0.059 S 
ATOM      2  O   LIG    1        2.574  -4.143  -1.179  0.00  0.00    -0.153 OA
ATOM      3  O   LIG    1        2.759  -4.242  -3.661  0.00  0.00    -0.153 OA
ENDROOT
BRANCH   1   4
ATOM      4  C   LIG    1        0.635  -5.122  -2.535  0.00  0.00    +0.113 A 
ATOM      5  C   LIG    1        0.342  -5.910  -1.463  0.00  0.00    +0.029 A 
ATOM      6  C   LIG    1       -0.740  -6.788  -1.492  0.00  0.00    +0.003 A 
ATOM      7  C   LIG    1       -1.537  -6.886  -2.592  0.00  0.00    +0.010 A 
ATOM      8  C   LIG    1       -1.266  -6.090  -3.715  0.00  0.00    +0.002 A 
ATOM      9  C   LIG    1       -2.052  -6.147  -4.878  0.00  0.00    +0.119 A 
ATOM     10  N   LIG    1       -1.768  -5.372  -5.898  0.00  0.00    -0.263 NA
ATOM     11  C   LIG    1       -0.745  -4.528  -5.896  0.00  0.00    +0.111 A 
ATOM     12  C   LIG    1        0.080  -4.402  -4.820  0.00  0.00    +0.030 A 
ATOM     13  C   LIG    1       -0.167  -5.192  -3.683  0.00  0.00    +0.011 A 
ENDBRANCH   1   4
BRANCH   1  14
ATOM     14  N   LIG    1        1.403  -2.480  -2.583  0.00  0.00    -0.192 NA
ATOM     15  H   LIG    1        1.616  -1.928  -3.351  0.00  0.00    +0.148 HD
BRANCH  14  16
ATOM     16  C   LIG    1        0.547  -1.954  -1.517  0.00  0.00    +0.087 C 
BRANCH  16  17
ATOM     17  C   LIG    1        0.444  -0.433  -1.650  0.00  0.00    -0.066 C 
BRANCH  17  19
ATOM     18  C   LIG    1       -0.513   1.555  -0.708  0.00  0.00    -0.100 C 
ATOM     19  N   LIG    1       -0.414   0.095  -0.581  0.00  0.00    +0.378 N 
ATOM     20  H   LIG    1       -1.334  -0.312  -0.656  0.00  0.00    -0.086 HD
ATOM     21  H   LIG    1       -0.015  -0.138   0.317  0.00  0.00    -0.086 HD
ENDBRANCH  17  19
ENDBRANCH  16  17
ENDBRANCH  14  16
ENDBRANCH   1  14
TORSDOF 5
