REMARK  Name = ZINC01747050
REMARK                            x       y       z     vdW  Elec       q    Type
REMARK                         _______ _______ _______ _____ _____    ______ ____
ROOT
ATOM      1  CA  LIG    1       -2.121   0.950   1.341  0.00  0.00    +0.036 C 
ENDROOT
BRANCH   1   2
ATOM      2  N   LIG    1       -1.980  -0.509   1.491  0.00  0.00    +0.387 N 
ATOM      3  H1  LIG    1       -1.438  -0.878   0.701  0.00  0.00    -0.089 HD
ATOM      4  H2  LIG    1       -2.898  -0.950   1.499  0.00  0.00    -0.089 HD
ATOM      5  H3  LIG    1       -1.492  -0.726   2.359  0.00  0.00    -0.089 HD
ENDBRANCH   1   2
BRANCH   1   6
ATOM      6  C   LIG    1       -2.872   1.528   2.513  0.00  0.00    +0.290 C 
ATOM      7  O   LIG    1       -2.947   0.910   3.548  0.00  0.00    -0.253 OA
BRANCH   6   8
ATOM      8  OXT LIG    1       -3.458   2.731   2.406  0.00  0.00    -0.482 OA
ATOM      9  HXT LIG    1       -3.401   3.211   1.603  0.00  0.00    +0.295 HD
ENDBRANCH   6   8
ENDBRANCH   1   6
BRANCH   1  10
ATOM     10  C   LIG    1       -0.729   1.579   1.267  0.00  0.00    +0.009 C 
BRANCH  10  12
ATOM     11  C   LIG    1       -0.753   1.593  -1.232  0.00  0.00    +0.019 C 
ATOM     12  C   LIG    1       -0.013   1.086   0.008  0.00  0.00    +0.093 C 
BRANCH  12  13
ATOM     13  C   LIG    1        1.401   1.607  -0.003  0.00  0.00    +0.308 C 
ATOM     14  O   LIG    1        1.796   2.303   0.903  0.00  0.00    -0.251 OA
BRANCH  13  15
ATOM     15  O   LIG    1        2.222   1.300  -1.019  0.00  0.00    -0.480 OA
ATOM     16  H   LIG    1        1.917   0.761  -1.722  0.00  0.00    +0.295 HD
ENDBRANCH  13  15
ENDBRANCH  12  13
ENDBRANCH  10  12
ENDBRANCH   1  10
TORSDOF 7
