REMARK  Name = ZINC02047688
REMARK                            x       y       z     vdW  Elec       q    Type
REMARK                         _______ _______ _______ _____ _____    ______ ____
ROOT
ATOM      1  C   LIG    1       -0.017   1.365   0.009  0.00  0.00    +0.110 A 
ATOM      2  C   LIG    1        1.148   2.049   0.002  0.00  0.00    +0.094 A 
ATOM      3  I   LIG    1        1.147   4.144   0.013  0.00  0.00    -0.037 I 
ATOM      4  C   LIG    1        2.369   1.332  -0.013  0.00  0.00    +0.267 A 
ATOM      5  N   LIG    1        2.344  -0.016  -0.020  0.00  0.00    -0.274 N 
ATOM      6  C   LIG    1        1.169  -0.673  -0.012  0.00  0.00    +0.329 A 
ATOM      7  O   LIG    1        1.162  -1.889  -0.018  0.00  0.00    -0.246 OA
ATOM      8  H   LIG    1        3.176  -0.515  -0.031  0.00  0.00    +0.173 HD
ATOM      9  O   LIG    1        3.431   1.927  -0.020  0.00  0.00    -0.267 OA
ATOM     10  N   LIG    1        0.002  -0.004   0.002  0.00  0.00    -0.301 N 
ENDROOT
BRANCH  10  11
ATOM     11  C   LIG    1       -1.261  -0.747   0.011  0.00  0.00    +0.121 C 
BRANCH  11  12
ATOM     12  CA  LIG    1       -1.714  -0.998  -1.429  0.00  0.00    +0.056 C 
BRANCH  12  13
ATOM     13  N   LIG    1       -1.792   0.281  -2.148  0.00  0.00    +0.388 N 
ATOM     14  H1  LIG    1       -2.091   0.116  -3.097  0.00  0.00    -0.089 HD
ATOM     15  H2  LIG    1       -0.883   0.719  -2.153  0.00  0.00    -0.089 HD
ATOM     16  H3  LIG    1       -2.455   0.886  -1.687  0.00  0.00    -0.089 HD
ENDBRANCH  12  13
BRANCH  12  17
ATOM     17  C   LIG    1       -3.072  -1.653  -1.421  0.00  0.00    +0.292 C 
ATOM     18  O   LIG    1       -4.080  -0.967  -1.438  0.00  0.00    -0.253 OA
BRANCH  17  19
ATOM     19  OXT LIG    1       -3.162  -2.868  -1.396  0.00  0.00    -0.482 OA
ATOM     20  HXT LIG    1       -2.387  -3.395  -1.383  0.00  0.00    +0.295 HD
ENDBRANCH  17  19
ENDBRANCH  12  17
ENDBRANCH  11  12
ENDBRANCH  10  11
TORSDOF 5
