REMARK  Name = ZINC01738803
REMARK                            x       y       z     vdW  Elec       q    Type
REMARK                         _______ _______ _______ _____ _____    ______ ____
ROOT
ATOM      1  O   LIG    1       -0.118   0.554  -4.700  0.00  0.00    -0.412 OA
ENDROOT
BRANCH   1   7
ATOM      2  C   LIG    1       -3.546  -1.533  -9.576  0.00  0.00    +0.001 A 
ATOM      3  C   LIG    1       -3.081  -2.626  -8.847  0.00  0.00    +0.001 A 
ATOM      4  C   LIG    1       -2.312  -2.451  -7.738  0.00  0.00    +0.008 A 
ATOM      5  C   LIG    1       -1.978  -1.151  -7.320  0.00  0.00    -0.014 A 
ATOM      6  C   LIG    1       -1.187  -0.933  -6.180  0.00  0.00    +0.055 A 
ATOM      7  C   LIG    1       -0.884   0.344  -5.803  0.00  0.00    +0.134 A 
ATOM      8  C   LIG    1       -1.355   1.439  -6.535  0.00  0.00    +0.047 A 
ATOM      9  C   LIG    1       -2.119   1.261  -7.646  0.00  0.00    +0.012 A 
ATOM     10  C   LIG    1       -2.451  -0.040  -8.062  0.00  0.00    -0.018 A 
ATOM     11  C   LIG    1       -3.243  -0.260  -9.202  0.00  0.00    +0.008 A 
ENDBRANCH   1   7
BRANCH   1  12
ATOM     12  C   LIG    1       -0.754   0.947  -3.580  0.00  0.00    +0.406 C 
ATOM     13  N   LIG    1       -0.070   1.077  -2.426  0.00  0.00    -0.278 N 
ATOM     14  H   LIG    1        0.881   0.888  -2.403  0.00  0.00    +0.152 HD
ATOM     15  O   LIG    1       -1.946   1.184  -3.610  0.00  0.00    -0.226 OA
BRANCH  13  16
ATOM     16  C   LIG    1       -0.762   1.505  -1.208  0.00  0.00    +0.076 C 
ATOM     17  C   LIG    1        0.001   0.997   0.017  0.00  0.00    +0.022 C 
ATOM     18  C   LIG    1       -0.722   1.444   1.289  0.00  0.00    +0.002 C 
ATOM     19  C   LIG    1       -0.789   2.972   1.328  0.00  0.00    +0.000 C 
ATOM     20  C   LIG    1       -1.553   3.479   0.103  0.00  0.00    +0.002 C 
ATOM     21  C   LIG    1       -0.830   3.033  -1.170  0.00  0.00    +0.022 C 
ENDBRANCH  13  16
ENDBRANCH   1  12
TORSDOF 3
