REMARK  Name = ZINC01704748
REMARK                            x       y       z     vdW  Elec       q    Type
REMARK                         _______ _______ _______ _____ _____    ______ ____
ROOT
ATOM      1  C   LIG    1        2.470   1.738  -0.001  0.00  0.00    +0.234 C 
ATOM      2  O   LIG    1        2.071   1.194  -1.010  0.00  0.00    -0.283 OA
ENDROOT
BRANCH   1   8
ATOM      3  C   LIG    1        1.597   1.895   3.644  0.00  0.00    +0.001 A 
ATOM      4  C   LIG    1        0.404   1.191   3.666  0.00  0.00    +0.001 A 
ATOM      5  C   LIG    1       -0.121   0.669   2.497  0.00  0.00    +0.021 A 
ATOM      6  C   LIG    1        0.547   0.837   1.301  0.00  0.00    +0.052 A 
ATOM      7 CL   LIG    1       -0.110   0.175  -0.164  0.00  0.00    -0.083 Cl
ATOM      8  C   LIG    1        1.753   1.548   1.272  0.00  0.00    +0.044 A 
ATOM      9  C   LIG    1        2.273   2.077   2.458  0.00  0.00    +0.013 A 
ENDBRANCH   1   8
BRANCH   1  10
ATOM     10  C   LIG    1        3.688   2.598  -0.050  0.00  0.00    +0.234 C 
ATOM     11  O   LIG    1        3.578   3.807  -0.018  0.00  0.00    -0.283 OA
BRANCH  10  12
ATOM     12  C   LIG    1        5.023   1.982  -0.138  0.00  0.00    +0.044 A 
ATOM     13  C   LIG    1        5.149   0.596  -0.285  0.00  0.00    +0.013 A 
ATOM     14  C   LIG    1        6.401   0.027  -0.372  0.00  0.00    +0.001 A 
ATOM     15  C   LIG    1        7.534   0.821  -0.303  0.00  0.00    +0.001 A 
ATOM     16  C   LIG    1        7.419   2.192  -0.152  0.00  0.00    +0.021 A 
ATOM     17  C   LIG    1        6.172   2.778  -0.069  0.00  0.00    +0.052 A 
ATOM     18 CL   LIG    1        6.030   4.498   0.121  0.00  0.00    -0.083 Cl
ENDBRANCH  10  12
ENDBRANCH   1  10
TORSDOF 3
