REMARK  Name = ZINC01693315
REMARK                            x       y       z     vdW  Elec       q    Type
REMARK                         _______ _______ _______ _____ _____    ______ ____
ROOT
ATOM      1  C   LIG    1        2.379   1.416  -0.012  0.00  0.00    +0.001 A 
ATOM      2  C   LIG    1        1.160   2.085   0.002  0.00  0.00    +0.001 A 
ATOM      3  C   LIG    1       -0.017   1.393   0.010  0.00  0.00    +0.009 A 
ATOM      4  C   LIG    1        0.002  -0.004   0.002  0.00  0.00    -0.010 A 
ATOM      5  C   LIG    1        1.240  -0.688  -0.013  0.00  0.00    -0.017 A 
ATOM      6  C   LIG    1        1.262  -2.099  -0.023  0.00  0.00    +0.009 A 
ATOM      7  C   LIG    1        0.116  -2.817  -0.016  0.00  0.00    +0.010 A 
ATOM      8  C   LIG    1       -1.143  -2.191   0.000  0.00  0.00    -0.010 A 
ATOM      9  C   LIG    1       -2.380  -2.973   0.007  0.00  0.00    -0.010 A 
ATOM     10  C   LIG    1       -2.361  -4.370  -0.002  0.00  0.00    +0.009 A 
ATOM     11  C   LIG    1       -3.537  -5.062   0.005  0.00  0.00    +0.001 A 
ATOM     12  C   LIG    1       -4.757  -4.394   0.020  0.00  0.00    +0.001 A 
ATOM     13  C   LIG    1       -4.809  -3.032   0.030  0.00  0.00    +0.008 A 
ATOM     14  C   LIG    1       -3.618  -2.289   0.023  0.00  0.00    -0.017 A 
ATOM     15  C   LIG    1       -3.640  -0.878   0.031  0.00  0.00    +0.009 A 
ATOM     16  C   LIG    1       -2.494  -0.160   0.025  0.00  0.00    +0.010 A 
ATOM     17  C   LIG    1       -1.236  -0.786   0.009  0.00  0.00    -0.010 A 
ATOM     18  C   LIG    1        2.431   0.054  -0.020  0.00  0.00    +0.008 A 
ENDROOT
TORSDOF 0
