REMARK  Name = ZINC02059635
REMARK                            x       y       z     vdW  Elec       q    Type
REMARK                         _______ _______ _______ _____ _____    ______ ____
ROOT
ATOM      1  N   LIG    1       -3.546   1.759  -0.662  0.00  0.00    -0.244 N 
ATOM      2  C   LIG    1       -2.620   0.863   0.031  0.00  0.00    +0.198 C 
ATOM      3  N   LIG    1       -2.449  -0.380  -0.731  0.00  0.00    -0.321 N 
ATOM      4  H   LIG    1       -2.450  -1.240  -0.281  0.00  0.00    +0.148 HD
ATOM      5  C   LIG    1       -2.287  -0.302  -2.110  0.00  0.00    +0.041 A 
ATOM      6  C   LIG    1       -1.578  -1.260  -2.815  0.00  0.00    +0.024 A 
ATOM      7  C   LIG    1       -1.467  -1.155  -4.189  0.00  0.00    +0.002 A 
ATOM      8  C   LIG    1       -2.062  -0.102  -4.865  0.00  0.00    +0.001 A 
ATOM      9  C   LIG    1       -2.769   0.862  -4.176  0.00  0.00    +0.015 A 
ATOM     10  C   LIG    1       -2.878   0.776  -2.790  0.00  0.00    +0.058 A 
ATOM     11  C   LIG    1       -3.617   1.783  -2.008  0.00  0.00    +0.254 C 
ATOM     12  O   LIG    1       -4.286   2.628  -2.572  0.00  0.00    -0.270 OA
ENDROOT
BRANCH   1  16
ATOM     13  C   LIG    1       -6.004   4.281   1.562  0.00  0.00    -0.044 A 
ATOM     14  C   LIG    1       -5.131   4.813   0.631  0.00  0.00    +0.006 A 
ATOM     15  C   LIG    1       -4.315   3.980  -0.108  0.00  0.00    +0.024 A 
ATOM     16  C   LIG    1       -4.371   2.606   0.085  0.00  0.00    +0.039 A 
ATOM     17  C   LIG    1       -5.253   2.074   1.016  0.00  0.00    +0.024 A 
ATOM     18  C   LIG    1       -6.063   2.913   1.756  0.00  0.00    +0.006 A 
BRANCH  13  19
ATOM     19  C   LIG    1       -6.894   5.193   2.366  0.00  0.00    +0.016 C 
ATOM     20  C   LIG    1       -8.359   4.843   2.099  0.00  0.00    +0.012 C 
BRANCH  19  22
ATOM     21  C   LIG    1       -7.404   6.030   4.665  0.00  0.00    +0.004 C 
ATOM     22  C   LIG    1       -6.592   5.017   3.856  0.00  0.00    +0.004 C 
ENDBRANCH  19  22
ENDBRANCH  13  19
ENDBRANCH   1  16
BRANCH   2  23
ATOM     23  C   LIG    1       -1.284   1.544   0.181  0.00  0.00    -0.009 A 
ATOM     24  C   LIG    1       -0.125   0.790   0.208  0.00  0.00    +0.010 A 
ATOM     25  C   LIG    1        1.102   1.413   0.339  0.00  0.00    +0.046 A 
ATOM     26  C   LIG    1        1.169   2.794   0.449  0.00  0.00    +0.120 A 
ATOM     27  C   LIG    1        0.004   3.547   0.427  0.00  0.00    +0.046 A 
ATOM     28  C   LIG    1       -1.220   2.920   0.296  0.00  0.00    +0.010 A 
BRANCH  26  29
ATOM     29  O   LIG    1        2.374   3.409   0.578  0.00  0.00    -0.495 OA
ATOM     30  C   LIG    1        2.368   4.833   0.686  0.00  0.00    +0.277 C 
ENDBRANCH  26  29
ENDBRANCH   2  23
TORSDOF 5
