REMARK  Name = ZINC02183608
REMARK                            x       y       z     vdW  Elec       q    Type
REMARK                         _______ _______ _______ _____ _____    ______ ____
ROOT
ATOM      1  N   LIG    1        0.025  -0.016   2.415  0.00  0.00    -0.333 N 
ATOM      2  C   LIG    1       -1.235   0.335   3.088  0.00  0.00    +0.086 C 
ATOM      3  C   LIG    1       -1.198   1.825   3.443  0.00  0.00    -0.060 C 
ATOM      4  N   LIG    1        0.009   2.109   4.230  0.00  0.00    +0.382 N 
ATOM      5  H   LIG    1        0.029   1.510   5.041  0.00  0.00    -0.082 HD
ATOM      6  C   LIG    1        1.206   1.867   3.415  0.00  0.00    -0.060 C 
ATOM      7  C   LIG    1        1.288   0.374   3.061  0.00  0.00    +0.086 C 
ENDROOT
BRANCH   1  14
ATOM      8  C   LIG    1       -0.018   1.503   0.010  0.00  0.00    +0.045 C 
ATOM      9  C   LIG    1        0.002  -0.004   0.002  0.00  0.00    -0.029 A 
ATOM     10  C   LIG    1        0.006  -0.689  -1.198  0.00  0.00    +0.005 A 
ATOM     11  C   LIG    1        0.024  -2.071  -1.206  0.00  0.00    +0.000 A 
ATOM     12  C   LIG    1        0.039  -2.773  -0.014  0.00  0.00    +0.002 A 
ATOM     13  C   LIG    1        0.036  -2.095   1.188  0.00  0.00    +0.023 A 
ATOM     14  C   LIG    1        0.023  -0.706   1.200  0.00  0.00    +0.033 A 
ENDBRANCH   1  14
BRANCH   4  15
ATOM     15  C   LIG    1       -0.011   3.513   4.663  0.00  0.00    -0.079 C 
BRANCH  15  16
ATOM     16  C   LIG    1        1.180   3.779   5.586  0.00  0.00    -0.017 C 
BRANCH  16  17
ATOM     17  C   LIG    1        1.160   5.240   6.037  0.00  0.00    +0.018 C 
BRANCH  17  18
ATOM     18  C   LIG    1        2.351   5.506   6.959  0.00  0.00    +0.118 C 
BRANCH  18  19
ATOM     19  N   LIG    1        2.331   6.906   7.391  0.00  0.00    -0.224 N 
ATOM     20  C   LIG    1        2.939   7.915   6.729  0.00  0.00    +0.244 C 
ATOM     21  C   LIG    1        2.549   9.169   7.469  0.00  0.00    +0.164 C 
ATOM     22  C   LIG    1        3.777   9.958   7.963  0.00  0.00    +0.033 C 
ATOM     23  C   LIG    1        3.239  10.629   9.254  0.00  0.00    +0.021 C 
ATOM     24  C   LIG    1        2.036   9.759   9.681  0.00  0.00    +0.110 C 
ATOM     25  N   LIG    1        1.963   8.637   8.729  0.00  0.00    -0.274 N 
ATOM     26  O   LIG    1        3.646   7.830   5.747  0.00  0.00    -0.273 OA
ATOM     27  C   LIG    1        1.703   7.348   8.492  0.00  0.00    +0.312 C 
ATOM     28  O   LIG    1        0.987   6.658   9.191  0.00  0.00    -0.252 OA
ENDBRANCH  18  19
ENDBRANCH  17  18
ENDBRANCH  16  17
ENDBRANCH  15  16
ENDBRANCH   4  15
TORSDOF 6
