REMARK  Name = ZINC02277650
REMARK                            x       y       z     vdW  Elec       q    Type
REMARK                         _______ _______ _______ _____ _____    ______ ____
ROOT
ATOM      1  C   LIG    1       -1.405   1.901   0.019  0.00  0.00    +0.095 A 
ATOM      2  C   LIG    1       -2.084   2.265   1.249  0.00  0.00    +0.005 A 
ATOM      3  C   LIG    1       -3.259   2.934   1.122  0.00  0.00    +0.056 A 
ATOM      4  S   LIG    1       -3.461   3.079  -0.641  0.00  0.00    -0.080 S 
ATOM      5  C   LIG    1       -2.020   2.277  -1.168  0.00  0.00    +0.087 A 
ENDROOT
BRANCH   2   6
ATOM      6  C   LIG    1       -1.523   1.924   2.577  0.00  0.00    -0.016 A 
ATOM      7  C   LIG    1       -1.113   0.617   2.846  0.00  0.00    +0.009 A 
ATOM      8  C   LIG    1       -0.588   0.301   4.079  0.00  0.00    +0.009 A 
ATOM      9  C   LIG    1       -0.474   1.284   5.062  0.00  0.00    -0.018 A 
ATOM     10  C   LIG    1       -0.889   2.589   4.795  0.00  0.00    +0.009 A 
ATOM     11  C   LIG    1       -1.410   2.907   3.561  0.00  0.00    +0.009 A 
BRANCH   9  12
ATOM     12  C   LIG    1        0.086   0.942   6.391  0.00  0.00    -0.018 A 
ATOM     13  C   LIG    1        0.206   1.923   7.374  0.00  0.00    +0.008 A 
ATOM     14  C   LIG    1        0.723   1.598   8.611  0.00  0.00    +0.001 A 
ATOM     15  C   LIG    1        1.134   0.303   8.873  0.00  0.00    +0.000 A 
ATOM     16  C   LIG    1        1.023  -0.673   7.900  0.00  0.00    +0.001 A 
ATOM     17  C   LIG    1        0.502  -0.361   6.661  0.00  0.00    +0.008 A 
ENDBRANCH   9  12
ENDBRANCH   2   6
BRANCH   5  18
ATOM     18  N   LIG    1       -1.585   2.060  -2.464  0.00  0.00    -0.275 N 
ATOM     19  H   LIG    1       -0.751   1.591  -2.624  0.00  0.00    +0.156 HD
ATOM     20  C   LIG    1       -2.321   2.501  -3.504  0.00  0.00    +0.249 C 
ATOM     21  O   LIG    1       -3.366   3.088  -3.304  0.00  0.00    -0.270 OA
BRANCH  20  22
ATOM     22  C   LIG    1       -1.856   2.269  -4.889  0.00  0.00    +0.051 A 
ATOM     23  C   LIG    1       -1.563   0.979  -5.323  0.00  0.00    +0.014 A 
ATOM     24  C   LIG    1       -1.133   0.767  -6.619  0.00  0.00    +0.001 A 
ATOM     25  C   LIG    1       -0.983   1.831  -7.490  0.00  0.00    +0.001 A 
ATOM     26  C   LIG    1       -1.264   3.119  -7.076  0.00  0.00    +0.016 A 
ATOM     27  C   LIG    1       -1.703   3.352  -5.775  0.00  0.00    +0.071 A 
BRANCH  27  28
ATOM     28  C   LIG    1       -2.005   4.728  -5.327  0.00  0.00    +0.338 C 
ATOM     29  O   LIG    1       -2.279   4.941  -4.163  0.00  0.00    -0.245 OA
BRANCH  28  30
ATOM     30  O   LIG    1       -1.977   5.745  -6.210  0.00  0.00    -0.477 OA
ATOM     31  H   LIG    1       -1.765   5.581  -7.107  0.00  0.00    +0.295 HD
ENDBRANCH  28  30
ENDBRANCH  27  28
ENDBRANCH  20  22
ENDBRANCH   5  18
BRANCH   1  32
ATOM     32  C   LIG    1       -0.133   1.180   0.030  0.00  0.00    +0.342 C 
ATOM     33  O   LIG    1       -0.123  -0.036   0.019  0.00  0.00    -0.245 OA
BRANCH  32  34
ATOM     34  O   LIG    1        1.030   1.864   0.046  0.00  0.00    -0.461 OA
BRANCH  34  36
ATOM     35  C   LIG    1        3.460   2.024   0.069  0.00  0.00    +0.048 C 
ATOM     36  C   LIG    1        2.254   1.083   0.050  0.00  0.00    +0.229 C 
ENDBRANCH  34  36
ENDBRANCH  32  34
ENDBRANCH   1  32
TORSDOF 9
