REMARK  Name = ZINC02041009
REMARK                            x       y       z     vdW  Elec       q    Type
REMARK                         _______ _______ _______ _____ _____    ______ ____
ROOT
ATOM      1  C   LIG    1       -2.266  -3.014   2.194  0.00  0.00    +0.001 A 
ATOM      2  C   LIG    1       -3.196  -2.440   1.343  0.00  0.00    +0.004 A 
ATOM      3  C   LIG    1       -3.135  -1.093   1.038  0.00  0.00    +0.046 A 
ATOM      4  C   LIG    1       -2.135  -0.309   1.586  0.00  0.00    +0.135 A 
ATOM      5  C   LIG    1       -1.191  -0.890   2.448  0.00  0.00    +0.078 A 
ATOM      6  C   LIG    1       -0.138  -0.021   3.014  0.00  0.00    +0.250 C 
ATOM      7  N   LIG    1        0.048   1.193   2.445  0.00  0.00    -0.276 N 
ATOM      8  H   LIG    1        0.698   1.808   2.819  0.00  0.00    +0.152 HD
ATOM      9  C   LIG    1       -0.729   1.579   1.267  0.00  0.00    +0.263 C 
ATOM     10  O   LIG    1        0.537  -0.384   3.957  0.00  0.00    -0.270 OA
ATOM     11  O   LIG    1       -2.039   1.015   1.313  0.00  0.00    -0.470 OA
ATOM     12  C   LIG    1       -1.261  -2.246   2.749  0.00  0.00    +0.017 A 
ENDROOT
BRANCH   9  13
ATOM     13  C   LIG    1       -0.013   1.086   0.008  0.00  0.00    +0.081 C 
BRANCH  13  14
ATOM     14  C   LIG    1       -0.753   1.593  -1.232  0.00  0.00    +0.114 C 
ATOM     15 CL   LIG    1        0.091   1.011  -2.715  0.00  0.00    -0.125 Cl
ENDBRANCH  13  14
ENDBRANCH   9  13
TORSDOF 2
