REMARK  Name = ZINC01842518
REMARK                            x       y       z     vdW  Elec       q    Type
REMARK                         _______ _______ _______ _____ _____    ______ ____
ROOT
ATOM      1  C   LIG    1       -1.269  -0.764   0.011  0.00  0.00    +0.098 A 
ATOM      2  C   LIG    1       -1.503  -1.964  -0.627  0.00  0.00    +0.077 A 
ATOM      3  N   LIG    1       -2.827  -2.325  -0.343  0.00  0.00    -0.317 N 
ATOM      4  C   LIG    1       -3.321  -1.312   0.424  0.00  0.00    +0.170 A 
ATOM      5  S   LIG    1       -5.026  -1.719   0.747  0.00  0.00    -0.086 S 
ATOM      6  C   LIG    1       -5.205  -3.079  -0.484  0.00  0.00    +0.099 C 
ATOM      7  C   LIG    1       -3.713  -3.453  -0.648  0.00  0.00    +0.135 C 
ATOM      8  N   LIG    1       -2.400  -0.412   0.647  0.00  0.00    -0.221 NA
ENDROOT
BRANCH   1  15
ATOM      9  C   LIG    1       -0.017   1.391   0.010  0.00  0.00    +0.013 A 
ATOM     10  C   LIG    1        1.170   2.094   0.002  0.00  0.00    +0.039 A 
ATOM     11  C   LIG    1        2.379   1.418  -0.013  0.00  0.00    +0.123 A 
ATOM     12  F   LIG    1        3.538   2.111  -0.022  0.00  0.00    -0.205 F 
ATOM     13  C   LIG    1        2.403   0.032  -0.021  0.00  0.00    +0.039 A 
ATOM     14  C   LIG    1        1.222  -0.680  -0.013  0.00  0.00    +0.013 A 
ATOM     15  C   LIG    1        0.002  -0.004   0.002  0.00  0.00    +0.003 A 
ENDBRANCH   1  15
BRANCH   2  16
ATOM     16  C   LIG    1       -0.545  -2.721  -1.452  0.00  0.00    +0.004 A 
ATOM     17  C   LIG    1       -0.407  -4.109  -1.306  0.00  0.00    +0.030 A 
ATOM     18  C   LIG    1        0.501  -4.776  -2.098  0.00  0.00    +0.111 A 
ATOM     19  N   LIG    1        1.235  -4.127  -2.983  0.00  0.00    -0.263 NA
ATOM     20  C   LIG    1        1.137  -2.821  -3.154  0.00  0.00    +0.111 A 
ATOM     21  C   LIG    1        0.251  -2.075  -2.409  0.00  0.00    +0.030 A 
ENDBRANCH   2  16
TORSDOF 2
