REMARK  Name = ZINC01738108
REMARK                            x       y       z     vdW  Elec       q    Type
REMARK                         _______ _______ _______ _____ _____    ______ ____
ROOT
ATOM      1  N   LIG    1        1.238  -2.077  -0.021  0.00  0.00    -0.216 N 
ATOM      2  H   LIG    1        2.098  -2.556  -0.032  0.00  0.00    +0.174 HD
ENDROOT
BRANCH   1   7
ATOM      3  C   LIG    1       -0.017   1.377   0.010  0.00  0.00    +0.002 A 
ATOM      4  C   LIG    1        1.171   2.086   0.002  0.00  0.00    +0.012 A 
ATOM      5  C   LIG    1        2.380   1.416  -0.013  0.00  0.00    +0.057 A 
ATOM      6  C   LIG    1        2.406   0.035  -0.021  0.00  0.00    +0.036 A 
ATOM      7  C   LIG    1        1.215  -0.681  -0.013  0.00  0.00    +0.049 A 
ATOM      8  C   LIG    1        0.002  -0.004   0.002  0.00  0.00    +0.024 A 
BRANCH   5   9
ATOM      9  C   LIG    1        3.671   2.193  -0.023  0.00  0.00    +0.417 C 
ATOM     10  F   LIG    1        4.399   1.874  -1.174  0.00  0.00    -0.166 F 
ATOM     11  F   LIG    1        4.422   1.863   1.111  0.00  0.00    -0.166 F 
ATOM     12  F   LIG    1        3.390   3.563  -0.013  0.00  0.00    -0.166 F 
ENDBRANCH   5   9
ENDBRANCH   1   7
BRANCH   1  13
ATOM     13  S   LIG    1       -0.182  -2.928  -0.011  0.00  0.00    +0.074 S 
ATOM     14  O   LIG    1       -0.826  -2.658  -1.249  0.00  0.00    -0.150 OA
ATOM     15  O   LIG    1       -0.802  -2.671   1.242  0.00  0.00    -0.150 OA
BRANCH  13  16
ATOM     16  C   LIG    1        0.236  -4.640  -0.025  0.00  0.00    +0.128 A 
ATOM     17  C   LIG    1       -0.086  -5.438   1.057  0.00  0.00    +0.051 A 
ATOM     18  C   LIG    1        0.242  -6.782   1.047  0.00  0.00    +0.061 A 
ATOM     19 CL   LIG    1       -0.162  -7.784   2.406  0.00  0.00    -0.082 Cl
ATOM     20  C   LIG    1        0.892  -7.327  -0.047  0.00  0.00    +0.061 A 
ATOM     21 CL   LIG    1        1.305  -9.014  -0.059  0.00  0.00    -0.082 Cl
ATOM     22  C   LIG    1        1.214  -6.529  -1.129  0.00  0.00    +0.043 A 
ATOM     23  C   LIG    1        0.881  -5.186  -1.120  0.00  0.00    +0.069 A 
ATOM     24 CL   LIG    1        1.278  -4.184  -2.481  0.00  0.00    -0.081 Cl
ENDBRANCH  13  16
ENDBRANCH   1  13
TORSDOF 4
