REMARK  Name = ZINC02011710
REMARK                            x       y       z     vdW  Elec       q    Type
REMARK                         _______ _______ _______ _____ _____    ______ ____
ROOT
ATOM      1  C   LIG    1        3.039   5.024   0.001  0.00  0.00    +0.059 C 
ATOM      2  C   LIG    1        3.583   5.722  -1.071  0.00  0.00    +0.059 C 
ATOM      3  C   LIG    1        3.909   7.069  -0.560  0.00  0.00    +0.252 C 
ATOM      4  N   LIG    1        3.575   7.128   0.740  0.00  0.00    -0.248 N 
ATOM      5  H   LIG    1        3.693   7.906   1.306  0.00  0.00    +0.158 HD
ATOM      6  O   LIG    1        4.402   7.972  -1.207  0.00  0.00    -0.270 OA
ATOM      7  C   LIG    1        3.054   5.958   1.146  0.00  0.00    +0.252 C 
ATOM      8  O   LIG    1        2.659   5.709   2.268  0.00  0.00    -0.270 OA
ENDROOT
BRANCH   1  12
ATOM      9  C   LIG    1        2.980   0.020  -0.024  0.00  0.00    +0.149 C 
ATOM     10  N   LIG    1        2.508   1.407  -0.013  0.00  0.00    -0.349 N 
ATOM     11  C   LIG    1        3.314   2.503  -0.015  0.00  0.00    +0.095 A 
ATOM     12  C   LIG    1        2.552   3.634  -0.002  0.00  0.00    +0.013 A 
ATOM     13  C   LIG    1        1.147   3.193   0.008  0.00  0.00    +0.008 A 
ATOM     14  C   LIG    1       -0.076   3.860   0.021  0.00  0.00    +0.010 A 
ATOM     15  C   LIG    1       -1.248   3.136   0.028  0.00  0.00    +0.001 A 
ATOM     16  C   LIG    1       -1.215   1.749   0.017  0.00  0.00    +0.002 A 
ATOM     17  C   LIG    1       -0.013   1.076   0.008  0.00  0.00    +0.026 A 
ATOM     18  C   LIG    1        1.182   1.788   0.000  0.00  0.00    +0.049 A 
ENDBRANCH   1  12
BRANCH   2  19
ATOM     19  C   LIG    1        3.789   5.220  -2.441  0.00  0.00    +0.013 A 
ATOM     20  C   LIG    1        2.831   5.031  -3.393  0.00  0.00    +0.095 A 
ATOM     21  N   LIG    1        3.405   4.555  -4.532  0.00  0.00    -0.346 N 
ATOM     22  C   LIG    1        4.767   4.417  -4.360  0.00  0.00    +0.050 A 
ATOM     23  C   LIG    1        5.791   3.982  -5.194  0.00  0.00    +0.026 A 
ATOM     24  C   LIG    1        7.089   3.954  -4.732  0.00  0.00    +0.002 A 
ATOM     25  C   LIG    1        7.388   4.356  -3.439  0.00  0.00    +0.001 A 
ATOM     26  C   LIG    1        6.387   4.791  -2.597  0.00  0.00    +0.010 A 
ATOM     27  C   LIG    1        5.072   4.831  -3.053  0.00  0.00    +0.008 A 
BRANCH  21  28
ATOM     28  C   LIG    1        2.680   4.235  -5.764  0.00  0.00    +0.120 C 
BRANCH  28  29
ATOM     29  C   LIG    1        2.340   2.743  -5.783  0.00  0.00    +0.002 C 
BRANCH  29  30
ATOM     30  C   LIG    1        1.583   2.409  -7.070  0.00  0.00    -0.085 C 
BRANCH  30  31
ATOM     31  N   LIG    1        1.281   0.967  -7.088  0.00  0.00    +0.378 N 
ATOM     32  H   LIG    1        2.160   0.438  -7.082  0.00  0.00    -0.090 HD
ATOM     33  H   LIG    1        0.756   0.731  -7.929  0.00  0.00    -0.090 HD
ATOM     34  H   LIG    1        0.735   0.714  -6.266  0.00  0.00    -0.090 HD
ENDBRANCH  30  31
ENDBRANCH  29  30
ENDBRANCH  28  29
ENDBRANCH  21  28
ENDBRANCH   2  19
TORSDOF 6
