REMARK  Name = ZINC02047657
REMARK                            x       y       z     vdW  Elec       q    Type
REMARK                         _______ _______ _______ _____ _____    ______ ____
ROOT
ATOM      1  C   LIG    1        5.454  -1.624   1.214  0.00  0.00    +0.076 C 
ENDROOT
BRANCH   1   2
ATOM      2  C   LIG    1        5.863  -1.993   2.617  0.00  0.00    -0.050 A 
ATOM      3  C   LIG    1        4.902  -2.331   3.551  0.00  0.00    +0.002 A 
ATOM      4  C   LIG    1        5.277  -2.669   4.838  0.00  0.00    +0.000 A 
ATOM      5  C   LIG    1        6.614  -2.669   5.191  0.00  0.00    +0.000 A 
ATOM      6  C   LIG    1        7.575  -2.332   4.256  0.00  0.00    +0.000 A 
ATOM      7  C   LIG    1        7.200  -1.998   2.968  0.00  0.00    +0.002 A 
ENDBRANCH   1   2
BRANCH   1   8
ATOM      8  N   LIG    1        4.178  -0.897   1.252  0.00  0.00    +0.394 N 
ATOM      9  H   LIG    1        3.858  -0.730   0.309  0.00  0.00    -0.084 HD
ATOM     10  H   LIG    1        3.491  -1.447   1.746  0.00  0.00    -0.084 HD
BRANCH   8  11
ATOM     11  C   LIG    1        4.365   0.387   1.941  0.00  0.00    -0.045 C 
BRANCH  11  15
ATOM     12  C   LIG    1        0.751   2.655   1.740  0.00  0.00    +0.000 A 
ATOM     13  C   LIG    1        0.967   1.791   2.797  0.00  0.00    +0.000 A 
ATOM     14  C   LIG    1        2.136   1.056   2.862  0.00  0.00    +0.002 A 
ATOM     15  C   LIG    1        3.090   1.186   1.869  0.00  0.00    -0.064 A 
ATOM     16  C   LIG    1        2.874   2.050   0.812  0.00  0.00    +0.002 A 
ATOM     17  C   LIG    1        1.705   2.785   0.747  0.00  0.00    +0.000 A 
ENDBRANCH  11  15
ENDBRANCH   8  11
ENDBRANCH   1   8
BRANCH   1  18
ATOM     18  P   LIG    1        5.261  -3.139   0.220  0.00  0.00    +0.318 P 
ATOM     19  O   LIG    1        4.244  -4.101   0.924  0.00  0.00    -0.260 OA
BRANCH  18  20
ATOM     20  O   LIG    1        6.648  -3.855   0.084  0.00  0.00    -0.325 OA
ATOM     21  H   LIG    1        6.980  -4.087   0.966  0.00  0.00    +0.220 HD
ENDBRANCH  18  20
BRANCH  18  22
ATOM     22  O   LIG    1        4.725  -2.765  -1.204  0.00  0.00    -0.325 OA
ATOM     23  H   LIG    1        3.866  -2.322  -1.120  0.00  0.00    +0.220 HD
ENDBRANCH  18  22
ENDBRANCH   1  18
TORSDOF 7
