REMARK  Name = ZINC02096472
REMARK                            x       y       z     vdW  Elec       q    Type
REMARK                         _______ _______ _______ _____ _____    ______ ____
ROOT
ATOM      1  C   LIG    1        0.970  -3.269   1.612  0.00  0.00    +0.227 C 
ATOM      2  N   LIG    1        0.789  -4.557   1.259  0.00  0.00    -0.314 N 
ATOM      3  H   LIG    1        0.324  -4.774   0.435  0.00  0.00    +0.149 HD
ATOM      4  O   LIG    1        1.552  -2.998   2.641  0.00  0.00    -0.275 OA
ENDROOT
BRANCH   1   9
ATOM      5  C   LIG    1       -0.019   1.526   0.010  0.00  0.00    +0.020 C 
ATOM      6  C   LIG    1        0.002  -0.004   0.002  0.00  0.00    +0.040 C 
ATOM      7  C   LIG    1        0.741  -0.671  -1.199  0.00  0.00    +0.016 C 
ATOM      8  C   LIG    1        1.039  -2.110  -0.716  0.00  0.00    +0.026 C 
ATOM      9  C   LIG    1        0.450  -2.165   0.727  0.00  0.00    +0.118 C 
ATOM     10  C   LIG    1       -1.071  -2.107   0.521  0.00  0.00    +0.214 C 
ATOM     11  O   LIG    1       -1.867  -2.998   0.699  0.00  0.00    -0.288 OA
ATOM     12  C   LIG    1       -1.367  -0.697   0.065  0.00  0.00    +0.206 C 
ATOM     13  O   LIG    1       -2.441  -0.218  -0.210  0.00  0.00    -0.288 OA
ATOM     14  C   LIG    1        0.727  -0.697   1.210  0.00  0.00    -0.001 C 
ATOM     15  C   LIG    1        2.225  -0.390   1.237  0.00  0.00    +0.013 C 
ATOM     16  C   LIG    1        0.056  -0.375   2.547  0.00  0.00    +0.013 C 
ENDBRANCH   1   9
BRANCH   2  17
ATOM     17  C   LIG    1        1.295  -5.630   2.119  0.00  0.00    +0.109 C 
BRANCH  17  18
ATOM     18  C   LIG    1        0.960  -6.985   1.493  0.00  0.00    +0.054 C 
BRANCH  18  19
ATOM     19  C   LIG    1        1.481  -8.089   2.377  0.00  0.00    -0.042 A 
ATOM     20  C   LIG    1        2.762  -8.574   2.193  0.00  0.00    +0.007 A 
ATOM     21  C   LIG    1        3.244  -9.586   3.002  0.00  0.00    +0.049 A 
ATOM     22  C   LIG    1        2.442 -10.117   4.000  0.00  0.00    +0.161 A 
ATOM     23  C   LIG    1        1.153  -9.629   4.185  0.00  0.00    +0.162 A 
ATOM     24  C   LIG    1        0.678  -8.610   3.374  0.00  0.00    +0.053 A 
BRANCH  22  25
ATOM     25  O   LIG    1        2.915 -11.113   4.796  0.00  0.00    -0.491 OA
ATOM     26  C   LIG    1        4.248 -11.565   4.548  0.00  0.00    +0.277 C 
ENDBRANCH  22  25
BRANCH  23  27
ATOM     27  O   LIG    1        0.362 -10.146   5.163  0.00  0.00    -0.491 OA
ATOM     28  C   LIG    1       -0.950  -9.596   5.296  0.00  0.00    +0.277 C 
ENDBRANCH  23  27
ENDBRANCH  18  19
ENDBRANCH  17  18
ENDBRANCH   2  17
TORSDOF 6
