REMARK  Name = ZINC02107885
REMARK                            x       y       z     vdW  Elec       q    Type
REMARK                         _______ _______ _______ _____ _____    ______ ____
ROOT
ATOM      1  N   LIG    1       -6.511  -1.408  -0.507  0.00  0.00    -0.291 N 
ATOM      2  C   LIG    1       -7.092  -0.327  -1.285  0.00  0.00    +0.203 C 
ATOM      3  C   LIG    1       -6.418   0.980  -1.020  0.00  0.00    +0.234 C 
ATOM      4  N   LIG    1       -5.385   1.142  -0.191  0.00  0.00    -0.276 N 
ATOM      5  C   LIG    1       -4.735   0.030   0.503  0.00  0.00    +0.167 C 
ATOM      6  C   LIG    1       -3.291  -0.103  -0.001  0.00  0.00    +0.069 C 
ATOM      7  C   LIG    1       -2.664   1.267  -0.049  0.00  0.00    -0.015 A 
ATOM      8  C   LIG    1       -1.258   1.610  -0.123  0.00  0.00    +0.003 A 
ATOM      9  C   LIG    1       -0.095   0.835  -0.166  0.00  0.00    +0.010 A 
ATOM     10  C   LIG    1        1.098   1.510  -0.242  0.00  0.00    +0.001 A 
ATOM     11  C   LIG    1        1.160   2.894  -0.270  0.00  0.00    +0.002 A 
ATOM     12  C   LIG    1        0.026   3.685  -0.222  0.00  0.00    +0.026 A 
ATOM     13  C   LIG    1       -1.200   3.027  -0.145  0.00  0.00    +0.047 A 
ATOM     14  N   LIG    1       -2.484   3.487  -0.085  0.00  0.00    -0.356 N 
ATOM     15  H   LIG    1       -2.743   4.421  -0.088  0.00  0.00    +0.166 HD
ATOM     16  C   LIG    1       -3.353   2.429  -0.034  0.00  0.00    +0.046 A 
ATOM     17  C   LIG    1       -4.861   2.504   0.045  0.00  0.00    +0.154 C 
ATOM     18  O   LIG    1       -6.838   1.960  -1.598  0.00  0.00    -0.274 OA
ATOM     19  C   LIG    1       -5.459  -1.261   0.297  0.00  0.00    +0.237 C 
ATOM     20  O   LIG    1       -5.064  -2.236   0.899  0.00  0.00    -0.274 OA
ENDROOT
BRANCH  17  21
ATOM     21  C   LIG    1       -5.383   3.444  -1.011  0.00  0.00    -0.021 A 
ATOM     22  C   LIG    1       -4.979   3.299  -2.325  0.00  0.00    +0.007 A 
ATOM     23  C   LIG    1       -5.462   4.157  -3.295  0.00  0.00    +0.020 A 
ATOM     24  C   LIG    1       -6.340   5.168  -2.949  0.00  0.00    +0.041 A 
ATOM     25 CL   LIG    1       -6.941   6.251  -4.165  0.00  0.00    -0.084 Cl
ATOM     26  C   LIG    1       -6.740   5.316  -1.633  0.00  0.00    +0.020 A 
ATOM     27  C   LIG    1       -6.261   4.453  -0.664  0.00  0.00    +0.007 A 
ENDBRANCH  17  21
BRANCH   1  28
ATOM     28  C   LIG    1       -7.116  -2.738  -0.614  0.00  0.00    +0.108 C 
BRANCH  28  29
ATOM     29  C   LIG    1       -6.444  -3.515  -1.747  0.00  0.00    +0.019 C 
BRANCH  29  31
ATOM     30  C   LIG    1       -6.405  -5.681  -2.993  0.00  0.00    +0.004 C 
ATOM     31  C   LIG    1       -7.077  -4.904  -1.859  0.00  0.00    -0.002 C 
ENDBRANCH  29  31
ENDBRANCH  28  29
ENDBRANCH   1  28
TORSDOF 4
