REMARK  Name = ZINC01914951
REMARK                            x       y       z     vdW  Elec       q    Type
REMARK                         _______ _______ _______ _____ _____    ______ ____
ROOT
ATOM      1  C   LIG    1        1.229  -2.162  -0.028  0.00  0.00    +0.035 A 
ATOM      2  C   LIG    1        0.875  -3.014   1.046  0.00  0.00    +0.101 A 
ATOM      3  N   LIG    1        1.049  -4.258   0.659  0.00  0.00    -0.170 NA
ATOM      4  N   LIG    1        1.525  -4.264  -0.657  0.00  0.00    -0.263 N 
ATOM      5  C   LIG    1        1.635  -2.972  -1.078  0.00  0.00    +0.077 A 
ENDROOT
BRANCH   1   9
ATOM      6  C   LIG    1        1.092   2.086  -0.026  0.00  0.00    +0.000 A 
ATOM      7  C   LIG    1       -0.085   1.359  -0.032  0.00  0.00    +0.001 A 
ATOM      8  C   LIG    1       -0.046  -0.021  -0.032  0.00  0.00    +0.008 A 
ATOM      9  C   LIG    1        1.181  -0.682  -0.028  0.00  0.00    -0.014 A 
ATOM     10  C   LIG    1        2.364   0.057  -0.022  0.00  0.00    +0.008 A 
ATOM     11  C   LIG    1        2.313   1.436  -0.021  0.00  0.00    +0.001 A 
ENDBRANCH   1   9
BRANCH   2  12
ATOM     12  C   LIG    1        0.387  -2.578   2.377  0.00  0.00    +0.003 A 
ATOM     13  C   LIG    1        0.883  -1.411   2.955  0.00  0.00    +0.010 A 
ATOM     14  C   LIG    1        0.422  -1.007   4.192  0.00  0.00    +0.001 A 
ATOM     15  C   LIG    1       -0.522  -1.764   4.862  0.00  0.00    +0.000 A 
ATOM     16  C   LIG    1       -1.014  -2.926   4.295  0.00  0.00    +0.001 A 
ATOM     17  C   LIG    1       -0.565  -3.336   3.056  0.00  0.00    +0.010 A 
ENDBRANCH   2  12
BRANCH   5  18
ATOM     18  C   LIG    1        2.101  -2.519  -2.405  0.00  0.00    +0.001 A 
ATOM     19  C   LIG    1        1.475  -2.982  -3.563  0.00  0.00    +0.010 A 
ATOM     20  C   LIG    1        1.911  -2.551  -4.799  0.00  0.00    +0.001 A 
ATOM     21  C   LIG    1        2.975  -1.670  -4.892  0.00  0.00    +0.000 A 
ATOM     22  C   LIG    1        3.604  -1.212  -3.748  0.00  0.00    +0.001 A 
ATOM     23  C   LIG    1        3.174  -1.631  -2.506  0.00  0.00    +0.010 A 
ENDBRANCH   5  18
BRANCH   4  24
ATOM     24  C   LIG    1        1.849  -5.454  -1.447  0.00  0.00    +0.144 C 
BRANCH  24  25
ATOM     25  C   LIG    1        3.280  -5.898  -1.138  0.00  0.00    +0.023 C 
BRANCH  25  26
ATOM     26  C   LIG    1        3.576  -7.210  -1.867  0.00  0.00    +0.002 C 
BRANCH  26  27
ATOM     27  C   LIG    1        5.007  -7.654  -1.558  0.00  0.00    +0.000 C 
BRANCH  27  28
ATOM     28  C   LIG    1        5.303  -8.966  -2.287  0.00  0.00    +0.000 C 
BRANCH  28  29
ATOM     29  C   LIG    1        6.735  -9.409  -1.978  0.00  0.00    +0.001 C 
BRANCH  29  30
ATOM     30  C   LIG    1        7.031 -10.721  -2.707  0.00  0.00    +0.011 C 
BRANCH  30  31
ATOM     31  C   LIG    1        8.462 -11.165  -2.398  0.00  0.00    +0.120 C 
BRANCH  31  32
ATOM     32  C   LIG    1        8.754 -12.457  -3.116  0.00  0.00    +0.305 C 
ATOM     33  O   LIG    1        7.904 -12.971  -3.805  0.00  0.00    -0.251 OA
BRANCH  32  34
ATOM     34  O   LIG    1        9.957 -13.038  -2.991  0.00  0.00    -0.481 OA
ATOM     35  H   LIG    1       10.616 -12.640  -2.457  0.00  0.00    +0.295 HD
ENDBRANCH  32  34
ENDBRANCH  31  32
ENDBRANCH  30  31
ENDBRANCH  29  30
ENDBRANCH  28  29
ENDBRANCH  27  28
ENDBRANCH  26  27
ENDBRANCH  25  26
ENDBRANCH  24  25
ENDBRANCH   4  24
TORSDOF 13
