REMARK  Name = ZINC01851122
REMARK                            x       y       z     vdW  Elec       q    Type
REMARK                         _______ _______ _______ _____ _____    ______ ____
ROOT
ATOM      1  C   LIG    1       -2.222  -4.927  -2.478  0.00  0.00    +0.106 A 
ATOM      2  C   LIG    1       -2.106  -3.974  -3.472  0.00  0.00    +0.029 A 
ATOM      3  C   LIG    1       -1.137  -4.109  -4.449  0.00  0.00    +0.007 A 
ATOM      4  C   LIG    1       -0.285  -5.197  -4.431  0.00  0.00    -0.028 A 
ATOM      5  C   LIG    1       -0.400  -6.149  -3.436  0.00  0.00    +0.007 A 
ATOM      6  C   LIG    1       -1.366  -6.012  -2.457  0.00  0.00    +0.029 A 
ENDROOT
BRANCH   1   7
ATOM      7  S   LIG    1       -3.457  -4.755  -1.232  0.00  0.00    +0.061 S 
ATOM      8  O   LIG    1       -4.482  -3.942  -1.787  0.00  0.00    -0.153 OA
ATOM      9  O   LIG    1       -3.709  -6.059  -0.727  0.00  0.00    -0.153 OA
BRANCH   7  10
ATOM     10  N   LIG    1       -2.784  -3.888   0.008  0.00  0.00    -0.166 NA
ATOM     11  C   LIG    1       -2.093  -4.583   1.096  0.00  0.00    +0.132 C 
BRANCH  10  12
ATOM     12  C   LIG    1       -2.881  -2.427   0.017  0.00  0.00    +0.188 C 
BRANCH  12  13
ATOM     13  C   LIG    1       -1.496  -1.832   0.006  0.00  0.00    +0.326 C 
ATOM     14  O   LIG    1       -0.528  -2.555  -0.007  0.00  0.00    -0.249 OA
BRANCH  13  15
ATOM     15  O   LIG    1       -1.339  -0.499   0.012  0.00  0.00    -0.464 OA
BRANCH  15  17
ATOM     16  C   LIG    1       -0.019   1.526   0.010  0.00  0.00    +0.048 C 
ATOM     17  C   LIG    1        0.002  -0.004   0.002  0.00  0.00    +0.229 C 
ENDBRANCH  15  17
ENDBRANCH  13  15
ENDBRANCH  12  13
BRANCH  12  18
ATOM     18  C   LIG    1       -3.622  -1.972   1.275  0.00  0.00    +0.035 C 
BRANCH  18  19
ATOM     19  C   LIG    1       -5.067  -2.473   1.225  0.00  0.00    -0.015 C 
ATOM     20  C   LIG    1       -5.799  -1.803   0.060  0.00  0.00    +0.007 C 
ATOM     21  C   LIG    1       -5.773  -2.126   2.538  0.00  0.00    +0.007 C 
ENDBRANCH  18  19
ENDBRANCH  12  18
ENDBRANCH  10  12
ENDBRANCH   7  10
ENDBRANCH   1   7
BRANCH   4  22
ATOM     22  C   LIG    1        0.771  -5.345  -5.497  0.00  0.00    +0.158 C 
BRANCH  22  23
ATOM     23  N   LIG    1        2.002  -4.682  -5.059  0.00  0.00    -0.323 N 
ATOM     24  C   LIG    1        2.340  -3.381  -5.278  0.00  0.00    +0.108 A 
ATOM     25  C   LIG    1        1.490  -2.382  -6.021  0.00  0.00    +0.086 C 
ATOM     26  N   LIG    1        3.502  -3.126  -4.752  0.00  0.00    -0.231 NA
ATOM     27  C   LIG    1        3.990  -4.245  -4.161  0.00  0.00    +0.107 A 
ATOM     28  C   LIG    1        5.157  -4.553  -3.463  0.00  0.00    +0.140 A 
ATOM     29  N   LIG    1        5.345  -5.765  -2.984  0.00  0.00    -0.261 NA
ATOM     30  C   LIG    1        4.461  -6.735  -3.147  0.00  0.00    +0.113 A 
ATOM     31  C   LIG    1        3.281  -6.521  -3.827  0.00  0.00    +0.047 A 
ATOM     32  C   LIG    1        3.028  -5.258  -4.348  0.00  0.00    +0.072 A 
ENDBRANCH  22  23
ENDBRANCH   4  22
TORSDOF 10
