REMARK  Name = ZINC02382749
REMARK                            x       y       z     vdW  Elec       q    Type
REMARK                         _______ _______ _______ _____ _____    ______ ____
ROOT
ATOM      1  C   LIG    1        2.405   1.368   0.222  0.00  0.00    +0.089 A 
ATOM      2  C   LIG    1        1.665   1.380  -0.949  0.00  0.00    +0.028 A 
ATOM      3  C   LIG    1        0.474   0.692  -1.025  0.00  0.00    +0.015 A 
ATOM      4  C   LIG    1        0.011  -0.022   0.087  0.00  0.00    +0.041 A 
ATOM      5  C   LIG    1        0.765  -0.030   1.268  0.00  0.00    +0.054 A 
ATOM      6 CL   LIG    1        0.203  -0.911   2.654  0.00  0.00    -0.083 Cl
ATOM      7  C   LIG    1        1.956   0.666   1.325  0.00  0.00    +0.047 A 
ENDROOT
BRANCH   1   9
ATOM      8  C   LIG    1        5.187   1.063  -0.229  0.00  0.00    +0.200 C 
ATOM      9  S   LIG    1        3.926   2.253   0.306  0.00  0.00    -0.006 S 
ATOM     10  O   LIG    1        4.093   2.557   1.684  0.00  0.00    -0.170 OA
ATOM     11  O   LIG    1        3.796   3.292  -0.655  0.00  0.00    -0.170 OA
ENDBRANCH   1   9
BRANCH   4  12
ATOM     12  C   LIG    1       -1.258  -0.760   0.015  0.00  0.00    +0.201 C 
ATOM     13  O   LIG    1       -2.419  -0.091  -0.119  0.00  0.00    -0.286 OA
BRANCH  12  14
ATOM     14  C   LIG    1       -1.260  -2.158   0.087  0.00  0.00    +0.102 C 
ATOM     15  C   LIG    1       -0.033  -2.862   0.064  0.00  0.00    +0.108 C 
ATOM     16  C   LIG    1       -0.016  -4.365   0.155  0.00  0.00    +0.075 C 
ATOM     17  C   LIG    1       -1.296  -4.925  -0.471  0.00  0.00    +0.016 C 
ATOM     18  C   LIG    1       -2.509  -4.356   0.269  0.00  0.00    +0.080 C 
ATOM     19  C   LIG    1       -2.489  -2.852   0.182  0.00  0.00    +0.170 C 
ATOM     20  O   LIG    1       -3.533  -2.233   0.193  0.00  0.00    -0.292 OA
BRANCH  15  21
ATOM     21  O   LIG    1        1.012  -2.250  -0.029  0.00  0.00    -0.510 OA
ATOM     22  H   LIG    1       -2.430   0.809  -0.554  0.00  0.00    +0.292 HD
ENDBRANCH  15  21
ENDBRANCH  12  14
ENDBRANCH   4  12
TORSDOF 4
