REMARK  Name = ZINC01853520
REMARK                            x       y       z     vdW  Elec       q    Type
REMARK                         _______ _______ _______ _____ _____    ______ ____
ROOT
ATOM      1  C   LIG    1       -1.228   3.138   0.030  0.00  0.00    +0.124 A 
ATOM      2  C   LIG    1       -1.203   1.745   0.017  0.00  0.00    +0.046 A 
ATOM      3  C   LIG    1       -0.013   1.076   0.008  0.00  0.00    +0.019 A 
ATOM      4  C   LIG    1        1.185   1.792   0.000  0.00  0.00    +0.064 A 
ATOM      5  C   LIG    1        2.489   1.105  -0.015  0.00  0.00    +0.193 A 
ATOM      6  C   LIG    1        3.651   1.913  -0.020  0.00  0.00    +0.098 A 
ATOM      7  C   LIG    1        3.525   3.267  -0.012  0.00  0.00    +0.139 A 
ATOM      8  O   LIG    1        2.332   3.881   0.002  0.00  0.00    -0.454 OA
ATOM      9  O   LIG    1        2.564  -0.113  -0.022  0.00  0.00    -0.287 OA
ATOM     10  C   LIG    1        1.169   3.197   0.008  0.00  0.00    +0.143 A 
ATOM     11  C   LIG    1       -0.048   3.863   0.023  0.00  0.00    +0.092 A 
ENDROOT
BRANCH   7  12
ATOM     12  C   LIG    1        4.749   4.093  -0.018  0.00  0.00    +0.017 A 
ATOM     13  C   LIG    1        6.006   3.485  -0.027  0.00  0.00    +0.011 A 
ATOM     14  C   LIG    1        7.145   4.263  -0.038  0.00  0.00    +0.001 A 
ATOM     15  C   LIG    1        7.045   5.643  -0.029  0.00  0.00    +0.000 A 
ATOM     16  C   LIG    1        5.802   6.252  -0.016  0.00  0.00    +0.001 A 
ATOM     17  C   LIG    1        4.655   5.487  -0.010  0.00  0.00    +0.011 A 
ENDBRANCH   7  12
BRANCH   1  18
ATOM     18  O   LIG    1       -2.419   3.790   0.045  0.00  0.00    -0.489 OA
BRANCH  18  19
ATOM     19  C   LIG    1       -3.599   2.985   0.051  0.00  0.00    +0.258 C 
BRANCH  19  20
ATOM     20  C   LIG    1       -4.833   3.889   0.068  0.00  0.00    +0.135 C 
BRANCH  20  21
ATOM     21  O   LIG    1       -4.892   4.637  -1.148  0.00  0.00    -0.390 OA
ATOM     22  H   LIG    1       -4.950   4.090  -1.944  0.00  0.00    +0.210 HD
ENDBRANCH  20  21
BRANCH  20  23
ATOM     23  C   LIG    1       -6.093   3.031   0.201  0.00  0.00    -0.048 C 
BRANCH  23  24
ATOM     24  N   LIG    1       -7.277   3.909   0.216  0.00  0.00    +0.381 N 
ATOM     25  H   LIG    1       -7.312   4.447  -0.658  0.00  0.00    -0.086 HD
ATOM     26  H   LIG    1       -7.210   4.555   1.012  0.00  0.00    -0.086 HD
BRANCH  24  27
ATOM     27  C   LIG    1       -8.509   3.107   0.343  0.00  0.00    -0.083 C 
BRANCH  27  29
ATOM     28  C   LIG    1      -11.000   3.220   0.488  0.00  0.00    +0.002 C 
ATOM     29  C   LIG    1       -9.718   4.044   0.357  0.00  0.00    -0.022 C 
ENDBRANCH  27  29
ENDBRANCH  24  27
ENDBRANCH  23  24
ENDBRANCH  20  23
ENDBRANCH  19  20
ENDBRANCH  18  19
ENDBRANCH   1  18
TORSDOF 9
