REMARK  Name = ZINC01670309
REMARK                            x       y       z     vdW  Elec       q    Type
REMARK                         _______ _______ _______ _____ _____    ______ ____
ROOT
ATOM      1  N   LIG    1        3.644  -0.616  -0.036  0.00  0.00    -0.215 N 
ATOM      2  H   LIG    1        3.744  -1.414  -0.579  0.00  0.00    +0.174 HD
ENDROOT
BRANCH   1   6
ATOM      3  C   LIG    1       -0.126   1.069   0.511  0.00  0.00    +0.001 A 
ATOM      4  C   LIG    1        0.994   1.880   0.406  0.00  0.00    +0.002 A 
ATOM      5  C   LIG    1        2.244   1.324   0.225  0.00  0.00    +0.025 A 
ATOM      6  C   LIG    1        2.388  -0.056   0.146  0.00  0.00    +0.062 A 
ATOM      7  C   LIG    1        1.255  -0.880   0.253  0.00  0.00    +0.081 A 
ATOM      8  C   LIG    1       -0.005  -0.300   0.436  0.00  0.00    +0.017 A 
BRANCH   7   9
ATOM      9  C   LIG    1        1.392  -2.341   0.172  0.00  0.00    +0.339 C 
ATOM     10  O   LIG    1        0.403  -3.055   0.265  0.00  0.00    -0.245 OA
BRANCH   9  11
ATOM     11  O   LIG    1        2.496  -2.844   0.011  0.00  0.00    -0.477 OA
ATOM     12  H   LIG    1        3.254  -2.298  -0.060  0.00  0.00    +0.295 HD
ENDBRANCH   9  11
ENDBRANCH   7   9
ENDBRANCH   1   6
BRANCH   1  13
ATOM     13  S   LIG    1        4.971   0.076   0.671  0.00  0.00    +0.072 S 
ATOM     14  O   LIG    1        4.971   1.443   0.283  0.00  0.00    -0.150 OA
ATOM     15  O   LIG    1        6.068  -0.789   0.413  0.00  0.00    -0.150 OA
BRANCH  13  16
ATOM     16  C   LIG    1        4.707   0.048   2.413  0.00  0.00    +0.109 A 
ATOM     17  C   LIG    1        4.071   1.109   3.032  0.00  0.00    +0.030 A 
ATOM     18  C   LIG    1        3.863   1.090   4.397  0.00  0.00    +0.024 A 
ATOM     19  C   LIG    1        4.293   0.004   5.149  0.00  0.00    +0.025 A 
ATOM     20  C   LIG    1        4.931  -1.060   4.524  0.00  0.00    +0.024 A 
ATOM     21  C   LIG    1        5.131  -1.037   3.158  0.00  0.00    +0.030 A 
BRANCH  19  22
ATOM     22  N   LIG    1        4.084  -0.018   6.529  0.00  0.00    -0.358 N 
ATOM     23  H   LIG    1        4.384  -0.777   7.053  0.00  0.00    +0.142 HD
ATOM     24  H   LIG    1        3.638   0.725   6.965  0.00  0.00    +0.142 HD
ENDBRANCH  19  22
ENDBRANCH  13  16
ENDBRANCH   1  13
TORSDOF 6
