REMARK  Name = ZINC02022527
REMARK                            x       y       z     vdW  Elec       q    Type
REMARK                         _______ _______ _______ _____ _____    ______ ____
ROOT
ATOM      1  C   LIG    1       -2.294   3.590   4.597  0.00  0.00    -0.078 C 
ENDROOT
BRANCH   1   5
ATOM      2  C   LIG    1       -2.549   1.887   0.684  0.00  0.00    -0.014 C 
ATOM      3  C   LIG    1       -2.212   3.372   0.839  0.00  0.00    -0.015 C 
ATOM      4  C   LIG    1       -2.666   3.852   2.220  0.00  0.00    -0.079 C 
ATOM      5  N   LIG    1       -1.959   3.070   3.256  0.00  0.00    +0.380 N 
ATOM      6  H   LIG    1       -0.947   3.158   3.107  0.00  0.00    -0.082 HD
ATOM      7  C   LIG    1       -2.335   1.643   3.159  0.00  0.00    -0.079 C 
ATOM      8  C   LIG    1       -1.871   1.097   1.807  0.00  0.00    -0.015 C 
BRANCH   2   9
ATOM      9  C   LIG    1       -2.043   1.386  -0.670  0.00  0.00    +0.003 C 
BRANCH   9  10
ATOM     10  C   LIG    1       -2.811   2.087  -1.793  0.00  0.00    -0.000 C 
BRANCH  10  12
ATOM     11  C   LIG    1       -3.073   2.288  -4.269  0.00  0.00    +0.004 C 
ATOM     12  C   LIG    1       -2.305   1.587  -3.147  0.00  0.00    -0.003 C 
ENDBRANCH  10  12
ENDBRANCH   9  10
ENDBRANCH   2   9
ENDBRANCH   1   5
BRANCH   1  13
ATOM     13  C   LIG    1       -2.158   5.114   4.592  0.00  0.00    -0.011 C 
BRANCH  13  14
ATOM     14  C   LIG    1       -2.476   5.659   5.986  0.00  0.00    +0.078 C 
BRANCH  14  15
ATOM     15  C   LIG    1       -2.343   7.160   5.980  0.00  0.00    +0.163 C 
ATOM     16  O   LIG    1       -2.025   7.737   4.962  0.00  0.00    -0.292 OA
BRANCH  15  17
ATOM     17  C   LIG    1       -2.599   7.926   7.211  0.00  0.00    +0.020 A 
ATOM     18  C   LIG    1       -3.088   7.281   8.351  0.00  0.00    +0.011 A 
ATOM     19  C   LIG    1       -3.320   8.005   9.502  0.00  0.00    +0.001 A 
ATOM     20  C   LIG    1       -3.080   9.368   9.527  0.00  0.00    +0.000 A 
ATOM     21  C   LIG    1       -2.602  10.014   8.400  0.00  0.00    +0.004 A 
ATOM     22  C   LIG    1       -2.359   9.304   7.244  0.00  0.00    -0.040 A 
ATOM     23  C   LIG    1       -1.839  10.009   6.018  0.00  0.00    +0.044 C 
ENDBRANCH  15  17
ENDBRANCH  14  15
ENDBRANCH  13  14
ENDBRANCH   1  13
TORSDOF 8
