REMARK  Name = ZINC01999244
REMARK                            x       y       z     vdW  Elec       q    Type
REMARK                         _______ _______ _______ _____ _____    ______ ____
ROOT
ATOM      1  N   LIG    1       -4.717  -1.231   1.548  0.00  0.00    -0.276 N 
ATOM      2  C   LIG    1       -3.986  -0.475   0.645  0.00  0.00    +0.168 A 
ATOM      3  C   LIG    1       -2.974   0.347   1.123  0.00  0.00    +0.152 A 
ATOM      4  N   LIG    1       -2.430   0.972   0.019  0.00  0.00    -0.317 N 
ATOM      5  C   LIG    1       -3.099   0.519  -1.059  0.00  0.00    +0.202 A 
ATOM      6  C   LIG    1       -2.727   0.397   2.512  0.00  0.00    +0.282 A 
ATOM      7  N   LIG    1       -3.472  -0.363   3.341  0.00  0.00    -0.259 N 
ATOM      8  O   LIG    1       -1.849   1.114   2.956  0.00  0.00    -0.265 OA
ATOM      9  N   LIG    1       -4.017  -0.335  -0.683  0.00  0.00    -0.218 NA
ATOM     10  C   LIG    1       -4.445  -1.158   2.864  0.00  0.00    +0.334 A 
ATOM     11  O   LIG    1       -5.097  -1.829   3.642  0.00  0.00    -0.246 OA
ENDROOT
BRANCH   1  12
ATOM     12  C   LIG    1       -5.785  -2.111   1.069  0.00  0.00    +0.128 C 
BRANCH  12  13
ATOM     13  C   LIG    1       -5.209  -3.496   0.766  0.00  0.00    +0.021 C 
BRANCH  13  15
ATOM     14  C   LIG    1       -5.749  -5.800  -0.036  0.00  0.00    +0.004 C 
ATOM     15  C   LIG    1       -6.325  -4.415   0.266  0.00  0.00    -0.002 C 
ENDBRANCH  13  15
ENDBRANCH  12  13
ENDBRANCH   1  12
BRANCH   4  16
ATOM     16  C   LIG    1       -1.329   1.939   0.019  0.00  0.00    +0.197 C 
BRANCH  16  17
ATOM     17  C   LIG    1       -0.014   1.203   0.009  0.00  0.00    +0.150 C 
ATOM     18  C   LIG    1        1.280   1.975   0.000  0.00  0.00    +0.088 C 
ATOM     19  O   LIG    1        0.002  -0.004   0.002  0.00  0.00    -0.296 OA
ENDBRANCH  16  17
ENDBRANCH   4  16
BRANCH   7  20
ATOM     20  C   LIG    1       -3.217  -0.320   4.783  0.00  0.00    +0.130 C 
BRANCH  20  21
ATOM     21  C   LIG    1       -2.180  -1.384   5.149  0.00  0.00    +0.022 C 
BRANCH  21  22
ATOM     22  C   LIG    1       -1.914  -1.339   6.655  0.00  0.00    -0.002 C 
ATOM     23  C   LIG    1       -0.877  -2.403   7.022  0.00  0.00    +0.004 C 
ENDBRANCH  21  22
ENDBRANCH  20  21
ENDBRANCH   7  20
TORSDOF 8
