REMARK  Name = ZINC01758569
REMARK                            x       y       z     vdW  Elec       q    Type
REMARK                         _______ _______ _______ _____ _____    ______ ____
ROOT
ATOM      1  N   LIG    1       -2.784  -3.888   0.008  0.00  0.00    -0.299 N 
ATOM      2  H   LIG    1       -1.989  -4.324   0.353  0.00  0.00    +0.150 HD
ATOM      3  C   LIG    1       -3.800  -4.628  -0.480  0.00  0.00    +0.245 C 
ATOM      4  O   LIG    1       -4.796  -4.082  -0.912  0.00  0.00    -0.270 OA
ENDROOT
BRANCH   3   5
ATOM      5  C   LIG    1       -3.703  -6.103  -0.489  0.00  0.00    +0.037 A 
ATOM      6  C   LIG    1       -2.563  -6.733   0.013  0.00  0.00    +0.013 A 
ATOM      7  C   LIG    1       -2.478  -8.110   0.002  0.00  0.00    +0.001 A 
ATOM      8  C   LIG    1       -3.521  -8.866  -0.505  0.00  0.00    +0.000 A 
ATOM      9  C   LIG    1       -4.653  -8.248  -1.004  0.00  0.00    +0.001 A 
ATOM     10  C   LIG    1       -4.753  -6.872  -0.993  0.00  0.00    +0.013 A 
ENDBRANCH   3   5
BRANCH   1  11
ATOM     11  C   LIG    1       -2.881  -2.427   0.017  0.00  0.00    +0.179 C 
ATOM     12  C   LIG    1       -3.622  -1.972   1.275  0.00  0.00    +0.040 C 
BRANCH  11  13
ATOM     13  C   LIG    1       -1.496  -1.832   0.006  0.00  0.00    +0.327 C 
ATOM     14  O   LIG    1       -0.528  -2.555  -0.007  0.00  0.00    -0.249 OA
BRANCH  13  15
ATOM     15  O   LIG    1       -1.339  -0.499   0.012  0.00  0.00    -0.464 OA
BRANCH  15  17
ATOM     16  C   LIG    1       -0.019   1.526   0.010  0.00  0.00    +0.048 C 
ATOM     17  C   LIG    1        0.002  -0.004   0.002  0.00  0.00    +0.229 C 
ENDBRANCH  15  17
ENDBRANCH  13  15
ENDBRANCH  11  13
ENDBRANCH   1  11
TORSDOF 5
