REMARK  Name = ZINC02141055
REMARK                            x       y       z     vdW  Elec       q    Type
REMARK                         _______ _______ _______ _____ _____    ______ ____
ROOT
ATOM      1  C   LIG    1       -0.019   1.529   0.010  0.00  0.00    +0.016 C 
ATOM      2  C   LIG    1        1.419   2.054  -0.001  0.00  0.00    +0.044 C 
ATOM      3  C   LIG    1        2.118   1.604  -1.287  0.00  0.00    +0.223 C 
ATOM      4  N   LIG    1        2.056   0.137  -1.372  0.00  0.00    -0.241 N 
ATOM      5  H   LIG    1        2.849  -0.390  -1.555  0.00  0.00    +0.291 HD
ATOM      6  C   LIG    1        0.828  -0.464  -1.180  0.00  0.00    +0.236 C 
ATOM      7  N   LIG    1        0.400  -1.386  -1.980  0.00  0.00    -0.293 N 
ATOM      8  H   LIG    1       -0.466  -1.796  -1.829  0.00  0.00    +0.301 HD
ATOM      9  H   LIG    1        0.944  -1.667  -2.732  0.00  0.00    +0.301 HD
ATOM     10  C   LIG    1        0.002  -0.004   0.002  0.00  0.00    +0.123 C 
ENDROOT
TORSDOF 0
