REMARK  Name = ZINC01735106
REMARK                            x       y       z     vdW  Elec       q    Type
REMARK                         _______ _______ _______ _____ _____    ______ ____
ROOT
ATOM      1  N   LIG    1        0.738  -1.966  -1.265  0.00  0.00    +0.385 N 
ATOM      2  H   LIG    1        1.154  -2.301  -0.409  0.00  0.00    -0.081 HD
ATOM      3  C   LIG    1       -0.631  -2.471  -1.371  0.00  0.00    -0.073 C 
ATOM      4  C   LIG    1       -0.667  -3.980  -1.191  0.00  0.00    +0.017 C 
ATOM      5  C   LIG    1        0.497  -4.658  -1.857  0.00  0.00    -0.047 A 
ATOM      6  C   LIG    1        0.514  -6.046  -1.899  0.00  0.00    +0.004 A 
ATOM      7  C   LIG    1        1.547  -6.722  -2.518  0.00  0.00    +0.001 A 
ATOM      8  C   LIG    1        2.579  -6.015  -3.102  0.00  0.00    +0.009 A 
ATOM      9  C   LIG    1        2.580  -4.626  -3.047  0.00  0.00    -0.012 A 
ATOM     10  C   LIG    1        3.681  -3.851  -3.665  0.00  0.00    +0.031 A 
ATOM     11  C   LIG    1        4.535  -4.444  -4.594  0.00  0.00    +0.166 A 
ATOM     12  C   LIG    1        5.550  -3.689  -5.173  0.00  0.00    +0.159 A 
ATOM     13  C   LIG    1        5.704  -2.356  -4.826  0.00  0.00    +0.049 A 
ATOM     14  C   LIG    1        4.860  -1.773  -3.897  0.00  0.00    +0.008 A 
ATOM     15  C   LIG    1        3.856  -2.515  -3.310  0.00  0.00    -0.037 A 
ATOM     16  C   LIG    1        2.950  -1.893  -2.284  0.00  0.00    +0.025 C 
ATOM     17  C   LIG    1        1.529  -3.945  -2.427  0.00  0.00    -0.050 A 
ATOM     18  C   LIG    1        1.529  -2.439  -2.411  0.00  0.00    -0.032 C 
ENDROOT
BRANCH  11  19
ATOM     19  O   LIG    1        4.377  -5.752  -4.931  0.00  0.00    -0.503 OA
ATOM     20  H   LIG    1        3.784  -5.896  -5.682  0.00  0.00    +0.292 HD
ENDBRANCH  11  19
BRANCH  12  21
ATOM     21  O   LIG    1        6.389  -4.258  -6.080  0.00  0.00    -0.503 OA
ATOM     22  H   LIG    1        6.085  -4.189  -6.995  0.00  0.00    +0.292 HD
ENDBRANCH  12  21
BRANCH   1  23
ATOM     23  C   LIG    1        0.718  -0.497  -1.257  0.00  0.00    -0.078 C 
BRANCH  23  25
ATOM     24  C   LIG    1       -0.019   1.526   0.010  0.00  0.00    +0.002 C 
ATOM     25  C   LIG    1        0.002  -0.004   0.002  0.00  0.00    -0.022 C 
ENDBRANCH  23  25
ENDBRANCH   1  23
TORSDOF 4
