REMARK  Name = ZINC02007259
REMARK                            x       y       z     vdW  Elec       q    Type
REMARK                         _______ _______ _______ _____ _____    ______ ____
ROOT
ATOM      1  C   LIG    1        1.117   5.955   0.045  0.00  0.00    +0.140 A 
ATOM      2  C   LIG    1        1.103   7.353   0.244  0.00  0.00    +0.095 A 
ATOM      3  C   LIG    1        2.326   8.008   0.422  0.00  0.00    +0.131 A 
ATOM      4  N   LIG    1        3.441   7.301   0.398  0.00  0.00    -0.222 NA
ATOM      5  C   LIG    1        3.417   5.987   0.209  0.00  0.00    +0.217 A 
ATOM      6  N   LIG    1        2.284   5.322   0.041  0.00  0.00    -0.199 NA
ENDROOT
BRANCH   2   7
ATOM      7  C   LIG    1       -0.165   8.101   0.262  0.00  0.00    +0.246 C 
ATOM      8  N   LIG    1       -0.152   9.449   0.271  0.00  0.00    -0.325 N 
ATOM      9  H   LIG    1       -0.987   9.942   0.283  0.00  0.00    +0.145 HD
ATOM     10  H   LIG    1        0.693   9.926   0.265  0.00  0.00    +0.145 HD
ATOM     11  O   LIG    1       -1.224   7.503   0.269  0.00  0.00    -0.270 OA
ENDBRANCH   2   7
BRANCH   1  12
ATOM     12  N   LIG    1       -0.060   5.259  -0.135  0.00  0.00    -0.299 N 
ATOM     13  H   LIG    1       -0.892   5.740  -0.274  0.00  0.00    +0.154 HD
BRANCH  12  18
ATOM     14  C   LIG    1        1.087   1.784  -0.479  0.00  0.00    +0.002 A 
ATOM     15  C   LIG    1       -0.046   1.094  -0.085  0.00  0.00    +0.012 A 
ATOM     16  C   LIG    1       -1.185   1.785   0.286  0.00  0.00    +0.057 A 
ATOM     17  C   LIG    1       -1.191   3.166   0.276  0.00  0.00    +0.035 A 
ATOM     18  C   LIG    1       -0.056   3.861  -0.119  0.00  0.00    +0.033 A 
ATOM     19  C   LIG    1        1.085   3.164  -0.497  0.00  0.00    +0.023 A 
BRANCH  16  20
ATOM     20  C   LIG    1       -2.419   1.029   0.708  0.00  0.00    +0.417 C 
ATOM     21  F   LIG    1       -3.478   1.352  -0.147  0.00  0.00    -0.166 F 
ATOM     22  F   LIG    1       -2.755   1.381   2.020  0.00  0.00    -0.166 F 
ATOM     23  F   LIG    1       -2.169  -0.346   0.643  0.00  0.00    -0.166 F 
ENDBRANCH  16  20
ENDBRANCH  12  18
ENDBRANCH   1  12
BRANCH   5  24
ATOM     24  N   LIG    1        4.609   5.293   0.193  0.00  0.00    -0.315 N 
ATOM     25  H   LIG    1        4.609   4.333   0.056  0.00  0.00    +0.149 HD
BRANCH  24  26
ATOM     26  C   LIG    1        5.875   6.005   0.382  0.00  0.00    +0.085 C 
BRANCH  26  27
ATOM     27  C   LIG    1        7.035   5.010   0.321  0.00  0.00    -0.067 C 
BRANCH  27  28
ATOM     28  N   LIG    1        8.304   5.740   0.490  0.00  0.00    +0.379 N 
ATOM     29  H   LIG    1        8.412   6.412  -0.278  0.00  0.00    -0.090 HD
ATOM     30  H   LIG    1        9.087   5.088   0.474  0.00  0.00    -0.090 HD
ATOM     31  H   LIG    1        8.301   6.244   1.376  0.00  0.00    -0.090 HD
ENDBRANCH  27  28
ENDBRANCH  26  27
ENDBRANCH  24  26
ENDBRANCH   5  24
TORSDOF 8
