REMARK  Name = ZINC01997139
REMARK                            x       y       z     vdW  Elec       q    Type
REMARK                         _______ _______ _______ _____ _____    ______ ____
ROOT
ATOM      1  C   LIG    1        2.945   0.034  -0.609  0.00  0.00    +0.048 C 
ATOM      2  C   LIG    1        2.562   1.451  -0.265  0.00  0.00    +0.008 A 
ATOM      3  C   LIG    1        3.404   2.493   0.009  0.00  0.00    +0.078 A 
ATOM      4  N   LIG    1        2.616   3.578   0.269  0.00  0.00    -0.230 N 
ATOM      5  N   LIG    1        1.377   3.256   0.163  0.00  0.00    -0.161 NA
ATOM      6  C   LIG    1        1.258   1.983  -0.162  0.00  0.00    +0.152 A 
ENDROOT
BRANCH   4   7
ATOM      7  C   LIG    1        3.089   4.854   0.601  0.00  0.00    +0.084 A 
ATOM      8  C   LIG    1        4.048   5.004   1.594  0.00  0.00    +0.031 A 
ATOM      9  C   LIG    1        4.518   6.262   1.915  0.00  0.00    +0.022 A 
ATOM     10  C   LIG    1        4.025   7.375   1.257  0.00  0.00    +0.042 A 
ATOM     11 CL   LIG    1        4.613   8.956   1.669  0.00  0.00    -0.083 Cl
ATOM     12  C   LIG    1        3.065   7.231   0.271  0.00  0.00    +0.042 A 
ATOM     13  C   LIG    1        2.596   5.973  -0.059  0.00  0.00    +0.068 A 
ATOM     14 CL   LIG    1        1.392   5.792  -1.296  0.00  0.00    -0.081 Cl
ENDBRANCH   4   7
BRANCH   3  15
ATOM     15  C   LIG    1        4.883   2.451   0.027  0.00  0.00    +0.001 A 
ATOM     16  C   LIG    1        5.547   1.512   0.817  0.00  0.00    +0.011 A 
ATOM     17  C   LIG    1        6.926   1.474   0.825  0.00  0.00    +0.015 A 
ATOM     18  C   LIG    1        7.650   2.373   0.061  0.00  0.00    +0.013 A 
ATOM     19  I   LIG    1        9.744   2.313   0.087  0.00  0.00    -0.044 I 
ATOM     20  C   LIG    1        6.997   3.310  -0.720  0.00  0.00    +0.015 A 
ATOM     21  C   LIG    1        5.618   3.354  -0.741  0.00  0.00    +0.011 A 
ENDBRANCH   3  15
BRANCH   6  22
ATOM     22  C   LIG    1       -0.005   1.248  -0.372  0.00  0.00    +0.278 C 
ATOM     23  N   LIG    1       -1.186   1.885  -0.239  0.00  0.00    -0.243 N 
ATOM     24  H   LIG    1       -1.205   2.826  -0.002  0.00  0.00    +0.170 HD
ATOM     25  O   LIG    1        0.019   0.070  -0.669  0.00  0.00    -0.267 OA
BRANCH  23  26
ATOM     26  N   LIG    1       -2.354   1.207  -0.439  0.00  0.00    -0.227 NA
ATOM     27  C   LIG    1       -3.084   1.745  -1.594  0.00  0.00    +0.105 C 
ATOM     28  C   LIG    1       -4.310   0.873  -1.877  0.00  0.00    +0.017 C 
ATOM     29  C   LIG    1       -5.214   0.857  -0.641  0.00  0.00    +0.003 C 
ATOM     30  C   LIG    1       -4.416   0.338   0.559  0.00  0.00    +0.017 C 
ATOM     31  C   LIG    1       -3.187   1.225   0.770  0.00  0.00    +0.105 C 
ENDBRANCH  23  26
ENDBRANCH   6  22
TORSDOF 4
