REMARK  Name = ZINC02371739
REMARK                            x       y       z     vdW  Elec       q    Type
REMARK                         _______ _______ _______ _____ _____    ______ ____
ROOT
ATOM      1  C   LIG    1        4.671   1.379  -0.158  0.00  0.00    +0.129 A 
ATOM      2  C   LIG    1        4.649  -0.004  -0.276  0.00  0.00    +0.048 A 
ATOM      3  C   LIG    1        5.834  -0.704  -0.394  0.00  0.00    +0.031 A 
ATOM      4  C   LIG    1        7.041  -0.029  -0.392  0.00  0.00    +0.094 A 
ATOM      5  C   LIG    1        7.065   1.348  -0.274  0.00  0.00    +0.031 A 
ATOM      6  C   LIG    1        5.883   2.054  -0.163  0.00  0.00    +0.048 A 
ENDROOT
BRANCH   4   7
ATOM      7  S   LIG    1        8.550  -0.926  -0.541  0.00  0.00    +0.025 S 
ATOM      8  O   LIG    1        8.284  -2.247  -0.089  0.00  0.00    -0.164 OA
ATOM      9  O   LIG    1        9.564  -0.114   0.035  0.00  0.00    -0.164 OA
BRANCH   7  10
ATOM     10  C   LIG    1        8.917  -1.046  -2.260  0.00  0.00    +0.094 A 
ATOM     11  C   LIG    1        8.439  -2.119  -2.992  0.00  0.00    +0.028 A 
ATOM     12  C   LIG    1        8.719  -2.226  -4.342  0.00  0.00    +0.017 A 
ATOM     13  C   LIG    1        9.488  -1.251  -4.973  0.00  0.00    +0.073 A 
ATOM     14  C   LIG    1        9.975  -0.159  -4.228  0.00  0.00    +0.075 A 
ATOM     15  C   LIG    1        9.677  -0.065  -2.871  0.00  0.00    +0.043 A 
BRANCH  13  16
ATOM     16  C   LIG    1        9.790  -1.361  -6.415  0.00  0.00    +0.338 C 
ATOM     17  O   LIG    1        9.286  -2.255  -7.079  0.00  0.00    -0.245 OA
BRANCH  16  18
ATOM     18  O   LIG    1       10.546  -0.559  -6.944  0.00  0.00    -0.477 OA
ATOM     19  H   LIG    1       10.933   0.126  -6.435  0.00  0.00    +0.295 HD
ENDBRANCH  16  18
ENDBRANCH  13  16
BRANCH  14  20
ATOM     20  C   LIG    1       10.792   0.883  -4.884  0.00  0.00    +0.338 C 
ATOM     21  O   LIG    1       12.012   0.816  -4.848  0.00  0.00    -0.245 OA
BRANCH  20  22
ATOM     22  O   LIG    1       10.247   1.813  -5.462  0.00  0.00    -0.477 OA
ATOM     23  H   LIG    1        9.312   1.864  -5.489  0.00  0.00    +0.295 HD
ENDBRANCH  20  22
ENDBRANCH  14  20
ENDBRANCH   7  10
ENDBRANCH   4   7
BRANCH   1  24
ATOM     24  O   LIG    1        3.507   2.070  -0.042  0.00  0.00    -0.456 OA
BRANCH  24  27
ATOM     25  C   LIG    1        4.001   5.461  -1.251  0.00  0.00    +0.018 A 
ATOM     26  C   LIG    1        3.940   4.086  -1.227  0.00  0.00    +0.047 A 
ATOM     27  C   LIG    1        3.567   3.425  -0.061  0.00  0.00    +0.128 A 
ATOM     28  C   LIG    1        3.254   4.150   1.084  0.00  0.00    +0.047 A 
ATOM     29  C   LIG    1        3.312   5.524   1.069  0.00  0.00    +0.018 A 
ATOM     30  C   LIG    1        3.687   6.194  -0.102  0.00  0.00    +0.059 A 
BRANCH  30  31
ATOM     31  C   LIG    1        3.751   7.664  -0.123  0.00  0.00    +0.337 C 
ATOM     32  O   LIG    1        4.080   8.248  -1.147  0.00  0.00    -0.245 OA
BRANCH  31  33
ATOM     33  O   LIG    1        3.477   8.303   0.884  0.00  0.00    -0.477 OA
ATOM     34  H   LIG    1        3.225   7.857   1.668  0.00  0.00    +0.295 HD
ENDBRANCH  31  33
ENDBRANCH  30  31
ENDBRANCH  24  27
ENDBRANCH   1  24
TORSDOF 10
