REMARK  Name = ZINC01693809
REMARK                            x       y       z     vdW  Elec       q    Type
REMARK                         _______ _______ _______ _____ _____    ______ ____
ROOT
ATOM      1  C   LIG    1        1.369  -1.702   1.144  0.00  0.00    -0.001 A 
ATOM      2  C   LIG    1        1.971  -1.326   2.329  0.00  0.00    +0.027 A 
ATOM      3  C   LIG    1        2.019  -2.210   3.393  0.00  0.00    +0.041 A 
ATOM      4 CL   LIG    1        2.775  -1.734   4.881  0.00  0.00    -0.084 Cl
ATOM      5  C   LIG    1        1.464  -3.471   3.272  0.00  0.00    +0.023 A 
ATOM      6  C   LIG    1        0.861  -3.852   2.088  0.00  0.00    +0.047 A 
ATOM      7  C   LIG    1        0.807  -2.965   1.022  0.00  0.00    +0.125 A 
ENDROOT
BRANCH   1   8
ATOM      8  C   LIG    1        1.317  -0.740  -0.015  0.00  0.00    +0.065 C 
BRANCH   8  10
ATOM      9  C   LIG    1       -0.016   1.306   0.009  0.00  0.00    +0.004 C 
ATOM     10  C   LIG    1        0.002  -0.004   0.002  0.00  0.00    -0.030 C 
ENDBRANCH   8  10
ENDBRANCH   1   8
BRANCH   7  11
ATOM     11  O   LIG    1        0.209  -3.335  -0.141  0.00  0.00    -0.481 OA
BRANCH  11  12
ATOM     12  C   LIG    1       -0.348  -4.649  -0.194  0.00  0.00    +0.349 C 
BRANCH  12  13
ATOM     13  C   LIG    1       -0.963  -4.880  -1.551  0.00  0.00    +0.343 C 
ATOM     14  O   LIG    1       -0.927  -4.007  -2.386  0.00  0.00    -0.247 OA
BRANCH  13  15
ATOM     15  O   LIG    1       -1.550  -6.054  -1.831  0.00  0.00    -0.478 OA
ATOM     16  H   LIG    1       -1.577  -6.730  -1.184  0.00  0.00    +0.295 HD
ENDBRANCH  13  15
ENDBRANCH  12  13
ENDBRANCH  11  12
ENDBRANCH   7  11
TORSDOF 6
