REMARK  Name = ZINC02023765
REMARK                            x       y       z     vdW  Elec       q    Type
REMARK                         _______ _______ _______ _____ _____    ______ ____
ROOT
ATOM      1  C   LIG    1       -2.123   8.225   0.065  0.00  0.00    +0.044 C 
ATOM      2  C   LIG    1       -0.876   7.378   0.049  0.00  0.00    -0.050 A 
ATOM      3  C   LIG    1        0.371   7.987   0.040  0.00  0.00    +0.007 A 
ATOM      4  C   LIG    1        1.523   7.229   0.025  0.00  0.00    +0.047 A 
ATOM      5  C   LIG    1        1.442   5.841   0.019  0.00  0.00    +0.139 A 
ATOM      6  C   LIG    1        0.177   5.226   0.028  0.00  0.00    +0.019 A 
ATOM      7  C   LIG    1        0.075   3.812   0.016  0.00  0.00    +0.033 A 
ATOM      8  C   LIG    1        1.239   3.061   0.007  0.00  0.00    +0.144 A 
ATOM      9  C   LIG    1        2.530   3.759  -0.002  0.00  0.00    +0.351 A 
ATOM     10  O   LIG    1        3.565   3.119  -0.015  0.00  0.00    -0.244 OA
ATOM     11  O   LIG    1        2.571   5.101   0.004  0.00  0.00    -0.422 OA
ATOM     12  C   LIG    1       -0.982   6.017   0.043  0.00  0.00    +0.015 A 
ENDROOT
BRANCH   8  13
ATOM     13  C   LIG    1        1.181   1.591  -0.001  0.00  0.00    +0.344 C 
ATOM     14  O   LIG    1        2.210   0.943  -0.014  0.00  0.00    -0.245 OA
BRANCH  13  15
ATOM     15  O   LIG    1       -0.011   0.963   0.007  0.00  0.00    -0.477 OA
ATOM     16  H   LIG    1       -0.804   1.462   0.018  0.00  0.00    +0.295 HD
ENDBRANCH  13  15
ENDBRANCH   8  13
TORSDOF 2
