REMARK  Name = ZINC02149990
REMARK                            x       y       z     vdW  Elec       q    Type
REMARK                         _______ _______ _______ _____ _____    ______ ____
ROOT
ATOM      1  S   LIG    1        1.119  -2.594  -0.030  0.00  0.00    +0.059 S 
ATOM      2  O   LIG    1        1.987  -2.825  -1.131  0.00  0.00    -0.153 OA
ATOM      3  O   LIG    1       -0.135  -3.248   0.101  0.00  0.00    -0.153 OA
ENDROOT
BRANCH   1  12
ATOM      4  C   LIG    1       -0.770   0.956   0.107  0.00  0.00    +0.003 A 
ATOM      5  C   LIG    1        0.230   1.879   0.041  0.00  0.00    +0.010 A 
ATOM      6  C   LIG    1        1.563   1.449  -0.051  0.00  0.00    +0.002 A 
ATOM      7  C   LIG    1        2.635   2.353  -0.122  0.00  0.00    +0.119 A 
ATOM      8  N   LIG    1        3.865   1.903  -0.207  0.00  0.00    -0.263 NA
ATOM      9  C   LIG    1        4.157   0.609  -0.230  0.00  0.00    +0.111 A 
ATOM     10  C   LIG    1        3.189  -0.347  -0.166  0.00  0.00    +0.030 A 
ATOM     11  C   LIG    1        1.845   0.058  -0.074  0.00  0.00    +0.011 A 
ATOM     12  C   LIG    1        0.790  -0.863  -0.003  0.00  0.00    +0.113 A 
ATOM     13  C   LIG    1       -0.491  -0.409   0.085  0.00  0.00    +0.029 A 
ENDBRANCH   1  12
BRANCH   1  14
ATOM     14  N   LIG    1        1.984  -2.949   1.337  0.00  0.00    -0.192 NA
ATOM     15  H   LIG    1        2.891  -3.283   1.264  0.00  0.00    +0.148 HD
BRANCH  14  16
ATOM     16  C   LIG    1        1.377  -2.759   2.657  0.00  0.00    +0.086 C 
BRANCH  16  17
ATOM     17  C   LIG    1        2.193  -3.516   3.707  0.00  0.00    -0.069 C 
BRANCH  17  18
ATOM     18  N   LIG    1        1.585  -3.326   5.030  0.00  0.00    +0.379 N 
ATOM     19  H   LIG    1        2.123  -3.825   5.723  0.00  0.00    -0.090 HD
ATOM     20  H   LIG    1        0.640  -3.678   5.020  0.00  0.00    -0.090 HD
ATOM     21  H   LIG    1        1.575  -2.342   5.257  0.00  0.00    -0.090 HD
ENDBRANCH  17  18
ENDBRANCH  16  17
ENDBRANCH  14  16
ENDBRANCH   1  14
TORSDOF 5
