REMARK  Name = ZINC02272127
REMARK                            x       y       z     vdW  Elec       q    Type
REMARK                         _______ _______ _______ _____ _____    ______ ____
ROOT
ATOM      1  C   LIG    1       -2.913  -0.130   0.014  0.00  0.00    +0.114 C 
ENDROOT
BRANCH   1   2
ATOM      2  N   LIG    1       -2.539   1.287   0.021  0.00  0.00    -0.264 N 
ATOM      3  C   LIG    1       -1.226   1.752   0.017  0.00  0.00    +0.048 A 
ATOM      4  C   LIG    1       -0.013   1.076   0.008  0.00  0.00    +0.024 A 
ATOM      5  C   LIG    1        1.176   1.781   0.000  0.00  0.00    +0.002 A 
ATOM      6  C   LIG    1        1.177   3.166   0.007  0.00  0.00    +0.001 A 
ATOM      7  C   LIG    1       -0.017   3.858   0.022  0.00  0.00    +0.014 A 
ATOM      8  C   LIG    1       -1.223   3.156   0.030  0.00  0.00    +0.048 A 
ATOM      9  C   LIG    1       -2.635   3.580   0.046  0.00  0.00    +0.250 C 
ATOM     10  O   LIG    1       -3.067   4.715   0.056  0.00  0.00    -0.282 OA
ATOM     11  C   LIG    1       -3.420   2.302   0.030  0.00  0.00    +0.291 C 
ATOM     12  O   LIG    1       -4.629   2.203   0.035  0.00  0.00    -0.266 OA
ENDBRANCH   1   2
BRANCH   1  13
ATOM     13  C   LIG    1       -3.036  -0.631   1.454  0.00  0.00    +0.019 C 
BRANCH  13  14
ATOM     14  C   LIG    1       -3.427  -2.110   1.448  0.00  0.00    +0.002 C 
BRANCH  14  15
ATOM     15  C   LIG    1       -3.550  -2.612   2.888  0.00  0.00    +0.000 C 
BRANCH  15  16
ATOM     16  C   LIG    1       -3.941  -4.091   2.881  0.00  0.00    +0.000 C 
BRANCH  16  17
ATOM     17  C   LIG    1       -4.064  -4.593   4.321  0.00  0.00    +0.000 C 
BRANCH  17  18
ATOM     18  C   LIG    1       -4.455  -6.072   4.314  0.00  0.00    -0.000 C 
BRANCH  18  19
ATOM     19  C   LIG    1       -4.579  -6.573   5.755  0.00  0.00    -0.000 C 
BRANCH  19  20
ATOM     20  C   LIG    1       -4.969  -8.053   5.748  0.00  0.00    -0.000 C 
BRANCH  20  21
ATOM     21  C   LIG    1       -5.093  -8.554   7.188  0.00  0.00    -0.000 C 
BRANCH  21  23
ATOM     22  C   LIG    1       -5.607 -10.535   8.621  0.00  0.00    +0.004 C 
ATOM     23  C   LIG    1       -5.483 -10.034   7.181  0.00  0.00    -0.003 C 
ENDBRANCH  21  23
ENDBRANCH  20  21
ENDBRANCH  19  20
ENDBRANCH  18  19
ENDBRANCH  17  18
ENDBRANCH  16  17
ENDBRANCH  15  16
ENDBRANCH  14  15
ENDBRANCH  13  14
ENDBRANCH   1  13
TORSDOF 11
