REMARK  Name = ZINC01843091
REMARK                            x       y       z     vdW  Elec       q    Type
REMARK                         _______ _______ _______ _____ _____    ______ ____
ROOT
ATOM      1  N   LIG    1        5.453  -1.680   1.382  0.00  0.00    +0.380 N 
ATOM      2  H   LIG    1        5.359  -2.523   0.835  0.00  0.00    -0.082 HD
ATOM      3  C   LIG    1        6.484  -0.824   0.782  0.00  0.00    -0.078 C 
ATOM      4  C   LIG    1        7.802  -1.595   0.688  0.00  0.00    -0.012 C 
ATOM      5  C   LIG    1        8.241  -2.017   2.093  0.00  0.00    +0.019 C 
ATOM      6  C   LIG    1        7.128  -2.848   2.737  0.00  0.00    -0.012 C 
ATOM      7  C   LIG    1        5.835  -2.031   2.755  0.00  0.00    -0.078 C 
ENDROOT
BRANCH   1   8
ATOM      8  C   LIG    1        4.171  -0.963   1.399  0.00  0.00    -0.074 C 
BRANCH   8   9
ATOM      9  C   LIG    1        3.711  -0.707  -0.038  0.00  0.00    +0.016 C 
BRANCH   9  13
ATOM     10  C   LIG    1       -0.017   1.378   0.010  0.00  0.00    +0.000 A 
ATOM     11  C   LIG    1        1.171   2.086   0.002  0.00  0.00    +0.000 A 
ATOM     12  C   LIG    1        2.377   1.411  -0.013  0.00  0.00    +0.003 A 
ATOM     13  C   LIG    1        2.396   0.029  -0.020  0.00  0.00    -0.049 A 
ATOM     14  C   LIG    1        1.208  -0.679  -0.012  0.00  0.00    +0.003 A 
ATOM     15  C   LIG    1        0.002  -0.004   0.002  0.00  0.00    +0.000 A 
ENDBRANCH   9  13
ENDBRANCH   8   9
ENDBRANCH   1   8
BRANCH   5  16
ATOM     16  C   LIG    1        9.517  -2.857   1.999  0.00  0.00    +0.147 C 
BRANCH  16  17
ATOM     17  C   LIG    1        9.948  -3.272   3.382  0.00  0.00    -0.019 A 
ATOM     18  C   LIG    1       10.629  -2.381   4.190  0.00  0.00    +0.006 A 
ATOM     19  C   LIG    1       11.025  -2.761   5.459  0.00  0.00    +0.000 A 
ATOM     20  C   LIG    1       10.739  -4.033   5.919  0.00  0.00    +0.000 A 
ATOM     21  C   LIG    1       10.057  -4.924   5.112  0.00  0.00    +0.000 A 
ATOM     22  C   LIG    1        9.658  -4.542   3.845  0.00  0.00    +0.006 A 
ENDBRANCH  16  17
BRANCH  16  23
ATOM     23  O   LIG    1       10.553  -2.083   1.389  0.00  0.00    -0.387 OA
ATOM     24  H   LIG    1       10.777  -1.276   1.872  0.00  0.00    +0.210 HD
ENDBRANCH  16  23
ENDBRANCH   5  16
TORSDOF 6
