REMARK  Name = ZINC02003124
REMARK                            x       y       z     vdW  Elec       q    Type
REMARK                         _______ _______ _______ _____ _____    ______ ____
ROOT
ATOM      1  N   LIG    1        4.108  -0.941  -1.434  0.00  0.00    +0.383 N 
ATOM      2  H   LIG    1        4.217  -0.038  -1.910  0.00  0.00    -0.085 HD
ATOM      3  H   LIG    1        3.385  -1.493  -1.910  0.00  0.00    -0.085 HD
ENDROOT
BRANCH   1   4
ATOM      4  C   LIG    1        5.388  -1.673  -1.480  0.00  0.00    -0.063 C 
BRANCH   4   5
ATOM      5  C   LIG    1        5.784  -1.900  -2.940  0.00  0.00    +0.082 C 
BRANCH   5   6
ATOM      6  N   LIG    1        7.054  -2.627  -2.994  0.00  0.00    -0.346 N 
ATOM      7  H   LIG    1        7.502  -2.883  -2.173  0.00  0.00    +0.146 HD
BRANCH   6  11
ATOM      8  C   LIG    1        8.744  -3.595  -6.675  0.00  0.00    +0.000 A 
ATOM      9  C   LIG    1        9.384  -3.960  -5.504  0.00  0.00    +0.002 A 
ATOM     10  C   LIG    1        8.826  -3.641  -4.282  0.00  0.00    +0.023 A 
ATOM     11  C   LIG    1        7.621  -2.951  -4.229  0.00  0.00    +0.027 A 
ATOM     12  C   LIG    1        6.979  -2.591  -5.406  0.00  0.00    +0.023 A 
ATOM     13  C   LIG    1        7.544  -2.909  -6.625  0.00  0.00    +0.002 A 
ENDBRANCH   6  11
ENDBRANCH   5   6
ENDBRANCH   4   5
ENDBRANCH   1   4
BRANCH   1  14
ATOM     14  C   LIG    1        3.701  -0.708  -0.036  0.00  0.00    -0.047 C 
BRANCH  14  15
ATOM     15  C   LIG    1        2.393   0.040  -0.020  0.00  0.00    -0.061 A 
ATOM     16  C   LIG    1        1.198  -0.665  -0.013  0.00  0.00    +0.002 A 
ATOM     17  C   LIG    1        0.002  -0.004   0.002  0.00  0.00    +0.012 A 
ATOM     18  C   LIG    1       -0.017   1.394   0.010  0.00  0.00    +0.018 A 
ATOM     19  C   LIG    1       -1.283   2.133   0.032  0.00  0.00    +0.018 A 
ATOM     20  C   LIG    1       -1.233   3.489   0.034  0.00  0.00    +0.092 A 
ATOM     21  C   LIG    1        0.017   4.146   0.026  0.00  0.00    +0.337 A 
ATOM     22  O   LIG    1        1.171   3.462   0.010  0.00  0.00    -0.422 OA
ATOM     23  O   LIG    1        0.048   5.363   0.033  0.00  0.00    -0.245 OA
ATOM     24  C   LIG    1        1.192   2.112   0.002  0.00  0.00    +0.139 A 
ATOM     25  C   LIG    1        2.395   1.419  -0.013  0.00  0.00    +0.048 A 
ENDBRANCH  14  15
ENDBRANCH   1  14
TORSDOF 6
