REMARK  Name = ZINC02154614
REMARK                            x       y       z     vdW  Elec       q    Type
REMARK                         _______ _______ _______ _____ _____    ______ ____
ROOT
ATOM      1  C   LIG    1        2.323  -4.391  -0.045  0.00  0.00    +0.089 C 
ENDROOT
BRANCH   1   2
ATOM      2  C   LIG    1        3.639  -5.119   0.063  0.00  0.00    -0.032 A 
ATOM      3  C   LIG    1        4.608  -4.942  -0.907  0.00  0.00    +0.005 A 
ATOM      4  C   LIG    1        5.816  -5.606  -0.807  0.00  0.00    +0.003 A 
ATOM      5  C   LIG    1        6.051  -6.454   0.259  0.00  0.00    +0.032 A 
ATOM      6  C   LIG    1        5.081  -6.635   1.226  0.00  0.00    +0.122 A 
ATOM      7  C   LIG    1        3.874  -5.968   1.128  0.00  0.00    +0.037 A 
BRANCH   6   8
ATOM      8  N   LIG    1        5.333  -7.544   2.367  0.00  0.00    +0.006 N 
ATOM      9  O   LIG    1        4.477  -7.704   3.219  0.00  0.00    -0.130 OA
BRANCH   8  10
ATOM     10  O   LIG    1        6.396  -8.132   2.454  0.00  0.00    -0.396 OA
ATOM     11  H   LIG    1        7.054  -8.009   1.799  0.00  0.00    +0.329 HD
ENDBRANCH   8  10
ENDBRANCH   6   8
ENDBRANCH   1   2
BRANCH   1  12
ATOM     12  C   LIG    1        2.573  -2.882  -0.038  0.00  0.00    +0.099 C 
BRANCH  12  13
ATOM     13  C   LIG    1        1.254  -2.154  -0.022  0.00  0.00    +0.165 C 
ATOM     14  O   LIG    1        0.216  -2.781  -0.016  0.00  0.00    -0.292 OA
BRANCH  13  18
ATOM     15  C   LIG    1        1.170   2.087   0.002  0.00  0.00    -0.047 A 
ATOM     16  C   LIG    1       -0.017   1.375   0.010  0.00  0.00    +0.004 A 
ATOM     17  C   LIG    1        0.002  -0.004   0.002  0.00  0.00    +0.011 A 
ATOM     18  C   LIG    1        1.225  -0.683  -0.013  0.00  0.00    +0.017 A 
ATOM     19  C   LIG    1        2.420   0.043  -0.021  0.00  0.00    +0.011 A 
ATOM     20  C   LIG    1        2.384   1.422  -0.013  0.00  0.00    +0.004 A 
BRANCH  15  21
ATOM     21  C   LIG    1        1.141   3.593   0.010  0.00  0.00    +0.038 C 
BRANCH  21  23
ATOM     22  C   LIG    1        2.466   3.713   2.125  0.00  0.00    +0.007 C 
ATOM     23  C   LIG    1        1.144   4.096   1.455  0.00  0.00    -0.013 C 
ATOM     24  C   LIG    1        0.989   5.618   1.466  0.00  0.00    +0.007 C 
ENDBRANCH  21  23
ENDBRANCH  15  21
ENDBRANCH  13  18
ENDBRANCH  12  13
ENDBRANCH   1  12
BRANCH   1  25
ATOM     25  S   LIG    1        1.497  -4.861  -1.590  0.00  0.00    -0.115 S 
BRANCH  25  26
ATOM     26  C   LIG    1        1.149  -6.576  -1.383  0.00  0.00    +0.029 A 
ATOM     27  C   LIG    1        1.516  -7.224  -0.213  0.00  0.00    +0.016 A 
ATOM     28  C   LIG    1        1.242  -8.570  -0.053  0.00  0.00    +0.001 A 
ATOM     29  C   LIG    1        0.602  -9.273  -1.056  0.00  0.00    +0.002 A 
ATOM     30  C   LIG    1        0.232  -8.635  -2.226  0.00  0.00    +0.024 A 
ATOM     31  C   LIG    1        0.498  -7.285  -2.393  0.00  0.00    +0.038 A 
BRANCH  31  32
ATOM     32  N   LIG    1        0.120  -6.636  -3.575  0.00  0.00    -0.357 N 
ATOM     33  H   LIG    1       -0.332  -7.130  -4.277  0.00  0.00    +0.142 HD
ATOM     34  H   LIG    1        0.311  -5.692  -3.692  0.00  0.00    +0.142 HD
ENDBRANCH  31  32
ENDBRANCH  25  26
ENDBRANCH   1  25
TORSDOF 11
