REMARK  Name = ZINC02379869
REMARK                            x       y       z     vdW  Elec       q    Type
REMARK                         _______ _______ _______ _____ _____    ______ ____
ROOT
ATOM      1  C   LIG    1       -1.332   2.114   0.020  0.00  0.00    +0.132 C 
ENDROOT
BRANCH   1   2
ATOM      2  C   LIG    1       -1.764   2.351   1.444  0.00  0.00    +0.220 A 
ATOM      3  N   LIG    1       -1.458   3.386   2.155  0.00  0.00    -0.137 NA
ATOM      4  N   LIG    1       -2.051   3.232   3.417  0.00  0.00    -0.237 N 
ATOM      5  H   LIG    1       -1.922   4.010   4.184  0.00  0.00    +0.193 HD
ATOM      6  C   LIG    1       -2.705   2.051   3.397  0.00  0.00    +0.264 A 
ATOM      7  S   LIG    1       -3.601   1.365   4.685  0.00  0.00    +0.011 S 
ATOM      8  O   LIG    1       -2.523   1.515   2.178  0.00  0.00    -0.416 OA
ENDBRANCH   1   2
BRANCH   1  12
ATOM      9  C   LIG    1        2.396   0.029  -0.022  0.00  0.00    +0.000 A 
ATOM     10  C   LIG    1        1.208  -0.679  -0.014  0.00  0.00    +0.000 A 
ATOM     11  C   LIG    1        0.002  -0.004   0.002  0.00  0.00    +0.004 A 
ATOM     12  C   LIG    1       -0.017   1.378   0.010  0.00  0.00    -0.038 A 
ATOM     13  C   LIG    1        1.171   2.086   0.002  0.00  0.00    +0.004 A 
ATOM     14  C   LIG    1        2.377   1.411  -0.014  0.00  0.00    +0.000 A 
ENDBRANCH   1  12
TORSDOF 2
