REMARK  Name = ZINC01677751
REMARK                            x       y       z     vdW  Elec       q    Type
REMARK                         _______ _______ _______ _____ _____    ______ ____
ROOT
ATOM      1  N   LIG    1       -1.413  -1.998   0.005  0.00  0.00    -0.298 N 
ATOM      2  C   LIG    1       -1.530  -2.636  -1.227  0.00  0.00    +0.048 A 
ATOM      3  C   LIG    1       -2.119  -1.954  -2.285  0.00  0.00    +0.024 A 
ATOM      4  C   LIG    1       -2.241  -2.555  -3.523  0.00  0.00    +0.002 A 
ATOM      5  C   LIG    1       -1.772  -3.839  -3.723  0.00  0.00    +0.001 A 
ATOM      6  C   LIG    1       -1.180  -4.527  -2.679  0.00  0.00    +0.017 A 
ATOM      7  C   LIG    1       -1.056  -3.931  -1.432  0.00  0.00    +0.034 A 
ATOM      8  S   LIG    1       -0.301  -4.824  -0.115  0.00  0.00    -0.086 S 
ATOM      9  C   LIG    1       -0.787  -3.943   1.330  0.00  0.00    +0.034 A 
ATOM     10  C   LIG    1       -0.671  -4.550   2.572  0.00  0.00    +0.018 A 
ATOM     11  C   LIG    1       -1.051  -3.872   3.716  0.00  0.00    +0.021 A 
ATOM     12  C   LIG    1       -1.549  -2.585   3.622  0.00  0.00    +0.043 A 
ATOM     13 CL   LIG    1       -2.026  -1.734   5.058  0.00  0.00    -0.083 Cl
ATOM     14  C   LIG    1       -1.667  -1.974   2.387  0.00  0.00    +0.044 A 
ATOM     15  C   LIG    1       -1.285  -2.646   1.230  0.00  0.00    +0.049 A 
ENDROOT
BRANCH   1  16
ATOM     16  C   LIG    1       -1.433  -0.534   0.013  0.00  0.00    +0.109 C 
BRANCH  16  17
ATOM     17  C   LIG    1       -2.876  -0.044   0.155  0.00  0.00    +0.001 C 
BRANCH  17  18
ATOM     18  C   LIG    1       -2.897   1.486   0.163  0.00  0.00    -0.075 C 
BRANCH  18  20
ATOM     19  C   LIG    1       -4.849   1.452   1.557  0.00  0.00    -0.093 C 
ATOM     20  N   LIG    1       -4.282   1.956   0.299  0.00  0.00    +0.374 N 
ATOM     21  C   LIG    1       -5.080   1.462  -0.831  0.00  0.00    -0.093 C 
ATOM     22  C   LIG    1       -4.302   3.425   0.307  0.00  0.00    -0.093 C 
ENDBRANCH  18  20
ENDBRANCH  17  18
ENDBRANCH  16  17
ENDBRANCH   1  16
TORSDOF 4
