REMARK  Name = ZINC02339893
REMARK                            x       y       z     vdW  Elec       q    Type
REMARK                         _______ _______ _______ _____ _____    ______ ____
ROOT
ATOM      1  C   LIG    1        3.689  -0.676  -0.037  0.00  0.00    +0.023 C 
ATOM      2  C   LIG    1        3.715  -2.038   0.058  0.00  0.00    +0.070 C 
ATOM      3  C   LIG    1        2.549  -2.941   0.073  0.00  0.00    +0.198 C 
ATOM      4  C   LIG    1        3.058  -4.331   0.190  0.00  0.00    +0.033 A 
ATOM      5  C   LIG    1        2.390  -5.551   0.247  0.00  0.00    +0.013 A 
ATOM      6  C   LIG    1        3.103  -6.730   0.359  0.00  0.00    +0.016 A 
ATOM      7  C   LIG    1        4.497  -6.705   0.413  0.00  0.00    +0.060 A 
ATOM      8  C   LIG    1        5.177  -5.486   0.356  0.00  0.00    +0.027 A 
ATOM      9  C   LIG    1        4.463  -4.299   0.244  0.00  0.00    +0.034 A 
ATOM     10  O   LIG    1        1.383  -2.607   0.003  0.00  0.00    -0.287 OA
ATOM     11  C   LIG    1        4.916  -2.889   0.159  0.00  0.00    +0.198 C 
ATOM     12  O   LIG    1        6.069  -2.505   0.174  0.00  0.00    -0.287 OA
ENDROOT
BRANCH   1  16
ATOM     13  C   LIG    1        0.001   1.396   0.221  0.00  0.00    +0.000 A 
ATOM     14  C   LIG    1        0.239   0.309   1.045  0.00  0.00    +0.001 A 
ATOM     15  C   LIG    1        1.435  -0.371   0.968  0.00  0.00    +0.008 A 
ATOM     16  C   LIG    1        2.412   0.041   0.052  0.00  0.00    -0.024 A 
ATOM     17  C   LIG    1        2.163   1.142  -0.777  0.00  0.00    +0.008 A 
ATOM     18  C   LIG    1        0.961   1.810  -0.686  0.00  0.00    +0.001 A 
ENDBRANCH   1  16
BRANCH   7  19
ATOM     19  C   LIG    1        5.255  -7.968   0.532  0.00  0.00    +0.337 C 
ATOM     20  O   LIG    1        4.660  -9.035   0.583  0.00  0.00    -0.245 OA
BRANCH  19  21
ATOM     21  O   LIG    1        6.476  -7.946   0.580  0.00  0.00    -0.477 OA
ATOM     22  H   LIG    1        6.932  -7.129   0.541  0.00  0.00    +0.295 HD
ENDBRANCH  19  21
ENDBRANCH   7  19
TORSDOF 3
