REMARK  Name = ZINC02034700
REMARK                            x       y       z     vdW  Elec       q    Type
REMARK                         _______ _______ _______ _____ _____    ______ ____
ROOT
ATOM      1  C   LIG    1        3.247  -1.860  -0.039  0.00  0.00    +0.006 A 
ATOM      2  C   LIG    1        1.876  -1.723  -0.025  0.00  0.00    +0.026 A 
ATOM      3  C   LIG    1        1.303  -0.454  -0.013  0.00  0.00    +0.050 A 
ATOM      4  C   LIG    1        2.134   0.679  -0.015  0.00  0.00    +0.044 A 
ATOM      5  C   LIG    1        1.239   1.839   0.000  0.00  0.00    -0.021 A 
ATOM      6  C   LIG    1       -0.017   1.365   0.009  0.00  0.00    +0.087 A 
ATOM      7  C   LIG    1        3.526   0.525  -0.028  0.00  0.00    +0.126 A 
ATOM      8  N   LIG    1        0.002  -0.004   0.002  0.00  0.00    -0.360 N 
ATOM      9  H   LIG    1       -0.784  -0.572   0.006  0.00  0.00    +0.165 HD
ATOM     10  C   LIG    1        4.071  -0.744  -0.041  0.00  0.00    +0.046 A 
ENDROOT
BRANCH   7  11
ATOM     11  O   LIG    1        4.335   1.617  -0.030  0.00  0.00    -0.506 OA
ATOM     12  H   LIG    1        4.561   1.938  -0.913  0.00  0.00    +0.292 HD
ENDBRANCH   7  11
BRANCH   5  13
ATOM     13  C   LIG    1        1.650   3.289   0.003  0.00  0.00    +0.018 C 
BRANCH  13  14
ATOM     14  C   LIG    1        1.896   3.752  -1.434  0.00  0.00    -0.082 C 
BRANCH  14  15
ATOM     15  N   LIG    1        2.276   5.176  -1.421  0.00  0.00    +0.378 N 
ATOM     16  H   LIG    1        1.504   5.728  -1.029  0.00  0.00    -0.090 HD
ATOM     17  H   LIG    1        2.466   5.496  -2.369  0.00  0.00    -0.090 HD
ATOM     18  H   LIG    1        3.106   5.311  -0.846  0.00  0.00    -0.090 HD
ENDBRANCH  14  15
ENDBRANCH  13  14
ENDBRANCH   5  13
TORSDOF 4
