REMARK  Name = ZINC02382901
REMARK                            x       y       z     vdW  Elec       q    Type
REMARK                         _______ _______ _______ _____ _____    ______ ____
ROOT
ATOM      1  C   LIG    1       -1.329   1.940   0.019  0.00  0.00    +0.267 C 
ATOM      2  C   LIG    1       -1.693   2.768  -1.215  0.00  0.00    +0.267 C 
ATOM      3  O   LIG    1       -2.332   1.525  -0.911  0.00  0.00    -0.345 OA
ENDROOT
BRANCH   1   4
ATOM      4  C   LIG    1       -0.014   1.204   0.009  0.00  0.00    +0.339 C 
ATOM      5  O   LIG    1        0.002  -0.004   0.002  0.00  0.00    -0.248 OA
BRANCH   4   6
ATOM      6  O   LIG    1        1.139   1.891   0.001  0.00  0.00    -0.463 OA
BRANCH   6   8
ATOM      7  C   LIG    1        3.568   2.065  -0.021  0.00  0.00    +0.048 C 
ATOM      8  C   LIG    1        2.367   1.117  -0.015  0.00  0.00    +0.229 C 
ENDBRANCH   6   8
ENDBRANCH   4   6
ENDBRANCH   1   4
BRANCH   2   9
ATOM      9  C   LIG    1       -2.483   4.034  -1.004  0.00  0.00    +0.339 C 
ATOM     10  O   LIG    1       -3.604   4.127  -1.445  0.00  0.00    -0.248 OA
BRANCH   9  11
ATOM     11  O   LIG    1       -1.942   5.057  -0.324  0.00  0.00    -0.463 OA
BRANCH  11  12
ATOM     12  C   LIG    1       -2.760   6.245  -0.159  0.00  0.00    +0.229 C 
ATOM     13  C   LIG    1       -1.981   7.295   0.634  0.00  0.00    +0.048 C 
ENDBRANCH  11  12
ENDBRANCH   9  11
ENDBRANCH   2   9
TORSDOF 6
