REMARK  Name = ZINC02384679
REMARK                            x       y       z     vdW  Elec       q    Type
REMARK                         _______ _______ _______ _____ _____    ______ ____
ROOT
ATOM      1  C   LIG    1       -4.680  -1.515  -0.197  0.00  0.00    +0.107 C 
ENDROOT
BRANCH   1   2
ATOM      2  C   LIG    1       -4.424  -2.096  -1.589  0.00  0.00    +0.206 C 
BRANCH   2   3
ATOM      3  N   LIG    1       -5.344  -3.210  -1.830  0.00  0.00    -0.278 N 
ATOM      4  H   LIG    1       -5.984  -3.467  -1.149  0.00  0.00    +0.258 HD
BRANCH   3   5
ATOM      5  C   LIG    1       -5.299  -3.892  -3.023  0.00  0.00    +0.341 C 
ATOM      6  N   LIG    1       -6.157  -4.890  -3.180  0.00  0.00    -0.292 N 
ATOM      7  H   LIG    1       -6.816  -5.123  -2.428  0.00  0.00    +0.255 HD
ATOM      8  H   LIG    1       -6.163  -5.426  -4.048  0.00  0.00    +0.255 HD
BRANCH   5   9
ATOM      9  N   LIG    1       -4.391  -3.529  -3.990  0.00  0.00    -0.292 N 
ATOM     10  H   LIG    1       -4.360  -4.010  -4.831  0.00  0.00    +0.255 HD
ATOM     11  H   LIG    1       -3.782  -2.791  -3.830  0.00  0.00    +0.255 HD
ENDBRANCH   5   9
ENDBRANCH   3   5
ENDBRANCH   2   3
ENDBRANCH   1   2
BRANCH   1  12
ATOM     12  S   LIG    1       -3.541  -0.136   0.102  0.00  0.00    -0.142 S 
BRANCH  12  13
ATOM     13  C   LIG    1       -3.970   0.433   1.771  0.00  0.00    +0.165 C 
BRANCH  13  14
ATOM     14  C   LIG    1       -5.372   0.985   1.769  0.00  0.00    +0.318 C 
ATOM     15  O   LIG    1       -6.258   0.387   2.331  0.00  0.00    -0.250 OA
BRANCH  14  16
ATOM     16  O   LIG    1       -5.637   2.142   1.142  0.00  0.00    -0.480 OA
ATOM     17  H   LIG    1       -4.950   2.607   0.705  0.00  0.00    +0.295 HD
ENDBRANCH  14  16
ENDBRANCH  13  14
BRANCH  13  18
ATOM     18  C   LIG    1       -2.991   1.528   2.203  0.00  0.00    +0.146 C 
BRANCH  18  19
ATOM     19  C   LIG    1       -1.607   0.945   2.324  0.00  0.00    +0.306 C 
ATOM     20  O   LIG    1       -1.422  -0.226   2.088  0.00  0.00    -0.251 OA
BRANCH  19  21
ATOM     21  O   LIG    1       -0.579   1.727   2.688  0.00  0.00    -0.481 OA
ATOM     22  H   LIG    1       -0.723   2.635   2.871  0.00  0.00    +0.295 HD
ENDBRANCH  19  21
ENDBRANCH  18  19
ENDBRANCH  13  18
ENDBRANCH  12  13
ENDBRANCH   1  12
TORSDOF 11
