REMARK  Name = ZINC01681602
REMARK                            x       y       z     vdW  Elec       q    Type
REMARK                         _______ _______ _______ _____ _____    ______ ____
ROOT
ATOM      1  C   LIG    1       -0.218   0.048   0.084  0.00  0.00    -0.048 C 
ENDROOT
BRANCH   1   2
ATOM      2  N   LIG    1       -0.106   1.511   0.011  0.00  0.00    +0.376 N 
ATOM      3  C   LIG    1       -0.879   2.116   1.104  0.00  0.00    -0.093 C 
ATOM      4  C   LIG    1       -0.632   1.979  -1.278  0.00  0.00    -0.093 C 
ATOM      5  C   LIG    1        1.305   1.901   0.135  0.00  0.00    -0.093 C 
ENDBRANCH   1   2
BRANCH   1   6
ATOM      6  C   LIG    1        0.452  -0.451   1.365  0.00  0.00    +0.142 C 
BRANCH   6   7
ATOM      7  O   LIG    1       -0.293   0.001   2.499  0.00  0.00    -0.382 OA
BRANCH   7   9
ATOM      8  C   LIG    1       -0.622   0.124   4.890  0.00  0.00    +0.034 C 
ATOM      9  C   LIG    1        0.251  -0.414   3.754  0.00  0.00    +0.156 C 
ENDBRANCH   7   9
ENDBRANCH   6   7
ENDBRANCH   1   6
TORSDOF 4
