REMARK  Name = ZINC02169418
REMARK                            x       y       z     vdW  Elec       q    Type
REMARK                         _______ _______ _______ _____ _____    ______ ____
ROOT
ATOM      1  N   LIG    1        0.804  -1.954  -1.227  0.00  0.00    +0.382 N 
ATOM      2  H   LIG    1        1.258  -2.215  -0.364  0.00  0.00    -0.081 HD
ENDROOT
BRANCH   1   3
ATOM      3  C   LIG    1        1.625  -2.393  -2.364  0.00  0.00    -0.064 C 
ATOM      4  C   LIG    1        1.866  -3.905  -2.273  0.00  0.00    -0.010 C 
ATOM      5  C   LIG    1        2.509  -4.369  -3.578  0.00  0.00    +0.037 C 
ATOM      6  C   LIG    1        3.705  -3.515  -3.912  0.00  0.00    -0.003 A 
ATOM      7  C   LIG    1        3.916  -2.280  -3.343  0.00  0.00    -0.042 A 
ATOM      8  C   LIG    1        5.035  -1.539  -3.700  0.00  0.00    +0.004 A 
ATOM      9  C   LIG    1        5.941  -2.032  -4.617  0.00  0.00    +0.004 A 
ATOM     10  C   LIG    1        5.736  -3.273  -5.188  0.00  0.00    +0.046 A 
ATOM     11  C   LIG    1        4.620  -4.014  -4.837  0.00  0.00    +0.120 A 
ATOM     12  C   LIG    1        2.977  -1.685  -2.326  0.00  0.00    +0.020 C 
BRANCH  11  13
ATOM     13  O   LIG    1        4.417  -5.235  -5.397  0.00  0.00    -0.506 OA
ATOM     14  H   LIG    1        3.901  -5.211  -6.215  0.00  0.00    +0.292 HD
ENDBRANCH  11  13
ENDBRANCH   1   3
BRANCH   1  15
ATOM     15  C   LIG    1        0.643  -0.495  -1.274  0.00  0.00    -0.079 C 
BRANCH  15  17
ATOM     16  C   LIG    1       -0.157   1.504  -0.006  0.00  0.00    +0.002 C 
ATOM     17  C   LIG    1       -0.113  -0.025  -0.029  0.00  0.00    -0.022 C 
ENDBRANCH  15  17
ENDBRANCH   1  15
BRANCH   1  18
ATOM     18  C   LIG    1       -0.515  -2.596  -1.299  0.00  0.00    -0.074 C 
BRANCH  18  19
ATOM     19  C   LIG    1       -1.151  -2.302  -2.659  0.00  0.00    +0.016 C 
BRANCH  19  20
ATOM     20  C   LIG    1       -2.557  -2.845  -2.684  0.00  0.00    -0.049 A 
ATOM     21  C   LIG    1       -2.791  -4.140  -3.106  0.00  0.00    +0.003 A 
ATOM     22  C   LIG    1       -4.081  -4.637  -3.129  0.00  0.00    +0.000 A 
ATOM     23  C   LIG    1       -5.136  -3.839  -2.728  0.00  0.00    +0.000 A 
ATOM     24  C   LIG    1       -4.902  -2.545  -2.305  0.00  0.00    +0.000 A 
ATOM     25  C   LIG    1       -3.612  -2.049  -2.278  0.00  0.00    +0.003 A 
ENDBRANCH  19  20
ENDBRANCH  18  19
ENDBRANCH   1  18
TORSDOF 7
