REMARK  Name = ZINC02183611
REMARK                            x       y       z     vdW  Elec       q    Type
REMARK                         _______ _______ _______ _____ _____    ______ ____
ROOT
ATOM      1  C   LIG    1        6.823   3.884  -1.997  0.00  0.00    -0.079 C 
ENDROOT
BRANCH   1   5
ATOM      2  N   LIG    1        3.582   2.123  -0.021  0.00  0.00    -0.333 N 
ATOM      3  C   LIG    1        3.588   3.591  -0.118  0.00  0.00    +0.086 C 
ATOM      4  C   LIG    1        4.553   4.000  -1.236  0.00  0.00    -0.060 C 
ATOM      5  N   LIG    1        5.871   3.404  -0.987  0.00  0.00    +0.382 N 
ATOM      6  H   LIG    1        6.193   3.674  -0.070  0.00  0.00    -0.082 HD
ATOM      7  C   LIG    1        5.779   1.940  -1.060  0.00  0.00    -0.060 C 
ATOM      8  C   LIG    1        4.875   1.429   0.073  0.00  0.00    +0.086 C 
BRANCH   2  11
ATOM      9  C   LIG    1        1.209  -0.683  -0.026  0.00  0.00    +0.003 A 
ATOM     10  C   LIG    1        2.397   0.021  -0.035  0.00  0.00    +0.023 A 
ATOM     11  C   LIG    1        2.381   1.409  -0.013  0.00  0.00    +0.031 A 
ATOM     12  C   LIG    1        1.169   2.087   0.017  0.00  0.00    +0.038 A 
ATOM     13  C   LIG    1       -0.017   1.377   0.025  0.00  0.00    +0.020 A 
ATOM     14 BR   LIG    1       -1.668   2.298   0.066  0.00  0.00    -0.050 Br
ATOM     15  C   LIG    1        0.003  -0.006   0.004  0.00  0.00    +0.015 A 
ENDBRANCH   2  11
ENDBRANCH   1   5
BRANCH   1  16
ATOM     16  C   LIG    1        8.223   3.363  -1.667  0.00  0.00    -0.017 C 
BRANCH  16  17
ATOM     17  C   LIG    1        9.215   3.863  -2.720  0.00  0.00    +0.018 C 
BRANCH  17  18
ATOM     18  C   LIG    1       10.615   3.342  -2.390  0.00  0.00    +0.118 C 
BRANCH  18  19
ATOM     19  N   LIG    1       11.564   3.821  -3.397  0.00  0.00    -0.224 N 
ATOM     20  C   LIG    1       11.858   3.160  -4.538  0.00  0.00    +0.244 C 
ATOM     21  C   LIG    1       12.919   3.988  -5.226  0.00  0.00    +0.164 C 
ATOM     22  C   LIG    1       12.462   4.402  -6.628  0.00  0.00    +0.032 C 
ATOM     23  C   LIG    1       13.373   5.527  -7.130  0.00  0.00    +0.004 C 
ATOM     24  C   LIG    1       13.234   6.765  -6.242  0.00  0.00    +0.019 C 
ATOM     25  C   LIG    1       13.683   6.429  -4.811  0.00  0.00    +0.110 C 
ATOM     26  N   LIG    1       12.988   5.205  -4.389  0.00  0.00    -0.274 N 
ATOM     27  O   LIG    1       11.371   2.121  -4.928  0.00  0.00    -0.273 OA
ATOM     28  C   LIG    1       12.245   4.974  -3.304  0.00  0.00    +0.312 C 
ATOM     29  O   LIG    1       12.194   5.717  -2.345  0.00  0.00    -0.252 OA
ENDBRANCH  18  19
ENDBRANCH  17  18
ENDBRANCH  16  17
ENDBRANCH   1  16
TORSDOF 6
