REMARK  Name = ZINC01922677
REMARK                            x       y       z     vdW  Elec       q    Type
REMARK                         _______ _______ _______ _____ _____    ______ ____
ROOT
ATOM      1  N   LIG    1        1.062   2.021   0.003  0.00  0.00    -0.257 N 
ATOM      2  C   LIG    1        0.690   3.361   0.006  0.00  0.00    +0.047 A 
ATOM      3  C   LIG    1        1.444   4.529  -0.005  0.00  0.00    +0.024 A 
ATOM      4  C   LIG    1        0.816   5.759   0.001  0.00  0.00    +0.002 A 
ATOM      5  C   LIG    1       -0.566   5.845   0.017  0.00  0.00    +0.001 A 
ATOM      6  C   LIG    1       -1.331   4.696   0.028  0.00  0.00    +0.012 A 
ATOM      7  C   LIG    1       -0.708   3.453   0.022  0.00  0.00    +0.028 A 
ATOM      8  C   LIG    1       -1.219   2.062   0.024  0.00  0.00    +0.153 C 
ATOM      9  N   LIG    1       -2.470   1.671   0.032  0.00  0.00    -0.174 NA
ATOM     10  C   LIG    1       -0.011   1.213   0.017  0.00  0.00    +0.272 C 
ATOM     11  O   LIG    1        0.009  -0.004   0.018  0.00  0.00    -0.268 OA
ENDROOT
BRANCH   9  12
ATOM     12  N   LIG    1       -2.777   0.304   0.036  0.00  0.00    -0.202 N 
ATOM     13  H   LIG    1       -2.063  -0.353   0.033  0.00  0.00    +0.178 HD
ATOM     14  C   LIG    1       -4.063  -0.098   0.045  0.00  0.00    +0.267 C 
ATOM     15  O   LIG    1       -4.958   0.726   0.049  0.00  0.00    -0.268 OA
BRANCH  14  16
ATOM     16  C   LIG    1       -4.386  -1.536   0.049  0.00  0.00    +0.082 A 
ATOM     17  C   LIG    1       -3.361  -2.486   0.038  0.00  0.00    +0.049 A 
ATOM     18  C   LIG    1       -3.670  -3.829   0.048  0.00  0.00    +0.123 A 
ATOM     19  C   LIG    1       -4.992  -4.243   0.056  0.00  0.00    +0.036 A 
ATOM     20  C   LIG    1       -6.015  -3.315   0.062  0.00  0.00    +0.048 A 
ATOM     21  C   LIG    1       -5.723  -1.959   0.058  0.00  0.00    +0.129 A 
BRANCH  18  22
ATOM     22  N   LIG    1       -2.584  -4.835   0.042  0.00  0.00    +0.006 N 
ATOM     23  O   LIG    1       -2.853  -6.022   0.045  0.00  0.00    -0.130 OA
BRANCH  22  24
ATOM     24  O   LIG    1       -1.420  -4.474   0.034  0.00  0.00    -0.396 OA
ATOM     25  H   LIG    1       -1.213  -3.561   0.031  0.00  0.00    +0.329 HD
ENDBRANCH  22  24
ENDBRANCH  18  22
BRANCH  21  26
ATOM     26  O   LIG    1       -6.726  -1.046   0.063  0.00  0.00    -0.506 OA
ATOM     27  H   LIG    1       -6.527  -0.130   0.060  0.00  0.00    +0.292 HD
ENDBRANCH  21  26
ENDBRANCH  14  16
ENDBRANCH   9  12
BRANCH   1  28
ATOM     28  C   LIG    1        2.450   1.551  -0.012  0.00  0.00    +0.210 C 
BRANCH  28  31
ATOM     29  N   LIG    1        4.161   0.962  -1.698  0.00  0.00    -0.284 N 
ATOM     30  H   LIG    1        4.788   0.824  -0.970  0.00  0.00    +0.155 HD
ATOM     31  C   LIG    1        2.909   1.388  -1.438  0.00  0.00    +0.235 C 
ATOM     32  O   LIG    1        2.152   1.640  -2.352  0.00  0.00    -0.274 OA
BRANCH  29  37
ATOM     33  C   LIG    1        5.766  -0.029  -7.048  0.00  0.00    +0.044 C 
ATOM     34  C   LIG    1        5.340   0.234  -5.627  0.00  0.00    -0.050 A 
ATOM     35  C   LIG    1        4.463   1.267  -5.350  0.00  0.00    +0.005 A 
ATOM     36  C   LIG    1        4.071   1.511  -4.048  0.00  0.00    +0.023 A 
ATOM     37  C   LIG    1        4.557   0.717  -3.018  0.00  0.00    +0.033 A 
ATOM     38  C   LIG    1        5.442  -0.316  -3.299  0.00  0.00    +0.023 A 
ATOM     39  C   LIG    1        5.827  -0.557  -4.603  0.00  0.00    +0.005 A 
ENDBRANCH  29  37
ENDBRANCH  28  31
ENDBRANCH   1  28
TORSDOF 8
