REMARK  Name = ZINC01694070
REMARK                            x       y       z     vdW  Elec       q    Type
REMARK                         _______ _______ _______ _____ _____    ______ ____
ROOT
ATOM      1  C   LIG    1       -3.703   1.760   0.029  0.00  0.00    +0.135 C 
ENDROOT
BRANCH   1   9
ATOM      2  C   LIG    1       -9.795   1.385  -3.977  0.00  0.00    +0.065 C 
ATOM      3  C   LIG    1       -8.674   0.674  -3.264  0.00  0.00    +0.039 A 
ATOM      4  C   LIG    1       -8.634  -0.718  -3.280  0.00  0.00    +0.023 A 
ATOM      5  C   LIG    1       -7.626  -1.379  -2.639  0.00  0.00    +0.012 A 
ATOM      6  C   LIG    1       -6.648  -0.614  -1.975  0.00  0.00    +0.004 A 
ATOM      7  C   LIG    1       -5.582  -1.224  -1.294  0.00  0.00    +0.010 A 
ATOM      8  C   LIG    1       -4.655  -0.452  -0.662  0.00  0.00    +0.010 A 
ATOM      9  C   LIG    1       -4.747   0.937  -0.681  0.00  0.00    +0.021 A 
ATOM     10  C   LIG    1       -5.772   1.565  -1.328  0.00  0.00    +0.148 A 
ATOM     11  C   LIG    1       -6.748   0.798  -1.998  0.00  0.00    +0.113 A 
ATOM     12  N   LIG    1       -7.761   1.383  -2.645  0.00  0.00    -0.248 NA
BRANCH  10  13
ATOM     13  O   LIG    1       -5.850   2.922  -1.331  0.00  0.00    -0.504 OA
ATOM     14  H   LIG    1       -5.389   3.340  -2.071  0.00  0.00    +0.292 HD
ENDBRANCH  10  13
ENDBRANCH   1   9
BRANCH   1  15
ATOM     15  C   LIG    1       -4.163   2.052   1.434  0.00  0.00    -0.023 A 
ATOM     16  C   LIG    1       -4.033   1.090   2.418  0.00  0.00    +0.006 A 
ATOM     17  C   LIG    1       -4.451   1.360   3.708  0.00  0.00    +0.000 A 
ATOM     18  C   LIG    1       -5.008   2.588   4.011  0.00  0.00    +0.000 A 
ATOM     19  C   LIG    1       -5.144   3.548   3.026  0.00  0.00    +0.000 A 
ATOM     20  C   LIG    1       -4.722   3.280   1.737  0.00  0.00    +0.006 A 
ENDBRANCH   1  15
BRANCH   1  21
ATOM     21  N   LIG    1       -2.442   1.016   0.073  0.00  0.00    -0.333 N 
ATOM     22  H   LIG    1       -2.449   0.047   0.029  0.00  0.00    +0.147 HD
BRANCH  21  23
ATOM     23  C   LIG    1       -1.230   1.702   0.179  0.00  0.00    +0.028 A 
ATOM     24  C   LIG    1       -0.033   0.998   0.222  0.00  0.00    +0.023 A 
ATOM     25  C   LIG    1        1.164   1.679   0.321  0.00  0.00    +0.002 A 
ATOM     26  C   LIG    1        1.172   3.060   0.384  0.00  0.00    +0.000 A 
ATOM     27  C   LIG    1       -0.018   3.764   0.347  0.00  0.00    +0.002 A 
ATOM     28  C   LIG    1       -1.218   3.089   0.248  0.00  0.00    +0.023 A 
ENDBRANCH  21  23
ENDBRANCH   1  21
TORSDOF 5
