REMARK  Name = ZINC02170331
REMARK                            x       y       z     vdW  Elec       q    Type
REMARK                         _______ _______ _______ _____ _____    ______ ____
ROOT
ATOM      1  C   LIG    1        1.253  -2.157  -0.021  0.00  0.00    +0.233 C 
ATOM      2  O   LIG    1        0.581  -2.088  -1.029  0.00  0.00    -0.283 OA
ENDROOT
BRANCH   1   3
ATOM      3  C   LIG    1        0.733  -1.625   1.250  0.00  0.00    +0.026 A 
ATOM      4  C   LIG    1       -0.487  -0.940   1.279  0.00  0.00    +0.013 A 
ATOM      5  C   LIG    1       -0.968  -0.445   2.471  0.00  0.00    +0.021 A 
ATOM      6  C   LIG    1       -0.246  -0.623   3.641  0.00  0.00    +0.041 A 
ATOM      7 CL   LIG    1       -0.860   0.004   5.139  0.00  0.00    -0.084 Cl
ATOM      8  C   LIG    1        0.963  -1.301   3.620  0.00  0.00    +0.021 A 
ATOM      9  C   LIG    1        1.456  -1.802   2.435  0.00  0.00    +0.013 A 
ENDBRANCH   1   3
BRANCH   1  10
ATOM     10  C   LIG    1        2.607  -2.781  -0.070  0.00  0.00    +0.233 C 
ATOM     11  O   LIG    1        3.599  -2.082  -0.042  0.00  0.00    -0.283 OA
BRANCH  10  15
ATOM     12  C   LIG    1        2.992  -7.002  -0.305  0.00  0.00    +0.000 A 
ATOM     13  C   LIG    1        4.122  -6.214  -0.169  0.00  0.00    +0.001 A 
ATOM     14  C   LIG    1        4.005  -4.842  -0.091  0.00  0.00    +0.012 A 
ATOM     15  C   LIG    1        2.741  -4.247  -0.152  0.00  0.00    +0.026 A 
ATOM     16  C   LIG    1        1.603  -5.050  -0.284  0.00  0.00    +0.012 A 
ATOM     17  C   LIG    1        1.737  -6.420  -0.366  0.00  0.00    +0.001 A 
ENDBRANCH  10  15
ENDBRANCH   1  10
TORSDOF 3
