REMARK  Name = ZINC02001181
REMARK                            x       y       z     vdW  Elec       q    Type
REMARK                         _______ _______ _______ _____ _____    ______ ____
ROOT
ATOM      1  C   LIG    1       -0.148   1.182   2.380  0.00  0.00    +0.121 A 
ATOM      2  C   LIG    1        0.995   0.397   2.420  0.00  0.00    +0.049 A 
ATOM      3  C   LIG    1        1.536   0.026   3.635  0.00  0.00    +0.049 A 
ATOM      4  C   LIG    1        0.937   0.439   4.816  0.00  0.00    +0.126 A 
ATOM      5  C   LIG    1       -0.206   1.224   4.777  0.00  0.00    +0.024 A 
ATOM      6  C   LIG    1       -0.744   1.599   3.561  0.00  0.00    +0.055 A 
ENDROOT
BRANCH   1   8
ATOM      7  C   LIG    1       -0.013   1.086   0.008  0.00  0.00    +0.277 C 
ATOM      8  O   LIG    1       -0.682   1.547   1.184  0.00  0.00    -0.495 OA
ENDBRANCH   1   8
BRANCH   4   9
ATOM      9  O   LIG    1        1.470   0.074   6.013  0.00  0.00    -0.495 OA
ATOM     10  C   LIG    1        2.647  -0.735   5.979  0.00  0.00    +0.277 C 
ENDBRANCH   4   9
BRANCH   5  11
ATOM     11  C   LIG    1       -0.856   1.674   6.060  0.00  0.00    +0.131 C 
BRANCH  11  12
ATOM     12  O   LIG    1       -1.596   2.873   5.824  0.00  0.00    -0.389 OA
ATOM     13  H   LIG    1       -2.298   2.779   5.166  0.00  0.00    +0.210 HD
ENDBRANCH  11  12
BRANCH  11  14
ATOM     14  C   LIG    1       -1.802   0.581   6.562  0.00  0.00    -0.050 C 
BRANCH  14  15
ATOM     15  N   LIG    1       -2.415   1.022   7.827  0.00  0.00    +0.380 N 
ATOM     16  H   LIG    1       -1.679   1.162   8.529  0.00  0.00    -0.090 HD
ATOM     17  H   LIG    1       -3.066   0.314   8.165  0.00  0.00    -0.090 HD
ATOM     18  H   LIG    1       -2.912   1.900   7.688  0.00  0.00    -0.090 HD
ENDBRANCH  14  15
ENDBRANCH  11  14
ENDBRANCH   5  11
TORSDOF 6
