REMARK  Name = ZINC01851251
REMARK                            x       y       z     vdW  Elec       q    Type
REMARK                         _______ _______ _______ _____ _____    ______ ____
ROOT
ATOM      1  C   LIG    1       -1.458  -0.917  -1.675  0.00  0.00    -0.010 C 
ATOM      2  C   LIG    1       -1.897   0.400  -2.321  0.00  0.00    -0.015 C 
ATOM      3  C   LIG    1       -2.537   0.106  -3.679  0.00  0.00    -0.078 C 
ATOM      4  N   LIG    1       -3.705  -0.764  -3.496  0.00  0.00    +0.382 N 
ATOM      5  H   LIG    1       -4.354  -0.324  -2.861  0.00  0.00    -0.082 HD
ATOM      6  C   LIG    1       -3.282  -2.056  -2.942  0.00  0.00    -0.078 C 
ATOM      7  C   LIG    1       -2.670  -1.845  -1.556  0.00  0.00    -0.015 C 
ENDROOT
BRANCH   1   8
ATOM      8  C   LIG    1       -0.888  -0.638  -0.282  0.00  0.00    +0.038 C 
BRANCH   8  15
ATOM      9  C   LIG    1        0.311   1.554  -0.406  0.00  0.00    +0.006 A 
ATOM     10  C   LIG    1        1.469   2.300  -0.523  0.00  0.00    +0.038 A 
ATOM     11  C   LIG    1        2.693   1.663  -0.641  0.00  0.00    +0.123 A 
ATOM     12  F   LIG    1        3.825   2.391  -0.756  0.00  0.00    -0.205 F 
ATOM     13  C   LIG    1        2.755   0.280  -0.644  0.00  0.00    +0.038 A 
ATOM     14  C   LIG    1        1.596  -0.463  -0.527  0.00  0.00    +0.006 A 
ATOM     15  C   LIG    1        0.375   0.173  -0.409  0.00  0.00    -0.047 A 
ENDBRANCH   8  15
ENDBRANCH   1   8
BRANCH   4  16
ATOM     16  C   LIG    1       -4.362  -0.980  -4.792  0.00  0.00    -0.042 C 
BRANCH  16  17
ATOM     17  C   LIG    1       -4.944   0.343  -5.295  0.00  0.00    +0.128 C 
BRANCH  17  18
ATOM     18  C   LIG    1       -5.612   0.123  -6.628  0.00  0.00    -0.021 A 
ATOM     19  C   LIG    1       -6.923  -0.315  -6.680  0.00  0.00    +0.007 A 
ATOM     20  C   LIG    1       -7.536  -0.517  -7.902  0.00  0.00    +0.020 A 
ATOM     21  C   LIG    1       -6.839  -0.281  -9.073  0.00  0.00    +0.041 A 
ATOM     22 CL   LIG    1       -7.608  -0.535 -10.608  0.00  0.00    -0.084 Cl
ATOM     23  C   LIG    1       -5.527   0.157  -9.021  0.00  0.00    +0.020 A 
ATOM     24  C   LIG    1       -4.917   0.364  -7.798  0.00  0.00    +0.007 A 
ENDBRANCH  17  18
BRANCH  17  25
ATOM     25  O   LIG    1       -5.904   0.829  -4.355  0.00  0.00    -0.389 OA
ATOM     26  H   LIG    1       -6.647   0.228  -4.206  0.00  0.00    +0.210 HD
ENDBRANCH  17  25
ENDBRANCH  16  17
ENDBRANCH   4  16
TORSDOF 6
