REMARK  Name = ZINC01726143
REMARK                            x       y       z     vdW  Elec       q    Type
REMARK                         _______ _______ _______ _____ _____    ______ ____
ROOT
ATOM      1  C   LIG    1        1.185   3.247  -0.454  0.00  0.00    -0.095 C 
ATOM      2  N   LIG    1        1.093   2.082   0.464  0.00  0.00    +0.382 N 
ATOM      3  H   LIG    1        2.007   1.616   0.508  0.00  0.00    -0.081 HD
ATOM      4  C   LIG    1        0.084   1.129  -0.026  0.00  0.00    -0.038 C 
ATOM      5  C   LIG    1       -0.948   0.939   1.106  0.00  0.00    -0.013 C 
ATOM      6  C   LIG    1       -0.163   1.374   2.371  0.00  0.00    -0.020 C 
ATOM      7  C   LIG    1        0.708   2.530   1.817  0.00  0.00    -0.078 C 
ENDROOT
BRANCH   4   8
ATOM      8  C   LIG    1       -0.596   1.665  -1.259  0.00  0.00    -0.061 A 
ATOM      9  C   LIG    1       -1.408   2.780  -1.171  0.00  0.00    +0.003 A 
ATOM     10  C   LIG    1       -2.028   3.275  -2.304  0.00  0.00    +0.015 A 
ATOM     11  C   LIG    1       -1.844   2.647  -3.522  0.00  0.00    +0.018 A 
ATOM     12 BR   LIG    1       -2.698   3.319  -5.070  0.00  0.00    -0.050 Br
ATOM     13  C   LIG    1       -1.036   1.528  -3.609  0.00  0.00    +0.015 A 
ATOM     14  C   LIG    1       -0.412   1.037  -2.477  0.00  0.00    +0.003 A 
ENDBRANCH   4   8
TORSDOF 1
