REMARK  Name = ZINC01999243
REMARK                            x       y       z     vdW  Elec       q    Type
REMARK                         _______ _______ _______ _____ _____    ______ ____
ROOT
ATOM      1  C   LIG    1        3.365   1.973   1.363  0.00  0.00    +0.130 A 
ATOM      2  C   LIG    1        3.989   2.706   0.368  0.00  0.00    +0.046 A 
ATOM      3  C   LIG    1        5.305   3.108   0.522  0.00  0.00    +0.006 A 
ATOM      4  C   LIG    1        6.009   2.787   1.663  0.00  0.00    +0.026 A 
ATOM      5  C   LIG    1        5.401   2.051   2.676  0.00  0.00    +0.051 A 
ATOM      6  N   LIG    1        5.859   1.597   3.900  0.00  0.00    -0.354 N 
ATOM      7  H   LIG    1        6.752   1.747   4.248  0.00  0.00    +0.166 HD
ATOM      8  C   LIG    1        4.861   0.899   4.556  0.00  0.00    +0.048 A 
ATOM      9  C   LIG    1        4.824   0.258   5.791  0.00  0.00    +0.026 A 
ATOM     10  C   LIG    1        3.671  -0.374   6.205  0.00  0.00    +0.002 A 
ATOM     11  C   LIG    1        2.541  -0.378   5.401  0.00  0.00    +0.001 A 
ATOM     12  C   LIG    1        2.559   0.251   4.175  0.00  0.00    +0.011 A 
ATOM     13  C   LIG    1        3.718   0.893   3.744  0.00  0.00    +0.011 A 
ATOM     14  C   LIG    1        4.067   1.647   2.526  0.00  0.00    +0.049 A 
ENDROOT
BRANCH   1  15
ATOM     15  O   LIG    1        2.074   1.579   1.212  0.00  0.00    -0.489 OA
BRANCH  15  16
ATOM     16  C   LIG    1        1.418   1.954  -0.001  0.00  0.00    +0.258 C 
BRANCH  16  17
ATOM     17  C   LIG    1       -0.017   1.425   0.010  0.00  0.00    +0.135 C 
BRANCH  17  18
ATOM     18  O   LIG    1        0.002  -0.004   0.002  0.00  0.00    -0.390 OA
ATOM     19  H   LIG    1        0.442  -0.387  -0.769  0.00  0.00    +0.210 HD
ENDBRANCH  17  18
BRANCH  17  20
ATOM     20  C   LIG    1       -0.757   1.932  -1.230  0.00  0.00    -0.047 C 
BRANCH  20  21
ATOM     21  N   LIG    1       -2.171   1.518  -1.151  0.00  0.00    +0.382 N 
ATOM     22  H   LIG    1       -2.594   1.917  -0.305  0.00  0.00    -0.085 HD
ATOM     23  H   LIG    1       -2.222   0.493  -1.110  0.00  0.00    -0.085 HD
BRANCH  21  25
ATOM     24  C   LIG    1       -2.744   0.990  -3.479  0.00  0.00    -0.014 C 
ATOM     25  C   LIG    1       -2.910   1.994  -2.336  0.00  0.00    -0.078 C 
ATOM     26  C   LIG    1       -4.393   2.125  -1.983  0.00  0.00    -0.014 C 
ENDBRANCH  21  25
ENDBRANCH  20  21
ENDBRANCH  17  20
ENDBRANCH  16  17
ENDBRANCH  15  16
ENDBRANCH   1  15
TORSDOF 7
