REMARK  Name = ZINC01842775
REMARK                            x       y       z     vdW  Elec       q    Type
REMARK                         _______ _______ _______ _____ _____    ______ ____
ROOT
ATOM      1  C   LIG    1        0.693  -0.414   1.304  0.00  0.00    +0.211 C 
ATOM      2  C   LIG    1        0.839  -1.954   1.285  0.00  0.00    +0.099 C 
ATOM      3  C   LIG    1        0.671  -2.303   2.751  0.00  0.00    -0.001 A 
ATOM      4  C   LIG    1        0.954  -3.444   3.469  0.00  0.00    +0.007 A 
ATOM      5  C   LIG    1        0.700  -3.487   4.828  0.00  0.00    +0.000 A 
ATOM      6  C   LIG    1        0.162  -2.382   5.461  0.00  0.00    +0.004 A 
ATOM      7  C   LIG    1       -0.126  -1.239   4.744  0.00  0.00    +0.046 A 
ATOM      8  C   LIG    1        0.124  -1.189   3.375  0.00  0.00    +0.125 A 
ATOM      9  O   LIG    1       -0.098  -0.184   2.483  0.00  0.00    -0.473 OA
ENDROOT
BRANCH   1  10
ATOM     10  C   LIG    1        2.038   0.253   1.426  0.00  0.00    +0.283 C 
ATOM     11  N   LIG    1        3.166  -0.413   1.335  0.00  0.00    -0.272 N 
ATOM     12  H   LIG    1        3.243  -1.368   1.187  0.00  0.00    +0.304 HD
ATOM     13  C   LIG    1        4.294   0.518   1.494  0.00  0.00    +0.276 C 
ATOM     14  C   LIG    1        3.600   1.881   1.699  0.00  0.00    +0.268 C 
ATOM     15  N   LIG    1        2.170   1.544   1.624  0.00  0.00    -0.234 N 
ATOM     16  H   LIG    1        1.439   2.176   1.709  0.00  0.00    +0.291 HD
ENDBRANCH   1  10
BRANCH   1  18
ATOM     17  C   LIG    1       -1.393  -0.635  -0.054  0.00  0.00    +0.008 C 
ATOM     18  C   LIG    1       -0.042   0.076   0.055  0.00  0.00    +0.057 C 
ENDBRANCH   1  18
TORSDOF 2
