REMARK  Name = ZINC02068457
REMARK                            x       y       z     vdW  Elec       q    Type
REMARK                         _______ _______ _______ _____ _____    ______ ____
ROOT
ATOM      1  C   LIG    1       -0.029   0.041  -0.485  0.00  0.00    +0.163 A 
ATOM      2  C   LIG    1       -0.019   1.420  -0.417  0.00  0.00    +0.057 A 
ATOM      3  C   LIG    1        1.158   2.092  -0.064  0.00  0.00    -0.019 A 
ATOM      4  C   LIG    1        2.318   1.361   0.217  0.00  0.00    +0.027 A 
ATOM      5  C   LIG    1        2.299  -0.016   0.146  0.00  0.00    +0.063 A 
ATOM      6 BR   LIG    1        3.867  -1.002   0.526  0.00  0.00    -0.046 Br
ATOM      7  C   LIG    1        1.130  -0.680  -0.203  0.00  0.00    +0.173 A 
ENDROOT
BRANCH   3   8
ATOM      8  C   LIG    1        1.175   3.558   0.009  0.00  0.00    +0.028 C 
ATOM      9  C   LIG    1        0.109   4.225   0.520  0.00  0.00    +0.080 C 
ATOM     10  C   LIG    1       -1.091   3.700   1.202  0.00  0.00    +0.258 C 
ATOM     11  N   LIG    1       -1.983   4.590   1.601  0.00  0.00    -0.243 N 
ATOM     12  H   LIG    1       -2.786   4.287   2.053  0.00  0.00    +0.159 HD
ATOM     13  C   LIG    1       -1.803   5.910   1.392  0.00  0.00    +0.283 C 
ATOM     14  O   LIG    1       -2.535   6.831   1.703  0.00  0.00    -0.262 OA
ATOM     15  O   LIG    1       -1.250   2.508   1.389  0.00  0.00    -0.269 OA
ATOM     16  S   LIG    1       -0.227   5.980   0.557  0.00  0.00    -0.026 S 
ENDBRANCH   3   8
BRANCH   7  17
ATOM     17  O   LIG    1        1.117  -2.037  -0.271  0.00  0.00    -0.503 OA
ATOM     18  H   LIG    1        1.344  -2.390  -1.142  0.00  0.00    +0.292 HD
ENDBRANCH   7  17
BRANCH   1  19
ATOM     19  O   LIG    1       -1.171  -0.614  -0.827  0.00  0.00    -0.489 OA
BRANCH  19  21
ATOM     20  C   LIG    1       -3.499  -0.719  -1.467  0.00  0.00    +0.048 C 
ATOM     21  C   LIG    1       -2.321   0.188  -1.103  0.00  0.00    +0.226 C 
ENDBRANCH  19  21
ENDBRANCH   1  19
TORSDOF 4
