REMARK  Name = ZINC01689018
REMARK                            x       y       z     vdW  Elec       q    Type
REMARK                         _______ _______ _______ _____ _____    ______ ____
ROOT
ATOM      1  C   LIG    1        2.171  -6.082  -3.510  0.00  0.00    +0.033 A 
ATOM      2  C   LIG    1        3.287  -6.707  -4.050  0.00  0.00    +0.025 A 
ATOM      3  C   LIG    1        3.395  -8.083  -4.006  0.00  0.00    +0.030 A 
ATOM      4  C   LIG    1        2.392  -8.839  -3.427  0.00  0.00    +0.105 A 
ATOM      5  C   LIG    1        1.279  -8.220  -2.889  0.00  0.00    +0.030 A 
ATOM      6  C   LIG    1        1.168  -6.843  -2.923  0.00  0.00    +0.025 A 
ENDROOT
BRANCH   1   8
ATOM      7  C   LIG    1        1.477  -4.027  -2.531  0.00  0.00    +0.217 C 
ATOM      8  N   LIG    1        2.058  -4.688  -3.552  0.00  0.00    -0.285 N 
ATOM      9  H   LIG    1        2.399  -4.197  -4.316  0.00  0.00    +0.155 HD
ATOM     10  O   LIG    1        0.976  -4.646  -1.616  0.00  0.00    -0.275 OA
BRANCH   7  11
ATOM     11  C   LIG    1        1.449  -2.521  -2.528  0.00  0.00    +0.096 C 
BRANCH  11  12
ATOM     12  C   LIG    1        0.737  -2.027  -1.267  0.00  0.00    +0.009 C 
BRANCH  12  13
ATOM     13  C   LIG    1        0.708  -0.497  -1.263  0.00  0.00    +0.000 C 
BRANCH  13  15
ATOM     14  C   LIG    1       -0.033   1.526   0.002  0.00  0.00    +0.004 C 
ATOM     15  C   LIG    1       -0.004  -0.004  -0.002  0.00  0.00    -0.003 C 
ENDBRANCH  13  15
ENDBRANCH  12  13
ENDBRANCH  11  12
ENDBRANCH   7  11
ENDBRANCH   1   8
BRANCH   4  16
ATOM     16  S   LIG    1        2.533 -10.594  -3.373  0.00  0.00    +0.056 S 
ATOM     17  O   LIG    1        3.410 -10.964  -4.429  0.00  0.00    -0.153 OA
ATOM     18  O   LIG    1        1.211 -11.105  -3.267  0.00  0.00    -0.153 OA
BRANCH  16  19
ATOM     19  N   LIG    1        3.305 -10.981  -1.960  0.00  0.00    -0.204 NA
ATOM     20  H   LIG    1        3.480 -11.910  -1.742  0.00  0.00    +0.144 HD
ATOM     21  H   LIG    1        3.582 -10.279  -1.351  0.00  0.00    +0.144 HD
ENDBRANCH  16  19
ENDBRANCH   4  16
TORSDOF 7
