REMARK  Name = ZINC02035314
REMARK                            x       y       z     vdW  Elec       q    Type
REMARK                         _______ _______ _______ _____ _____    ______ ____
ROOT
ATOM      1  C   LIG    1       -1.122   1.831   0.017  0.00  0.00    -0.021 A 
ATOM      2  C   LIG    1       -0.013   1.076   0.008  0.00  0.00    +0.087 A 
ATOM      3  N   LIG    1        1.097   1.876   0.002  0.00  0.00    -0.360 N 
ATOM      4  C   LIG    1        0.718   3.202   0.012  0.00  0.00    +0.047 A 
ATOM      5  C   LIG    1        1.427   4.398   0.011  0.00  0.00    +0.030 A 
ATOM      6  C   LIG    1        0.753   5.599   0.024  0.00  0.00    +0.047 A 
ATOM      7  C   LIG    1       -0.639   5.630   0.037  0.00  0.00    +0.121 A 
ATOM      8  C   LIG    1       -1.362   4.454   0.039  0.00  0.00    +0.056 A 
ATOM      9  H   LIG    1        2.013   1.558  -0.009  0.00  0.00    +0.165 HD
ATOM     10  C   LIG    1       -0.688   3.231   0.026  0.00  0.00    +0.006 A 
ENDROOT
BRANCH   1  12
ATOM     11  C   LIG    1       -2.783   0.479   1.266  0.00  0.00    +0.010 C 
ATOM     12  C   LIG    1       -2.545   1.334   0.020  0.00  0.00    +0.000 C 
BRANCH  12  13
ATOM     13  C   LIG    1       -2.793   0.491  -1.232  0.00  0.00    -0.079 C 
BRANCH  13  14
ATOM     14  N   LIG    1       -4.212   0.093  -1.269  0.00  0.00    +0.379 N 
ATOM     15  H   LIG    1       -4.423  -0.481  -0.445  0.00  0.00    -0.090 HD
ATOM     16  H   LIG    1       -4.400  -0.451  -2.110  0.00  0.00    -0.090 HD
ATOM     17  H   LIG    1       -4.807   0.919  -1.260  0.00  0.00    -0.090 HD
ENDBRANCH  13  14
ENDBRANCH  12  13
ENDBRANCH   1  12
BRANCH   7  18
ATOM     18  O   LIG    1       -1.289   6.824   0.050  0.00  0.00    -0.495 OA
ATOM     19  C   LIG    1       -0.481   8.003   0.049  0.00  0.00    +0.277 C 
ENDBRANCH   7  18
TORSDOF 4
