REMARK  Name = ZINC01677684
REMARK                            x       y       z     vdW  Elec       q    Type
REMARK                         _______ _______ _______ _____ _____    ______ ____
ROOT
ATOM      1  C   LIG    1        1.508   2.163  -0.213  0.00  0.00    +0.234 C 
ENDROOT
BRANCH   1   2
ATOM      2  C   LIG    1        0.090   1.609  -0.373  0.00  0.00    +0.039 C 
BRANCH   2   3
ATOM      3  C   LIG    1        0.159   0.109  -0.667  0.00  0.00    -0.002 C 
BRANCH   3   4
ATOM      4  CA  LIG    1       -1.259  -0.444  -0.827  0.00  0.00    +0.036 C 
BRANCH   4   5
ATOM      5  N   LIG    1       -1.976  -0.331   0.450  0.00  0.00    +0.387 N 
ATOM      6  H1  LIG    1       -1.487  -0.858   1.158  0.00  0.00    -0.089 HD
ATOM      7  H2  LIG    1       -2.911  -0.696   0.344  0.00  0.00    -0.089 HD
ATOM      8  H3  LIG    1       -2.022   0.639   0.724  0.00  0.00    -0.089 HD
ENDBRANCH   4   5
BRANCH   4   9
ATOM      9  C   LIG    1       -1.189  -1.893  -1.237  0.00  0.00    +0.290 C 
ATOM     10  O   LIG    1       -1.163  -2.766  -0.387  0.00  0.00    -0.253 OA
BRANCH   9  11
ATOM     11  OXT LIG    1       -1.159  -2.191  -2.419  0.00  0.00    -0.482 OA
ATOM     12  HXT LIG    1       -1.178  -1.520  -3.072  0.00  0.00    +0.295 HD
ENDBRANCH   9  11
ENDBRANCH   4   9
ENDBRANCH   3   4
ENDBRANCH   2   3
ENDBRANCH   1   2
BRANCH   1  13
ATOM     13  N   LIG    1        1.442   3.599   0.068  0.00  0.00    -0.097 N 
BRANCH  13  14
ATOM     14  C   LIG    1        1.370   4.040   1.361  0.00  0.00    +0.370 C 
ATOM     15  N   LIG    1        1.428   5.344   1.624  0.00  0.00    -0.290 N 
ATOM     16  H   LIG    1        1.468   5.653   2.542  0.00  0.00    +0.255 HD
ATOM     17  H   LIG    1        1.430   5.986   0.896  0.00  0.00    +0.255 HD
BRANCH  14  18
ATOM     18  N   LIG    1        1.242   3.165   2.357  0.00  0.00    -0.290 N 
ATOM     19  H   LIG    1        1.190   3.478   3.274  0.00  0.00    +0.255 HD
ATOM     20  H   LIG    1        1.199   2.215   2.165  0.00  0.00    +0.255 HD
ENDBRANCH  14  18
ENDBRANCH  13  14
BRANCH  13  21
ATOM     21  N   LIG    1        1.453   4.521  -0.987  0.00  0.00    +0.139 N 
ATOM     22  O   LIG    1        1.404   4.131  -2.131  0.00  0.00    -0.098 OA
BRANCH  21  23
ATOM     23  O   LIG    1        1.512   5.705  -0.754  0.00  0.00    -0.373 OA
ATOM     24  H   LIG    1        1.550   6.007   0.132  0.00  0.00    +0.332 HD
ENDBRANCH  21  23
ENDBRANCH  13  21
ENDBRANCH   1  13
TORSDOF 11
