REMARK  Name = ZINC01668339
REMARK                            x       y       z     vdW  Elec       q    Type
REMARK                         _______ _______ _______ _____ _____    ______ ____
ROOT
ATOM      1  C   LIG    1        4.171  -0.963   1.399  0.00  0.00    -0.074 C 
ENDROOT
BRANCH   1   2
ATOM      2  N   LIG    1        5.453  -1.680   1.382  0.00  0.00    +0.380 N 
ATOM      3  H   LIG    1        6.122  -1.160   0.834  0.00  0.00    -0.082 HD
ATOM      4  C   LIG    1        5.262  -3.007   0.784  0.00  0.00    -0.079 C 
ATOM      5  C   LIG    1        6.609  -3.727   0.690  0.00  0.00    -0.019 C 
ATOM      6  C   LIG    1        7.200  -3.879   2.094  0.00  0.00    -0.004 C 
ATOM      7  C   LIG    1        7.326  -2.494   2.737  0.00  0.00    -0.019 C 
ATOM      8  C   LIG    1        5.952  -1.820   2.755  0.00  0.00    -0.079 C 
ENDBRANCH   1   2
BRANCH   1   9
ATOM      9  C   LIG    1        3.711  -0.707  -0.038  0.00  0.00    +0.016 C 
BRANCH   9  13
ATOM     10  C   LIG    1       -0.017   1.378   0.010  0.00  0.00    +0.000 A 
ATOM     11  C   LIG    1        1.171   2.086   0.002  0.00  0.00    +0.000 A 
ATOM     12  C   LIG    1        2.377   1.411  -0.013  0.00  0.00    +0.003 A 
ATOM     13  C   LIG    1        2.396   0.029  -0.020  0.00  0.00    -0.049 A 
ATOM     14  C   LIG    1        1.208  -0.679  -0.012  0.00  0.00    +0.003 A 
ATOM     15  C   LIG    1        0.002  -0.004   0.002  0.00  0.00    +0.000 A 
ENDBRANCH   9  13
ENDBRANCH   1   9
TORSDOF 3
