REMARK  Name = ZINC02016054
REMARK                            x       y       z     vdW  Elec       q    Type
REMARK                         _______ _______ _______ _____ _____    ______ ____
ROOT
ATOM      1  C   LIG    1        6.600   0.085  -1.217  0.00  0.00    +0.029 C 
ATOM      2  C   LIG    1        5.926   1.458  -1.200  0.00  0.00    +0.137 C 
ENDROOT
BRANCH   2   3
ATOM      3  C   LIG    1        4.697   1.403  -0.329  0.00  0.00    +0.227 C 
ATOM      4  N   LIG    1        3.551   0.884  -0.812  0.00  0.00    -0.304 N 
ATOM      5  H   LIG    1        3.517   0.545  -1.720  0.00  0.00    +0.149 HD
ATOM      6  O   LIG    1        4.740   1.827   0.807  0.00  0.00    -0.275 OA
BRANCH   4   7
ATOM      7  C   LIG    1        2.357   0.831   0.035  0.00  0.00    +0.151 C 
ATOM      8  C   LIG    1        1.450  -0.295  -0.458  0.00  0.00    +0.042 C 
ATOM      9  C   LIG    1        0.002  -0.004   0.002  0.00  0.00    +0.079 C 
ATOM     10  S   LIG    1       -0.023   1.827   0.012  0.00  0.00    -0.086 S 
ATOM     11  C   LIG    1        1.673   2.179  -0.002  0.00  0.00    +0.209 C 
ATOM     12  O   LIG    1        2.199   3.272  -0.035  0.00  0.00    -0.283 OA
ENDBRANCH   4   7
ENDBRANCH   2   3
BRANCH   2  13
ATOM     13  S   LIG    1        7.078   2.688  -0.541  0.00  0.00    -0.070 S 
BRANCH  13  14
ATOM     14  C   LIG    1        8.313   2.654  -1.797  0.00  0.00    +0.227 C 
ATOM     15  O   LIG    1        8.189   1.911  -2.753  0.00  0.00    -0.279 OA
BRANCH  14  16
ATOM     16  C   LIG    1        9.491   3.520  -1.691  0.00  0.00    +0.066 A 
ATOM     17  C   LIG    1       10.565   3.645  -2.558  0.00  0.00    +0.020 A 
ATOM     18  C   LIG    1       11.546   4.542  -2.214  0.00  0.00    +0.008 A 
ATOM     19  C   LIG    1       11.421   5.252  -1.062  0.00  0.00    +0.046 A 
ATOM     20  S   LIG    1        9.913   4.694  -0.415  0.00  0.00    -0.093 S 
ENDBRANCH  14  16
ENDBRANCH  13  14
ENDBRANCH   2  13
TORSDOF 5
