REMARK  Name = ZINC02002802
REMARK                            x       y       z     vdW  Elec       q    Type
REMARK                         _______ _______ _______ _____ _____    ______ ____
ROOT
ATOM      1  N   LIG    1       -0.579   1.399   0.015  0.00  0.00    -0.275 N 
ATOM      2  H   LIG    1       -0.863   0.471   0.013  0.00  0.00    +0.258 HD
ENDROOT
BRANCH   1   3
ATOM      3  C   LIG    1        0.761   1.707   0.004  0.00  0.00    +0.341 C 
ATOM      4  N   LIG    1        1.084   2.992   0.008  0.00  0.00    -0.292 N 
ATOM      5  H   LIG    1        0.347   3.707   0.019  0.00  0.00    +0.255 HD
ATOM      6  H   LIG    1        2.065   3.271  -0.000  0.00  0.00    +0.255 HD
BRANCH   3   7
ATOM      7  N   LIG    1        1.698   0.700  -0.010  0.00  0.00    -0.292 N 
ATOM      8  H   LIG    1        2.643   0.917  -0.018  0.00  0.00    +0.255 HD
ATOM      9  H   LIG    1        1.413  -0.227  -0.013  0.00  0.00    +0.255 HD
ENDBRANCH   3   7
ENDBRANCH   1   3
BRANCH   1  10
ATOM     10  C   LIG    1       -1.577   2.471   0.024  0.00  0.00    +0.231 C 
BRANCH  10  13
ATOM     11  C   LIG    1       -4.867   1.050  -1.163  0.00  0.00    +0.002 A 
ATOM     12  C   LIG    1       -3.601   1.606  -1.166  0.00  0.00    +0.007 A 
ATOM     13  C   LIG    1       -2.959   1.871   0.029  0.00  0.00    -0.013 A 
ATOM     14  C   LIG    1       -3.587   1.591   1.228  0.00  0.00    +0.026 A 
ATOM     15  C   LIG    1       -4.856   1.040   1.232  0.00  0.00    +0.041 A 
ATOM     16 CL   LIG    1       -5.646   0.689   2.737  0.00  0.00    -0.084 Cl
ATOM     17  C   LIG    1       -5.496   0.770   0.035  0.00  0.00    +0.020 A 
ENDBRANCH  10  13
ENDBRANCH   1  10
TORSDOF 4
