REMARK  Name = ZINC01713558
REMARK                            x       y       z     vdW  Elec       q    Type
REMARK                         _______ _______ _______ _____ _____    ______ ____
ROOT
ATOM      1  C   LIG    1       -0.017   1.378   0.010  0.00  0.00    +0.001 A 
ATOM      2  C   LIG    1        1.165   2.101   0.002  0.00  0.00    +0.001 A 
ATOM      3  C   LIG    1        2.382   1.449  -0.013  0.00  0.00    +0.012 A 
ATOM      4  C   LIG    1        2.417   0.056  -0.020  0.00  0.00    +0.033 A 
ATOM      5  C   LIG    1        1.217  -0.682  -0.014  0.00  0.00    -0.006 A 
ATOM      6  C   LIG    1        1.246  -2.161  -0.024  0.00  0.00    -0.006 A 
ATOM      7  C   LIG    1        0.083  -2.882  -0.283  0.00  0.00    +0.011 A 
ATOM      8  C   LIG    1        0.113  -4.263  -0.291  0.00  0.00    +0.023 A 
ATOM      9  C   LIG    1        1.298  -4.947  -0.042  0.00  0.00    +0.025 A 
ATOM     10  C   LIG    1        2.469  -4.244   0.218  0.00  0.00    +0.035 A 
ATOM     11  C   LIG    1        2.447  -2.853   0.227  0.00  0.00    +0.035 A 
ATOM     12  C   LIG    1        3.679  -2.079   0.497  0.00  0.00    +0.234 C 
ATOM     13  O   LIG    1        4.614  -2.552   1.111  0.00  0.00    -0.283 OA
ATOM     14  C   LIG    1        3.706  -0.668  -0.035  0.00  0.00    +0.234 C 
ATOM     15  O   LIG    1        4.726  -0.158  -0.451  0.00  0.00    -0.283 OA
ATOM     16  C   LIG    1        0.002  -0.004   0.002  0.00  0.00    +0.009 A 
ENDROOT
BRANCH   9  17
ATOM     17  N   LIG    1        1.311  -6.342  -0.051  0.00  0.00    -0.358 N 
ATOM     18  H   LIG    1        2.137  -6.821   0.123  0.00  0.00    +0.142 HD
ATOM     19  H   LIG    1        0.494  -6.834  -0.232  0.00  0.00    +0.142 HD
ENDBRANCH   9  17
TORSDOF 1
