REMARK  Name = ZINC01996374
REMARK                            x       y       z     vdW  Elec       q    Type
REMARK                         _______ _______ _______ _____ _____    ______ ____
ROOT
ATOM      1  C   LIG    1        3.711  -0.707  -0.038  0.00  0.00    +0.032 C 
ATOM      2  C   LIG    1        3.818  -1.573   1.218  0.00  0.00    -0.070 C 
ATOM      3  N   LIG    1        5.227  -1.633   1.621  0.00  0.00    +0.380 N 
ATOM      4  H   LIG    1        5.309  -2.176   2.468  0.00  0.00    -0.086 HD
ATOM      5  H   LIG    1        5.565  -0.698   1.793  0.00  0.00    -0.086 HD
ATOM      6  C   LIG    1        6.032  -2.254   0.569  0.00  0.00    -0.078 C 
ATOM      7  C   LIG    1        5.167  -3.312  -0.123  0.00  0.00    +0.016 C 
ATOM      8  C   LIG    1        4.489  -2.735  -1.338  0.00  0.00    -0.042 A 
ATOM      9  C   LIG    1        4.573  -3.440  -2.531  0.00  0.00    +0.053 A 
ATOM     10  C   LIG    1        3.934  -2.977  -3.665  0.00  0.00    +0.158 A 
ATOM     11  C   LIG    1        3.202  -1.795  -3.607  0.00  0.00    +0.159 A 
ATOM     12  C   LIG    1        3.135  -1.088  -2.421  0.00  0.00    +0.053 A 
ATOM     13  C   LIG    1        3.791  -1.550  -1.287  0.00  0.00    -0.035 A 
ENDROOT
BRANCH   1  17
ATOM     14  C   LIG    1       -0.017   1.378   0.010  0.00  0.00    +0.000 A 
ATOM     15  C   LIG    1        1.171   2.086   0.002  0.00  0.00    +0.000 A 
ATOM     16  C   LIG    1        2.377   1.411  -0.013  0.00  0.00    +0.004 A 
ATOM     17  C   LIG    1        2.396   0.029  -0.020  0.00  0.00    -0.042 A 
ATOM     18  C   LIG    1        1.208  -0.679  -0.012  0.00  0.00    +0.004 A 
ATOM     19  C   LIG    1        0.002  -0.004   0.002  0.00  0.00    +0.000 A 
ENDBRANCH   1  17
BRANCH  10  20
ATOM     20  O   LIG    1        4.022  -3.671  -4.831  0.00  0.00    -0.503 OA
ATOM     21  H   LIG    1        4.770  -3.414  -5.387  0.00  0.00    +0.292 HD
ENDBRANCH  10  20
BRANCH  11  22
ATOM     22  O   LIG    1        2.554  -1.338  -4.713  0.00  0.00    -0.503 OA
ATOM     23  H   LIG    1        3.087  -0.749  -5.264  0.00  0.00    +0.292 HD
ENDBRANCH  11  22
TORSDOF 3
