REMARK  Name = ZINC01826371
REMARK                            x       y       z     vdW  Elec       q    Type
REMARK                         _______ _______ _______ _____ _____    ______ ____
ROOT
ATOM      1  C   LIG    1        2.429   0.121  -0.021  0.00  0.00    +0.131 A 
ATOM      2  C   LIG    1        1.253  -0.667  -0.013  0.00  0.00    +0.040 A 
ATOM      3  C   LIG    1        1.296  -2.066  -0.021  0.00  0.00    +0.013 A 
ATOM      4  C   LIG    1        0.130  -2.774  -0.013  0.00  0.00    +0.001 A 
ATOM      5  C   LIG    1       -1.101  -2.124   0.002  0.00  0.00    +0.002 A 
ATOM      6  C   LIG    1       -1.176  -0.762   0.010  0.00  0.00    +0.028 A 
ATOM      7  C   LIG    1        0.002  -0.004   0.002  0.00  0.00    +0.077 A 
ATOM      8  N   LIG    1       -0.016   1.337   0.009  0.00  0.00    -0.217 NA
ATOM      9  C   LIG    1        1.107   2.018   0.002  0.00  0.00    +0.225 A 
ATOM     10 CL   LIG    1        1.025   3.752   0.012  0.00  0.00    -0.041 Cl
ATOM     11  N   LIG    1        2.299   1.441  -0.012  0.00  0.00    -0.202 NA
ENDROOT
BRANCH   1  12
ATOM     12  N   LIG    1        3.676  -0.467  -0.035  0.00  0.00    -0.324 N 
ATOM     13  H   LIG    1        3.756  -1.433  -0.041  0.00  0.00    +0.148 HD
BRANCH  12  14
ATOM     14  C   LIG    1        4.880   0.368  -0.042  0.00  0.00    +0.138 C 
BRANCH  14  18
ATOM     15  C   LIG    1        8.345  -2.129  -0.087  0.00  0.00    +0.000 A 
ATOM     16  C   LIG    1        7.773  -1.719  -1.277  0.00  0.00    +0.000 A 
ATOM     17  C   LIG    1        6.652  -0.911  -1.262  0.00  0.00    +0.005 A 
ATOM     18  C   LIG    1        6.102  -0.513  -0.058  0.00  0.00    -0.030 A 
ATOM     19  C   LIG    1        6.678  -0.918   1.132  0.00  0.00    +0.005 A 
ATOM     20  C   LIG    1        7.796  -1.731   1.117  0.00  0.00    +0.000 A 
ENDBRANCH  14  18
ENDBRANCH  12  14
ENDBRANCH   1  12
TORSDOF 3
