REMARK  Name = ZINC01710915
REMARK                            x       y       z     vdW  Elec       q    Type
REMARK                         _______ _______ _______ _____ _____    ______ ____
ROOT
ATOM      1  C   LIG    1       -1.197   2.378   0.021  0.00  0.00    +0.058 C 
ATOM      2  C   LIG    1       -0.021   1.732   0.012  0.00  0.00    +0.100 C 
ATOM      3 CL   LIG    1        0.002  -0.004   0.002  0.00  0.00    -0.079 Cl
ATOM      4  C   LIG    1        1.253   2.478   0.003  0.00  0.00    +0.206 C 
ATOM      5  C   LIG    1        1.237   3.957   0.011  0.00  0.00    +0.034 A 
ATOM      6  C   LIG    1        2.422   4.683   0.004  0.00  0.00    +0.012 A 
ATOM      7  C   LIG    1        2.380   6.069   0.012  0.00  0.00    +0.001 A 
ATOM      8  C   LIG    1        1.168   6.732   0.027  0.00  0.00    +0.001 A 
ATOM      9  C   LIG    1       -0.022   6.021   0.034  0.00  0.00    +0.012 A 
ATOM     10  C   LIG    1        0.004   4.632   0.026  0.00  0.00    +0.033 A 
ATOM     11  O   LIG    1        2.310   1.880  -0.009  0.00  0.00    -0.286 OA
ATOM     12  C   LIG    1       -1.252   3.850   0.034  0.00  0.00    +0.196 C 
ATOM     13  O   LIG    1       -2.325   4.420   0.047  0.00  0.00    -0.287 OA
ENDROOT
BRANCH   1  16
ATOM     14  C   LIG    1       -4.183   0.888   1.874  0.00  0.00    +0.086 C 
ATOM     15  C   LIG    1       -3.274   1.921   1.259  0.00  0.00    +0.102 C 
ATOM     16  C   LIG    1       -2.480   1.587   0.023  0.00  0.00    +0.066 C 
BRANCH  16  17
ATOM     17  C   LIG    1       -3.287   1.934  -1.202  0.00  0.00    +0.164 C 
ATOM     18  C   LIG    1       -4.284   0.947  -1.751  0.00  0.00    +0.092 C 
ATOM     19  O   LIG    1       -3.133   3.003  -1.743  0.00  0.00    -0.292 OA
ENDBRANCH  16  17
BRANCH  15  20
ATOM     20  O   LIG    1       -3.183   3.018   1.757  0.00  0.00    -0.511 OA
ATOM     21  H   LIG    1       -3.677   3.226   2.526  0.00  0.00    +0.292 HD
ENDBRANCH  15  20
ENDBRANCH   1  16
TORSDOF 3
