REMARK  Name = ZINC01700048
REMARK                            x       y       z     vdW  Elec       q    Type
REMARK                         _______ _______ _______ _____ _____    ______ ____
ROOT
ATOM      1  C   LIG    1        3.583   0.476  -4.124  0.00  0.00    +0.120 A 
ATOM      2  C   LIG    1        3.880   1.689  -3.519  0.00  0.00    +0.046 A 
ATOM      3  C   LIG    1        3.477   1.928  -2.220  0.00  0.00    +0.007 A 
ATOM      4  C   LIG    1        2.778   0.960  -1.522  0.00  0.00    -0.043 A 
ATOM      5  C   LIG    1        2.486  -0.252  -2.121  0.00  0.00    +0.007 A 
ATOM      6  C   LIG    1        2.882  -0.494  -3.422  0.00  0.00    +0.046 A 
ENDROOT
BRANCH   1   7
ATOM      7  O   LIG    1        3.979   0.238  -5.402  0.00  0.00    -0.494 OA
BRANCH   7   8
ATOM      8  C   LIG    1        3.639  -1.032  -5.961  0.00  0.00    +0.210 C 
BRANCH   8   9
ATOM      9  C   LIG    1        4.164  -1.115  -7.396  0.00  0.00    -0.038 C 
BRANCH   9  11
ATOM     10  C   LIG    1        6.187  -2.369  -6.953  0.00  0.00    -0.096 C 
ATOM     11  N   LIG    1        5.641  -1.059  -7.364  0.00  0.00    +0.378 N 
ATOM     12  H   LIG    1        5.933  -0.348  -6.683  0.00  0.00    -0.082 HD
ATOM     13  C   LIG    1        6.161  -0.690  -8.697  0.00  0.00    -0.096 C 
ENDBRANCH   9  11
ENDBRANCH   8   9
ENDBRANCH   7   8
ENDBRANCH   1   7
BRANCH   4  14
ATOM     14  C   LIG    1        2.339   1.223  -0.105  0.00  0.00    +0.070 C 
BRANCH  14  15
ATOM     15  C   LIG    1        0.968   1.850  -0.112  0.00  0.00    -0.043 A 
ATOM     16  C   LIG    1       -0.158   1.049  -0.067  0.00  0.00    +0.004 A 
ATOM     17  C   LIG    1       -1.415   1.623  -0.079  0.00  0.00    +0.000 A 
ATOM     18  C   LIG    1       -1.546   2.999  -0.125  0.00  0.00    +0.000 A 
ATOM     19  C   LIG    1       -0.420   3.799  -0.170  0.00  0.00    +0.000 A 
ATOM     20  C   LIG    1        0.837   3.225  -0.164  0.00  0.00    +0.004 A 
ENDBRANCH  14  15
ENDBRANCH   4  14
TORSDOF 6
