REMARK  Name = ZINC01863457
REMARK                            x       y       z     vdW  Elec       q    Type
REMARK                         _______ _______ _______ _____ _____    ______ ____
ROOT
ATOM      1  C   LIG    1       -0.019   1.526   0.010  0.00  0.00    +0.008 C 
ATOM      2  C   LIG    1        0.002  -0.004   0.002  0.00  0.00    -0.007 C 
ENDROOT
BRANCH   2   3
ATOM      3  C   LIG    1        0.742  -0.511   1.242  0.00  0.00    -0.007 C 
ATOM      4  C   LIG    1        2.178   0.019   1.231  0.00  0.00    +0.008 C 
BRANCH   3   5
ATOM      5  C   LIG    1        0.763  -2.041   1.233  0.00  0.00    +0.038 C 
BRANCH   5   6
ATOM      6  C   LIG    1        1.382  -2.542   2.512  0.00  0.00    -0.043 A 
ATOM      7  C   LIG    1        2.748  -2.748   2.583  0.00  0.00    +0.007 A 
ATOM      8  C   LIG    1        3.321  -3.208   3.754  0.00  0.00    +0.049 A 
ATOM      9  C   LIG    1        2.526  -3.462   4.861  0.00  0.00    +0.158 A 
ATOM     10  C   LIG    1        1.152  -3.254   4.790  0.00  0.00    +0.162 A 
ATOM     11  C   LIG    1        0.585  -2.789   3.614  0.00  0.00    +0.053 A 
BRANCH   9  12
ATOM     12  O   LIG    1        3.088  -3.914   6.013  0.00  0.00    -0.503 OA
ATOM     13  H   LIG    1        3.364  -3.212   6.619  0.00  0.00    +0.292 HD
ENDBRANCH   9  12
BRANCH  10  14
ATOM     14  O   LIG    1        0.369  -3.502   5.873  0.00  0.00    -0.491 OA
ATOM     15  C   LIG    1       -1.033  -3.266   5.728  0.00  0.00    +0.277 C 
ENDBRANCH  10  14
ENDBRANCH   5   6
ENDBRANCH   3   5
ENDBRANCH   2   3
BRANCH   2  16
ATOM     16  C   LIG    1       -1.433  -0.534   0.013  0.00  0.00    +0.038 C 
BRANCH  16  17
ATOM     17  C   LIG    1       -2.125  -0.137  -1.266  0.00  0.00    -0.043 A 
ATOM     18  C   LIG    1       -2.807   1.063  -1.338  0.00  0.00    +0.007 A 
ATOM     19  C   LIG    1       -3.443   1.431  -2.509  0.00  0.00    +0.049 A 
ATOM     20  C   LIG    1       -3.397   0.597  -3.614  0.00  0.00    +0.158 A 
ATOM     21  C   LIG    1       -2.709  -0.611  -3.542  0.00  0.00    +0.162 A 
ATOM     22  C   LIG    1       -2.070  -0.972  -2.367  0.00  0.00    +0.053 A 
BRANCH  20  23
ATOM     23  O   LIG    1       -4.022   0.957  -4.767  0.00  0.00    -0.503 OA
ATOM     24  H   LIG    1       -3.466   1.465  -5.374  0.00  0.00    +0.292 HD
ENDBRANCH  20  23
BRANCH  21  25
ATOM     25  O   LIG    1       -2.661  -1.433  -4.624  0.00  0.00    -0.491 OA
ATOM     26  C   LIG    1       -1.937  -2.657  -4.478  0.00  0.00    +0.277 C 
ENDBRANCH  21  25
ENDBRANCH  16  17
ENDBRANCH   2  16
TORSDOF 9
