REMARK  Name = ZINC02274790
REMARK                            x       y       z     vdW  Elec       q    Type
REMARK                         _______ _______ _______ _____ _____    ______ ____
ROOT
ATOM      1  C   LIG    1       -1.300   3.772  -2.293  0.00  0.00    +0.046 A 
ATOM      2  C   LIG    1       -0.985   3.082  -1.125  0.00  0.00    -0.022 A 
ATOM      3  C   LIG    1       -0.892   3.762   0.062  0.00  0.00    -0.031 A 
ATOM      4  C   LIG    1       -0.545   3.096   1.364  0.00  0.00    +0.036 C 
ATOM      5  C   LIG    1       -0.738   1.584   1.263  0.00  0.00    +0.005 C 
ATOM      6  C   LIG    1       -0.013   1.086   0.008  0.00  0.00    +0.005 C 
ATOM      7  C   LIG    1       -1.125   5.159   0.078  0.00  0.00    +0.037 A 
ATOM      8  C   LIG    1       -1.075   6.063   1.242  0.00  0.00    +0.093 A 
ATOM      9  C   LIG    1       -1.348   7.412   0.982  0.00  0.00    +0.080 A 
ATOM     10  S   LIG    1       -1.661   7.477  -0.761  0.00  0.00    -0.064 S 
ATOM     11  C   LIG    1       -1.330   8.353   2.002  0.00  0.00    +0.136 A 
ATOM     12  N   LIG    1       -1.047   7.941   3.237  0.00  0.00    -0.220 NA
ATOM     13  C   LIG    1       -0.791   6.666   3.466  0.00  0.00    +0.224 A 
ATOM     14  N   LIG    1       -0.798   5.752   2.528  0.00  0.00    -0.234 NA
ATOM     15  C   LIG    1       -1.438   5.759  -1.153  0.00  0.00    +0.111 A 
ATOM     16  C   LIG    1       -0.759   1.596  -1.223  0.00  0.00    +0.037 C 
ATOM     17  N   LIG    1       -1.515   5.071  -2.272  0.00  0.00    -0.244 NA
ENDROOT
BRANCH   1  19
ATOM     18  C   LIG    1       -2.833   2.534  -3.798  0.00  0.00    +0.010 C 
ATOM     19  C   LIG    1       -1.397   3.023  -3.597  0.00  0.00    +0.052 C 
ENDBRANCH   1  19
BRANCH  11  20
ATOM     20  N   LIG    1       -1.601   9.688   1.742  0.00  0.00    -0.330 N 
ATOM     21  H   LIG    1       -1.806   9.974   0.838  0.00  0.00    +0.147 HD
BRANCH  20  22
ATOM     22  C   LIG    1       -1.576  10.666   2.833  0.00  0.00    +0.084 C 
BRANCH  22  23
ATOM     23  C   LIG    1       -1.907  12.054   2.280  0.00  0.00    -0.061 C 
BRANCH  23  24
ATOM     24  N   LIG    1       -1.900  13.024   3.395  0.00  0.00    +0.377 N 
ATOM     25  H   LIG    1       -2.501  12.671   4.149  0.00  0.00    -0.083 HD
ATOM     26  C   LIG    1       -2.423  14.327   2.934  0.00  0.00    -0.097 C 
ATOM     27  C   LIG    1       -0.525  13.188   3.913  0.00  0.00    -0.097 C 
ENDBRANCH  23  24
ENDBRANCH  22  23
ENDBRANCH  20  22
ENDBRANCH  11  20
TORSDOF 5
