REMARK  Name = ZINC01685262
REMARK                            x       y       z     vdW  Elec       q    Type
REMARK                         _______ _______ _______ _____ _____    ______ ____
ROOT
ATOM      1  C   LIG    1       -0.013   1.076   0.008  0.00  0.00    +0.226 A 
ATOM      2  N   LIG    1        1.125   1.752   0.001  0.00  0.00    -0.224 NA
ATOM      3  C   LIG    1        1.112   3.075   0.007  0.00  0.00    +0.226 A 
ATOM      4  N   LIG    1       -0.037   3.726   0.021  0.00  0.00    -0.203 NA
ATOM      5  C   LIG    1       -1.183   3.050   0.029  0.00  0.00    +0.215 A 
ATOM      6  N   LIG    1       -1.166   1.720   0.017  0.00  0.00    -0.203 NA
ENDROOT
BRANCH   5   7
ATOM      7  N   LIG    1       -2.385   3.726   0.043  0.00  0.00    -0.327 N 
ATOM      8  H   LIG    1       -3.220   3.232   0.049  0.00  0.00    +0.145 HD
ATOM      9  H   LIG    1       -2.396   4.696   0.049  0.00  0.00    +0.145 HD
ENDBRANCH   5   7
TORSDOF 1
