REMARK  Name = ZINC01893945
REMARK                            x       y       z     vdW  Elec       q    Type
REMARK                         _______ _______ _______ _____ _____    ______ ____
ROOT
ATOM      1  C   LIG    1       -6.846  -7.715  -2.419  0.00  0.00    +0.000 C 
ENDROOT
BRANCH   1   2
ATOM      2  C   LIG    1       -5.888  -7.944  -3.589  0.00  0.00    +0.001 C 
BRANCH   2   3
ATOM      3  C   LIG    1       -5.434  -9.405  -3.598  0.00  0.00    +0.015 C 
BRANCH   3   4
ATOM      4  C   LIG    1       -4.475  -9.635  -4.768  0.00  0.00    +0.081 C 
BRANCH   4   5
ATOM      5  N   LIG    1       -4.041 -11.034  -4.776  0.00  0.00    -0.313 NA
ATOM      6  H   LIG    1       -4.528 -11.690  -5.299  0.00  0.00    +0.122 HD
BRANCH   5  12
ATOM      7  C   LIG    1       -4.367 -12.050  -0.694  0.00  0.00    +0.000 C 
ATOM      8  C   LIG    1       -3.228 -12.438   0.008  0.00  0.00    +0.002 C 
ATOM      9  C   LIG    1       -2.013 -12.492  -0.603  0.00  0.00    +0.019 C 
ATOM     10  C   LIG    1       -1.898 -12.151  -1.962  0.00  0.00    +0.058 C 
ATOM     11  C   LIG    1       -3.058 -11.758  -2.671  0.00  0.00    +0.023 C 
ATOM     12  C   LIG    1       -2.934 -11.420  -4.037  0.00  0.00    +0.063 C 
ATOM     13  C   LIG    1       -1.673 -11.485  -4.623  0.00  0.00    +0.023 C 
ATOM     14  C   LIG    1       -0.583 -11.873  -3.864  0.00  0.00    +0.058 C 
ATOM     15  C   LIG    1        0.810 -11.945  -4.440  0.00  0.00    +0.019 C 
ATOM     16  C   LIG    1        0.759 -11.990  -5.965  0.00  0.00    +0.002 C 
ATOM     17  C   LIG    1       -0.114 -10.829  -6.455  0.00  0.00    +0.000 C 
ATOM     18  C   LIG    1       -1.565 -11.127  -6.082  0.00  0.00    +0.006 C 
ATOM     19  N   LIG    1       -0.721 -12.190  -2.588  0.00  0.00    -0.310 NA
ATOM     20  H   LIG    1        0.064 -12.463  -2.088  0.00  0.00    +0.122 HD
ATOM     21  C   LIG    1       -4.295 -11.713  -2.012  0.00  0.00    +0.006 C 
ENDBRANCH   5  12
ENDBRANCH   4   5
ENDBRANCH   3   4
ENDBRANCH   2   3
ENDBRANCH   1   2
BRANCH   1  22
ATOM     22  C   LIG    1       -7.300  -6.253  -2.410  0.00  0.00    +0.001 C 
BRANCH  22  23
ATOM     23  C   LIG    1       -8.259  -6.024  -1.240  0.00  0.00    +0.015 C 
BRANCH  23  24
ATOM     24  C   LIG    1       -8.712  -4.563  -1.232  0.00  0.00    +0.081 C 
BRANCH  24  25
ATOM     25  N   LIG    1       -9.630  -4.343  -0.112  0.00  0.00    -0.313 NA
ATOM     26  H   LIG    1       -9.314  -4.439   0.801  0.00  0.00    +0.122 HD
BRANCH  25  27
ATOM     27  C   LIG    1      -10.951  -3.999  -0.355  0.00  0.00    +0.063 C 
ATOM     28  C   LIG    1      -11.924  -4.993  -0.599  0.00  0.00    +0.023 C 
ATOM     29  C   LIG    1      -11.597  -6.356  -0.605  0.00  0.00    +0.006 C 
ATOM     30  C   LIG    1      -12.569  -7.281  -0.844  0.00  0.00    +0.000 C 
ATOM     31  C   LIG    1      -13.884  -6.888  -1.083  0.00  0.00    +0.002 C 
ATOM     32  C   LIG    1      -14.235  -5.573  -1.085  0.00  0.00    +0.019 C 
ATOM     33  C   LIG    1      -13.259  -4.590  -0.843  0.00  0.00    +0.058 C 
ATOM     34  N   LIG    1      -13.569  -3.292  -0.841  0.00  0.00    -0.310 NA
ATOM     35  H   LIG    1      -14.488  -3.033  -1.011  0.00  0.00    +0.122 HD
ATOM     36  C   LIG    1      -12.672  -2.347  -0.616  0.00  0.00    +0.058 C 
ATOM     37  C   LIG    1      -13.160  -0.919  -0.652  0.00  0.00    +0.019 C 
ATOM     38  C   LIG    1      -12.168   0.004   0.061  0.00  0.00    +0.002 C 
ATOM     39  C   LIG    1      -10.776  -0.245  -0.529  0.00  0.00    +0.000 C 
ATOM     40  C   LIG    1      -10.301  -1.624  -0.075  0.00  0.00    +0.006 C 
ATOM     41  C   LIG    1      -11.351  -2.666  -0.358  0.00  0.00    +0.023 C 
ENDBRANCH  25  27
ENDBRANCH  24  25
ENDBRANCH  23  24
ENDBRANCH  22  23
ENDBRANCH   1  22
TORSDOF 10
