REMARK  Name = ZINC01706243
REMARK                            x       y       z     vdW  Elec       q    Type
REMARK                         _______ _______ _______ _____ _____    ______ ____
ROOT
ATOM      1  N   LIG    1       -2.514   5.256   0.067  0.00  0.00    -0.313 NA
ATOM      2  H   LIG    1       -1.690   5.766   0.078  0.00  0.00    +0.122 HD
ENDROOT
BRANCH   1   3
ATOM      3  C   LIG    1       -2.472   3.870   0.053  0.00  0.00    +0.059 C 
ATOM      4  C   LIG    1       -3.637   3.119   0.019  0.00  0.00    +0.034 C 
ATOM      5  C   LIG    1       -3.562   1.734   0.006  0.00  0.00    +0.082 C 
ATOM      6  N   LIG    1       -2.411   1.022   0.014  0.00  0.00    -0.313 NA
ATOM      7  H   LIG    1       -2.405  -0.004   0.004  0.00  0.00    +0.122 HD
ATOM      8  C   LIG    1       -1.248   1.762   0.036  0.00  0.00    +0.060 C 
ATOM      9  C   LIG    1       -0.024   1.071   0.045  0.00  0.00    +0.038 C 
ATOM     10  C   LIG    1        1.146   1.768   0.061  0.00  0.00    +0.082 C 
ATOM     11 CL   LIG    1        2.654   0.908   0.065  0.00  0.00    -0.122 Cl
ATOM     12  C   LIG    1        1.151   3.162   0.075  0.00  0.00    +0.020 C 
ATOM     13  C   LIG    1       -0.016   3.864   0.072  0.00  0.00    +0.008 C 
ATOM     14  C   LIG    1       -1.238   3.177   0.056  0.00  0.00    +0.023 C 
ENDBRANCH   1   3
BRANCH   1  15
ATOM     15  C   LIG    1       -3.805   5.949   0.063  0.00  0.00    +0.079 C 
BRANCH  15  16
ATOM     16  C   LIG    1       -3.571   7.461   0.080  0.00  0.00    -0.003 C 
BRANCH  16  17
ATOM     17  C   LIG    1       -4.919   8.186   0.076  0.00  0.00    -0.078 C 
BRANCH  17  18
ATOM     18  N   LIG    1       -4.678   9.635   0.236  0.00  0.00    +0.381 N 
ATOM     19  H   LIG    1       -3.950   9.776   0.947  0.00  0.00    -0.082 HD
BRANCH  18  21
ATOM     20  C   LIG    1       -6.113  10.039   2.173  0.00  0.00    -0.017 C 
ATOM     21  C   LIG    1       -5.917  10.307   0.680  0.00  0.00    -0.082 C 
ENDBRANCH  18  21
BRANCH  18  22
ATOM     22  C   LIG    1       -4.218  10.215  -1.043  0.00  0.00    -0.051 C 
BRANCH  22  23
ATOM     23  C   LIG    1       -3.765  11.656  -0.797  0.00  0.00    +0.137 C 
BRANCH  23  24
ATOM     24  O   LIG    1       -2.633  11.656   0.075  0.00  0.00    -0.397 OA
ATOM     25  H   LIG    1       -2.291  12.539   0.275  0.00  0.00    +0.209 HD
ENDBRANCH  23  24
ENDBRANCH  22  23
ENDBRANCH  18  22
ENDBRANCH  17  18
ENDBRANCH  16  17
ENDBRANCH  15  16
ENDBRANCH   1  15
TORSDOF 9
