REMARK  Name = ZINC01811469
REMARK                            x       y       z     vdW  Elec       q    Type
REMARK                         _______ _______ _______ _____ _____    ______ ____
ROOT
ATOM      1  N   LIG    1        4.481   0.297   2.081  0.00  0.00    -0.241 N 
ATOM      2  C   LIG    1        3.815   0.618   3.178  0.00  0.00    +0.260 C 
ATOM      3  C   LIG    1        4.110   1.955   3.762  0.00  0.00    +0.089 C 
ATOM      4  S   LIG    1        5.335   2.559   2.608  0.00  0.00    -0.060 S 
ATOM      5  C   LIG    1        3.583   2.561   4.886  0.00  0.00    +0.065 C 
ATOM      6  C   LIG    1        2.462   2.085   5.723  0.00  0.00    +0.010 A 
ATOM      7  C   LIG    1        1.636   0.966   5.663  0.00  0.00    +0.010 A 
ATOM      8  C   LIG    1        0.650   0.792   6.613  0.00  0.00    +0.001 A 
ATOM      9  C   LIG    1        0.485   1.728   7.621  0.00  0.00    +0.002 A 
ATOM     10  C   LIG    1        1.299   2.841   7.689  0.00  0.00    +0.024 A 
ATOM     11  C   LIG    1        2.298   3.034   6.742  0.00  0.00    +0.045 A 
ATOM     12  N   LIG    1        3.236   4.047   6.582  0.00  0.00    -0.256 N 
ATOM     13  C   LIG    1        4.022   3.823   5.516  0.00  0.00    +0.253 C 
ATOM     14  O   LIG    1        4.932   4.535   5.134  0.00  0.00    -0.270 OA
ATOM     15  O   LIG    1        3.007  -0.138   3.681  0.00  0.00    -0.269 OA
ATOM     16  C   LIG    1        5.381   1.137   1.530  0.00  0.00    +0.121 C 
ATOM     17  S   LIG    1        6.336   0.897   0.130  0.00  0.00    -0.027 S 
ENDROOT
BRANCH   1  18
ATOM     18  C   LIG    1        4.239  -1.004   1.453  0.00  0.00    +0.195 C 
BRANCH  18  19
ATOM     19  C   LIG    1        5.522  -1.794   1.425  0.00  0.00    +0.326 C 
ATOM     20  O   LIG    1        6.577  -1.255   1.716  0.00  0.00    -0.249 OA
BRANCH  19  21
ATOM     21  O   LIG    1        5.506  -2.972   1.111  0.00  0.00    -0.479 OA
ATOM     22  H   LIG    1        4.696  -3.386   0.888  0.00  0.00    +0.295 HD
ENDBRANCH  19  21
ENDBRANCH  18  19
BRANCH  18  23
ATOM     23  C   LIG    1        3.739  -0.794   0.022  0.00  0.00    +0.069 C 
BRANCH  23  27
ATOM     24  C   LIG    1       -0.070   1.139   0.114  0.00  0.00    +0.000 A 
ATOM     25  C   LIG    1        1.088   1.893   0.067  0.00  0.00    +0.000 A 
ATOM     26  C   LIG    1        2.320   1.268   0.037  0.00  0.00    +0.004 A 
ATOM     27  C   LIG    1        2.395  -0.112   0.056  0.00  0.00    -0.045 A 
ATOM     28  C   LIG    1        1.238  -0.867   0.103  0.00  0.00    +0.004 A 
ATOM     29  C   LIG    1        0.005  -0.241   0.132  0.00  0.00    +0.000 A 
ENDBRANCH  23  27
ENDBRANCH  18  23
ENDBRANCH   1  18
BRANCH  12  30
ATOM     30  C   LIG    1        3.357   5.207   7.468  0.00  0.00    +0.234 C 
BRANCH  30  31
ATOM     31  C   LIG    1        4.313   4.887   8.588  0.00  0.00    +0.323 C 
ATOM     32  O   LIG    1        4.844   3.791   8.642  0.00  0.00    -0.249 OA
BRANCH  31  33
ATOM     33  O   LIG    1        4.556   5.724   9.441  0.00  0.00    -0.480 OA
ATOM     34  H   LIG    1        4.148   6.566   9.400  0.00  0.00    +0.295 HD
ENDBRANCH  31  33
ENDBRANCH  30  31
ENDBRANCH  12  30
TORSDOF 8
