REMARK  Name = ZINC02047657
REMARK                            x       y       z     vdW  Elec       q    Type
REMARK                         _______ _______ _______ _____ _____    ______ ____
ROOT
ATOM      1  C   LIG    1        5.435  -1.670   1.364  0.00  0.00    +0.200 C 
ENDROOT
BRANCH   1   2
ATOM      2  C   LIG    1        6.351  -1.030   2.375  0.00  0.00    -0.019 A 
ATOM      3  C   LIG    1        5.832  -0.507   3.545  0.00  0.00    +0.006 A 
ATOM      4  C   LIG    1        6.672   0.080   4.472  0.00  0.00    +0.000 A 
ATOM      5  C   LIG    1        8.031   0.143   4.231  0.00  0.00    +0.000 A 
ATOM      6  C   LIG    1        8.551  -0.381   3.062  0.00  0.00    +0.000 A 
ATOM      7  C   LIG    1        7.711  -0.972   2.136  0.00  0.00    +0.006 A 
ENDBRANCH   1   2
BRANCH   1   8
ATOM      8  N   LIG    1        4.153  -0.953   1.342  0.00  0.00    -0.296 NA
ATOM      9  H   LIG    1        4.212  -0.090   1.862  0.00  0.00    +0.123 HD
BRANCH   8  10
ATOM     10  C   LIG    1        3.711  -0.707  -0.038  0.00  0.00    +0.117 C 
BRANCH  10  14
ATOM     11  C   LIG    1       -0.017   1.378   0.010  0.00  0.00    +0.000 A 
ATOM     12  C   LIG    1        1.171   2.086   0.002  0.00  0.00    +0.000 A 
ATOM     13  C   LIG    1        2.377   1.411  -0.013  0.00  0.00    +0.005 A 
ATOM     14  C   LIG    1        2.396   0.029  -0.020  0.00  0.00    -0.034 A 
ATOM     15  C   LIG    1        1.208  -0.679  -0.012  0.00  0.00    +0.005 A 
ATOM     16  C   LIG    1        0.002  -0.004   0.002  0.00  0.00    +0.000 A 
ENDBRANCH  10  14
ENDBRANCH   8  10
ENDBRANCH   1   8
BRANCH   1  17
ATOM     17  P   LIG    1        5.149  -3.412   1.819  0.00  0.00    +0.349 P 
ATOM     18  O   LIG    1        4.615  -3.485   3.267  0.00  0.00    -0.257 OA
BRANCH  17  19
ATOM     19  O   LIG    1        6.477  -4.195   1.720  0.00  0.00    -0.323 OA
ATOM     20  H   LIG    1        7.128  -3.805   2.325  0.00  0.00    +0.220 HD
ENDBRANCH  17  19
BRANCH  17  21
ATOM     21  O   LIG    1        4.069  -4.059   0.815  0.00  0.00    -0.323 OA
ATOM     22  H   LIG    1        3.868  -4.987   0.999  0.00  0.00    +0.220 HD
ENDBRANCH  17  21
ENDBRANCH   1  17
TORSDOF 7
