REMARK  Name = ZINC01679613
REMARK                            x       y       z     vdW  Elec       q    Type
REMARK                         _______ _______ _______ _____ _____    ______ ____
ROOT
ATOM      1  N   LIG    1        4.120  -0.936  -1.437  0.00  0.00    +0.385 N 
ATOM      2  H   LIG    1        3.401  -1.494  -1.912  0.00  0.00    -0.085 HD
ATOM      3  H   LIG    1        4.220  -0.031  -1.912  0.00  0.00    -0.085 HD
ENDROOT
BRANCH   1   4
ATOM      4  C   LIG    1        3.711  -0.707  -0.038  0.00  0.00    -0.046 C 
BRANCH   4   8
ATOM      5  C   LIG    1       -0.017   1.378   0.010  0.00  0.00    +0.000 A 
ATOM      6  C   LIG    1        1.171   2.086   0.002  0.00  0.00    +0.000 A 
ATOM      7  C   LIG    1        2.377   1.411  -0.014  0.00  0.00    +0.002 A 
ATOM      8  C   LIG    1        2.396   0.029  -0.021  0.00  0.00    -0.064 A 
ATOM      9  C   LIG    1        1.208  -0.679  -0.014  0.00  0.00    +0.002 A 
ATOM     10  C   LIG    1        0.002  -0.004   0.002  0.00  0.00    +0.000 A 
ENDBRANCH   4   8
ENDBRANCH   1   4
BRANCH   1  11
ATOM     11  C   LIG    1        5.406  -1.655  -1.483  0.00  0.00    -0.028 C 
BRANCH  11  12
ATOM     12  C   LIG    1        5.798  -1.874  -2.922  0.00  0.00    -0.001 A 
ATOM     13  C   LIG    1        5.556  -2.986  -3.647  0.00  0.00    +0.020 A 
ATOM     14  C   LIG    1        6.084  -2.772  -4.936  0.00  0.00    +0.019 A 
ATOM     15  C   LIG    1        6.635  -1.541  -4.947  0.00  0.00    +0.082 A 
ATOM     16  N   LIG    1        6.462  -0.985  -3.714  0.00  0.00    -0.366 N 
ATOM     17  H   LIG    1        6.763  -0.103  -3.444  0.00  0.00    +0.165 HD
ENDBRANCH  11  12
ENDBRANCH   1  11
TORSDOF 4
