REMARK  Name = ZINC01684315
REMARK                            x       y       z     vdW  Elec       q    Type
REMARK                         _______ _______ _______ _____ _____    ______ ____
ROOT
ATOM      1  C   LIG    1        3.644  -2.024   0.060  0.00  0.00    +0.293 A 
ATOM      2  N   LIG    1        2.586  -2.793   0.071  0.00  0.00    -0.195 NA
ATOM      3  C   LIG    1        2.989  -4.089   0.177  0.00  0.00    +0.111 A 
ATOM      4  C   LIG    1        2.311  -5.308   0.235  0.00  0.00    +0.031 A 
ATOM      5  C   LIG    1        3.024  -6.481   0.345  0.00  0.00    +0.002 A 
ATOM      6  C   LIG    1        4.409  -6.458   0.399  0.00  0.00    +0.004 A 
ATOM      7  C   LIG    1        5.092  -5.260   0.343  0.00  0.00    +0.048 A 
ATOM      8  C   LIG    1        4.391  -4.071   0.232  0.00  0.00    +0.157 A 
ATOM      9  O   LIG    1        4.759  -2.771   0.151  0.00  0.00    -0.424 OA
ENDROOT
BRANCH   1  10
ATOM     10  N   LIG    1        3.621  -0.650  -0.036  0.00  0.00    -0.269 N 
ATOM     11  H   LIG    1        4.451  -0.155  -0.123  0.00  0.00    +0.157 HD
BRANCH  10  15
ATOM     12  C   LIG    1       -0.014   1.382   0.047  0.00  0.00    +0.000 A 
ATOM     13  C   LIG    1        0.125   0.188   0.732  0.00  0.00    +0.002 A 
ATOM     14  C   LIG    1        1.329  -0.488   0.706  0.00  0.00    +0.023 A 
ATOM     15  C   LIG    1        2.401   0.032  -0.009  0.00  0.00    +0.035 A 
ATOM     16  C   LIG    1        2.257   1.231  -0.695  0.00  0.00    +0.023 A 
ATOM     17  C   LIG    1        1.051   1.902  -0.665  0.00  0.00    +0.002 A 
ENDBRANCH  10  15
ENDBRANCH   1  10
TORSDOF 2
