REMARK  Name = ZINC01736331
REMARK                            x       y       z     vdW  Elec       q    Type
REMARK                         _______ _______ _______ _____ _____    ______ ____
ROOT
ATOM      1  C   LIG    1        0.002  -0.004   0.002  0.00  0.00    +0.063 A 
ATOM      2  C   LIG    1       -0.016   1.350   0.009  0.00  0.00    +0.126 A 
ATOM      3  C   LIG    1        1.162   2.096   0.002  0.00  0.00    +0.067 A 
ATOM      4  C   LIG    1        2.378   1.499  -0.013  0.00  0.00    +0.152 A 
ATOM      5  C   LIG    1        2.474   0.084  -0.022  0.00  0.00    +0.130 A 
ATOM      6  N   LIG    1        3.557  -0.692  -0.036  0.00  0.00    -0.188 NA
ATOM      7  S   LIG    1        3.036  -2.170  -0.039  0.00  0.00    +0.117 S 
ATOM      8  N   LIG    1        1.478  -2.007  -0.023  0.00  0.00    -0.191 NA
ATOM      9  C   LIG    1        1.240  -0.697  -0.014  0.00  0.00    +0.104 A 
ENDROOT
BRANCH   2  10
ATOM     10  N   LIG    1       -1.318   2.055   0.019  0.00  0.00    +0.006 N 
ATOM     11  O   LIG    1       -2.356   1.418   0.021  0.00  0.00    -0.130 OA
BRANCH  10  12
ATOM     12  O   LIG    1       -1.351   3.273   0.026  0.00  0.00    -0.396 OA
ATOM     13  H   LIG    1       -0.552   3.763   0.025  0.00  0.00    +0.329 HD
ENDBRANCH  10  12
ENDBRANCH   2  10
BRANCH   4  14
ATOM     14  N   LIG    1        3.607   2.325  -0.020  0.00  0.00    +0.008 N 
ATOM     15  O   LIG    1        3.525   3.540  -0.012  0.00  0.00    -0.130 OA
BRANCH  14  16
ATOM     16  O   LIG    1        4.701   1.788  -0.034  0.00  0.00    -0.396 OA
ATOM     17  H   LIG    1        4.764   0.853  -0.040  0.00  0.00    +0.329 HD
ENDBRANCH  14  16
ENDBRANCH   4  14
TORSDOF 4
