REMARK  Name = ZINC01749514
REMARK                            x       y       z     vdW  Elec       q    Type
REMARK                         _______ _______ _______ _____ _____    ______ ____
ROOT
ATOM      1  C   LIG    1       -1.848   2.447   1.127  0.00  0.00    +0.023 C 
ATOM      2  C   LIG    1       -2.685   2.270   0.064  0.00  0.00    +0.079 C 
ATOM      3  C   LIG    1       -3.979   2.919  -0.242  0.00  0.00    +0.276 C 
ATOM      4  N   LIG    1       -4.571   2.545  -1.355  0.00  0.00    -0.154 NA
ATOM      5  C   LIG    1       -4.049   1.640  -2.167  0.00  0.00    +0.156 C 
ATOM      6  O   LIG    1       -4.470   3.756   0.499  0.00  0.00    -0.267 OA
ATOM      7  S   LIG    1       -2.522   1.194  -1.355  0.00  0.00    -0.051 S 
ENDROOT
BRANCH   1   9
ATOM      8  C   LIG    1        0.368   1.978   0.008  0.00  0.00    +0.044 C 
ATOM      9  C   LIG    1       -0.596   1.800   1.153  0.00  0.00    -0.049 C 
ATOM     10  C   LIG    1       -0.259   1.020   2.207  0.00  0.00    +0.011 C 
BRANCH  10  11
ATOM     11  C   LIG    1       -1.252   0.726   3.251  0.00  0.00    -0.025 A 
ATOM     12  C   LIG    1       -0.838   0.479   4.565  0.00  0.00    +0.008 A 
ATOM     13  C   LIG    1       -1.776   0.208   5.539  0.00  0.00    +0.001 A 
ATOM     14  C   LIG    1       -3.122   0.171   5.218  0.00  0.00    +0.000 A 
ATOM     15  C   LIG    1       -3.538   0.409   3.920  0.00  0.00    +0.001 A 
ATOM     16  C   LIG    1       -2.614   0.686   2.935  0.00  0.00    +0.008 A 
ENDBRANCH  10  11
ENDBRANCH   1   9
BRANCH   5  17
ATOM     17  N   LIG    1       -4.556   1.163  -3.349  0.00  0.00    -0.296 N 
ATOM     18  H   LIG    1       -4.050   0.519  -3.869  0.00  0.00    +0.154 HD
BRANCH  17  19
ATOM     19  C   LIG    1       -5.801   1.606  -3.805  0.00  0.00    +0.035 A 
ATOM     20  C   LIG    1       -6.787   1.967  -2.895  0.00  0.00    +0.043 A 
ATOM     21  C   LIG    1       -8.015   2.410  -3.349  0.00  0.00    +0.044 A 
ATOM     22 CL   LIG    1       -9.245   2.870  -2.213  0.00  0.00    -0.083 Cl
ATOM     23  C   LIG    1       -8.267   2.483  -4.707  0.00  0.00    +0.040 A 
ATOM     24  C   LIG    1       -7.289   2.118  -5.616  0.00  0.00    +0.044 A 
ATOM     25 CL   LIG    1       -7.609   2.212  -7.319  0.00  0.00    -0.083 Cl
ATOM     26  C   LIG    1       -6.057   1.680  -5.168  0.00  0.00    +0.043 A 
ENDBRANCH  17  19
ENDBRANCH   5  17
TORSDOF 4
