REMARK  Name = ZINC01745102
REMARK                            x       y       z     vdW  Elec       q    Type
REMARK                         _______ _______ _______ _____ _____    ______ ____
ROOT
ATOM      1  C   LIG    1        2.352   3.934   0.169  0.00  0.00    +0.135 A 
ATOM      2  C   LIG    1        1.151   3.180   0.168  0.00  0.00    +0.040 A 
ATOM      3  C   LIG    1        1.147   1.793  -0.017  0.00  0.00    +0.013 A 
ATOM      4  C   LIG    1       -0.038   1.117  -0.008  0.00  0.00    +0.001 A 
ATOM      5  C   LIG    1       -1.243   1.790   0.175  0.00  0.00    +0.002 A 
ATOM      6  C   LIG    1       -1.273   3.140   0.363  0.00  0.00    +0.028 A 
ATOM      7  C   LIG    1       -0.073   3.865   0.360  0.00  0.00    +0.077 A 
ATOM      8  N   LIG    1       -0.049   5.194   0.535  0.00  0.00    -0.227 NA
ATOM      9  C   LIG    1        1.098   5.848   0.528  0.00  0.00    +0.162 A 
ATOM     10  N   LIG    1        2.271   5.243   0.351  0.00  0.00    -0.212 NA
ENDROOT
BRANCH   9  11
ATOM     11  C   LIG    1        1.079   7.317   0.725  0.00  0.00    +0.019 A 
ATOM     12  C   LIG    1        2.272   8.038   0.729  0.00  0.00    +0.011 A 
ATOM     13  C   LIG    1        2.247   9.406   0.907  0.00  0.00    +0.001 A 
ATOM     14  C   LIG    1        1.043  10.061   1.095  0.00  0.00    +0.000 A 
ATOM     15  C   LIG    1       -0.144   9.350   1.097  0.00  0.00    +0.001 A 
ATOM     16  C   LIG    1       -0.132   7.982   0.914  0.00  0.00    +0.011 A 
ENDBRANCH   9  11
BRANCH   1  17
ATOM     17  N   LIG    1        3.574   3.319  -0.014  0.00  0.00    -0.299 N 
ATOM     18  H   LIG    1        3.627   2.352  -0.065  0.00  0.00    +0.154 HD
BRANCH  17  23
ATOM     19  C   LIG    1        7.094   4.379   0.247  0.00  0.00    +0.061 A 
ATOM     20  C   LIG    1        7.029   5.637  -0.357  0.00  0.00    +0.015 A 
ATOM     21  C   LIG    1        5.826   6.110  -0.839  0.00  0.00    +0.003 A 
ATOM     22  C   LIG    1        4.681   5.343  -0.725  0.00  0.00    +0.023 A 
ATOM     23  C   LIG    1        4.734   4.090  -0.126  0.00  0.00    +0.033 A 
ATOM     24  C   LIG    1        5.938   3.608   0.365  0.00  0.00    +0.038 A 
BRANCH  19  25
ATOM     25  C   LIG    1        8.381   3.870   0.764  0.00  0.00    +0.339 C 
ATOM     26  O   LIG    1        8.434   2.776   1.289  0.00  0.00    -0.245 OA
BRANCH  25  28
ATOM     27  C   LIG    1       10.724   4.056   1.183  0.00  0.00    +0.280 C 
ATOM     28  O   LIG    1        9.495   4.620   0.653  0.00  0.00    -0.464 OA
ENDBRANCH  25  28
ENDBRANCH  19  25
ENDBRANCH  17  23
ENDBRANCH   1  17
TORSDOF 5
