REMARK  Name = ZINC02130542
REMARK                            x       y       z     vdW  Elec       q    Type
REMARK                         _______ _______ _______ _____ _____    ______ ____
ROOT
ATOM      1  C   LIG    1       -1.265   6.997   2.118  0.00  0.00    -0.021 A 
ATOM      2  C   LIG    1       -1.922   6.891   3.284  0.00  0.00    +0.087 A 
ATOM      3  N   LIG    1       -2.091   5.571   3.606  0.00  0.00    -0.360 N 
ATOM      4  C   LIG    1       -1.532   4.776   2.630  0.00  0.00    +0.050 A 
ATOM      5  C   LIG    1       -1.429   3.400   2.461  0.00  0.00    +0.071 A 
ATOM      6  C   LIG    1       -0.787   2.892   1.346  0.00  0.00    +0.122 A 
ATOM      7  C   LIG    1       -0.254   3.748   0.386  0.00  0.00    +0.046 A 
ATOM      8  C   LIG    1       -0.352   5.102   0.534  0.00  0.00    +0.014 A 
ATOM      9  H   LIG    1       -2.538   5.244   4.402  0.00  0.00    +0.165 HD
ATOM     10  C   LIG    1       -0.991   5.634   1.655  0.00  0.00    +0.003 A 
ENDROOT
BRANCH   6  11
ATOM     11  O   LIG    1       -0.682   1.547   1.184  0.00  0.00    -0.495 OA
ATOM     12  C   LIG    1       -0.013   1.086   0.008  0.00  0.00    +0.277 C 
ENDBRANCH   6  11
BRANCH   1  13
ATOM     13  C   LIG    1       -0.883   8.276   1.418  0.00  0.00    +0.056 C 
BRANCH  13  14
ATOM     14  C   LIG    1       -1.952   8.630   0.382  0.00  0.00    +0.109 C 
BRANCH  14  17
ATOM     15  C   LIG    1       -1.996  11.659  -1.958  0.00  0.00    +0.109 C 
ATOM     16  C   LIG    1       -2.379  10.380  -1.258  0.00  0.00    +0.210 C 
ATOM     17  N   LIG    1       -1.580   9.872  -0.299  0.00  0.00    -0.315 N 
ATOM     18  H   LIG    1       -0.759  10.330  -0.059  0.00  0.00    +0.149 HD
ATOM     19  O   LIG    1       -3.405   9.808  -1.558  0.00  0.00    -0.276 OA
ENDBRANCH  14  17
ENDBRANCH  13  14
ENDBRANCH   1  13
TORSDOF 4
