REMARK  Name = ZINC02019529
REMARK                            x       y       z     vdW  Elec       q    Type
REMARK                         _______ _______ _______ _____ _____    ______ ____
ROOT
ATOM      1  C   LIG    1        0.290  -0.121   3.414  0.00  0.00    -0.006 C 
ENDROOT
BRANCH   1   2
ATOM      2  C   LIG    1       -0.754   0.732   2.691  0.00  0.00    -0.081 C 
BRANCH   2   3
ATOM      3  N   LIG    1       -0.395   0.845   1.270  0.00  0.00    +0.383 N 
ATOM      4  H   LIG    1        0.511   1.280   1.186  0.00  0.00    -0.085 HD
ATOM      5  H   LIG    1       -0.367  -0.074   0.857  0.00  0.00    -0.085 HD
BRANCH   3   7
ATOM      6  C   LIG    1       -1.354   3.093   1.119  0.00  0.00    -0.009 C 
ATOM      7  C   LIG    1       -1.398   1.664   0.576  0.00  0.00    -0.044 C 
BRANCH   7   8
ATOM      8  C   LIG    1       -1.099   1.679  -0.901  0.00  0.00    -0.062 A 
ATOM      9  C   LIG    1        0.209   1.764  -1.340  0.00  0.00    +0.002 A 
ATOM     10  C   LIG    1        0.484   1.777  -2.695  0.00  0.00    +0.000 A 
ATOM     11  C   LIG    1       -0.549   1.706  -3.611  0.00  0.00    +0.000 A 
ATOM     12  C   LIG    1       -1.857   1.620  -3.171  0.00  0.00    +0.000 A 
ATOM     13  C   LIG    1       -2.131   1.602  -1.816  0.00  0.00    +0.002 A 
ENDBRANCH   7   8
ENDBRANCH   3   7
ENDBRANCH   2   3
ENDBRANCH   1   2
BRANCH   1  14
ATOM     14  C   LIG    1       -0.084  -0.238   4.893  0.00  0.00    +0.047 C 
BRANCH  14  15
ATOM     15  C   LIG    1        1.007  -0.973   5.630  0.00  0.00    -0.040 A 
ATOM     16  C   LIG    1        1.456  -2.194   5.161  0.00  0.00    +0.004 A 
ATOM     17  C   LIG    1        2.455  -2.868   5.837  0.00  0.00    +0.000 A 
ATOM     18  C   LIG    1        3.007  -2.322   6.981  0.00  0.00    +0.000 A 
ATOM     19  C   LIG    1        2.558  -1.101   7.448  0.00  0.00    +0.000 A 
ATOM     20  C   LIG    1        1.562  -0.424   6.770  0.00  0.00    +0.004 A 
ENDBRANCH  14  15
BRANCH  14  21
ATOM     21  C   LIG    1       -1.379  -0.997   5.025  0.00  0.00    -0.040 A 
ATOM     22  C   LIG    1       -2.425  -0.459   5.751  0.00  0.00    +0.004 A 
ATOM     23  C   LIG    1       -3.613  -1.155   5.872  0.00  0.00    +0.000 A 
ATOM     24  C   LIG    1       -3.755  -2.389   5.267  0.00  0.00    +0.000 A 
ATOM     25  C   LIG    1       -2.710  -2.928   4.540  0.00  0.00    +0.000 A 
ATOM     26  C   LIG    1       -1.523  -2.230   4.415  0.00  0.00    +0.004 A 
ENDBRANCH  14  21
ENDBRANCH   1  14
TORSDOF 7
