REMARK  Name = ZINC02047389
REMARK                            x       y       z     vdW  Elec       q    Type
REMARK                         _______ _______ _______ _____ _____    ______ ____
ROOT
ATOM      1  C   LIG    1        2.200   7.978   0.326  0.00  0.00    +0.084 A 
ATOM      2  C   LIG    1        3.430   7.304   0.312  0.00  0.00    +0.049 A 
ATOM      3  C   LIG    1        3.424   5.928   0.200  0.00  0.00    +0.116 A 
ATOM      4  N   LIG    1        2.266   5.288   0.115  0.00  0.00    -0.223 NA
ATOM      5  C   LIG    1        1.118   5.949   0.126  0.00  0.00    +0.220 A 
ATOM      6  N   LIG    1        1.074   7.268   0.231  0.00  0.00    -0.214 NA
ENDROOT
BRANCH   1   9
ATOM      7  C   LIG    1       -0.335   9.745   0.386  0.00  0.00    +0.067 C 
ATOM      8  C   LIG    1        1.068  10.286   0.476  0.00  0.00    +0.057 A 
ATOM      9  C   LIG    1        2.152   9.446   0.444  0.00  0.00    +0.062 A 
ATOM     10  S   LIG    1        3.488  10.623   0.591  0.00  0.00    -0.051 S 
ATOM     11  C   LIG    1        2.516  12.060   0.669  0.00  0.00    +0.156 A 
ATOM     12  N   LIG    1        1.288  11.575   0.589  0.00  0.00    -0.230 NA
BRANCH  11  13
ATOM     13  N   LIG    1        2.923  13.375   0.790  0.00  0.00    -0.338 N 
ATOM     14  H   LIG    1        3.868  13.588   0.839  0.00  0.00    +0.144 HD
ATOM     15  H   LIG    1        2.263  14.085   0.827  0.00  0.00    +0.144 HD
ENDBRANCH  11  13
ENDBRANCH   1   9
BRANCH   5  16
ATOM     16  N   LIG    1       -0.069   5.240   0.029  0.00  0.00    -0.284 N 
ATOM     17  H   LIG    1       -0.912   5.714  -0.042  0.00  0.00    +0.155 HD
BRANCH  16  18
ATOM     18  C   LIG    1       -0.051   3.842   0.033  0.00  0.00    +0.036 A 
ATOM     19  C   LIG    1       -0.984   3.132  -0.712  0.00  0.00    +0.023 A 
ATOM     20  C   LIG    1       -0.963   1.751  -0.705  0.00  0.00    +0.004 A 
ATOM     21  C   LIG    1       -0.016   1.076   0.043  0.00  0.00    +0.033 A 
ATOM     22  C   LIG    1        0.910   1.780   0.790  0.00  0.00    +0.123 A 
ATOM     23  C   LIG    1        0.899   3.161   0.783  0.00  0.00    +0.056 A 
BRANCH  22  24
ATOM     24  N   LIG    1        1.919   1.053   1.593  0.00  0.00    +0.006 N 
ATOM     25  O   LIG    1        1.932  -0.165   1.596  0.00  0.00    -0.130 OA
BRANCH  24  26
ATOM     26  O   LIG    1        2.735   1.672   2.252  0.00  0.00    -0.396 OA
ATOM     27  H   LIG    1        2.724   2.609   2.249  0.00  0.00    +0.329 HD
ENDBRANCH  24  26
ENDBRANCH  22  24
ENDBRANCH  16  18
ENDBRANCH   5  16
TORSDOF 6
