REMARK  Name = ZINC02361761
REMARK                            x       y       z     vdW  Elec       q    Type
REMARK                         _______ _______ _______ _____ _____    ______ ____
ROOT
ATOM      1  C   LIG    1        2.088  -4.427  -3.631  0.00  0.00    +0.195 A 
ATOM      2  C   LIG    1        2.195  -5.857  -3.933  0.00  0.00    +0.183 A 
ATOM      3  N   LIG    1        2.816  -6.248  -5.026  0.00  0.00    -0.226 NA
ATOM      4  C   LIG    1        3.347  -5.339  -5.859  0.00  0.00    +0.091 A 
ATOM      5  C   LIG    1        4.010  -5.750  -7.027  0.00  0.00    +0.030 A 
ATOM      6  C   LIG    1        4.545  -4.819  -7.866  0.00  0.00    +0.002 A 
ATOM      7  C   LIG    1        4.446  -3.460  -7.582  0.00  0.00    +0.002 A 
ATOM      8  C   LIG    1        3.810  -3.026  -6.459  0.00  0.00    +0.030 A 
ATOM      9  C   LIG    1        3.244  -3.957  -5.571  0.00  0.00    +0.092 A 
ATOM     10  N   LIG    1        2.612  -3.541  -4.465  0.00  0.00    -0.223 NA
ENDROOT
BRANCH   1  16
ATOM     11  C   LIG    1        2.339  -2.911   1.024  0.00  0.00    +0.107 C 
ATOM     12  C   LIG    1        3.652  -3.197   0.952  0.00  0.00    +0.087 C 
ATOM     13  C   LIG    1        4.233  -3.734  -0.212  0.00  0.00    +0.125 C 
ATOM     14  C   LIG    1        3.514  -4.005  -1.354  0.00  0.00    +0.069 C 
ATOM     15  C   LIG    1        2.140  -3.754  -1.414  0.00  0.00    +0.054 C 
ATOM     16  N   LIG    1        1.449  -4.012  -2.507  0.00  0.00    -0.229 NA
ATOM     17  C   LIG    1        1.467  -3.181  -0.184  0.00  0.00    +0.129 C 
BRANCH  11  19
ATOM     18  C   LIG    1        2.702  -2.172   3.246  0.00  0.00    +0.276 C 
ATOM     19  O   LIG    1        1.808  -2.397   2.153  0.00  0.00    -0.499 OA
ENDBRANCH  11  19
BRANCH  13  20
ATOM     20  O   LIG    1        5.561  -3.997  -0.209  0.00  0.00    -0.495 OA
ATOM     21  C   LIG    1        6.118  -4.541  -1.407  0.00  0.00    +0.277 C 
ENDBRANCH  13  20
ENDBRANCH   1  16
BRANCH   2  22
ATOM     22  N   LIG    1        1.647  -6.793  -3.072  0.00  0.00    -0.196 N 
ATOM     23  H   LIG    1        1.184  -6.498  -2.255  0.00  0.00    +0.175 HD
BRANCH  22  24
ATOM     24  S   LIG    1        1.771  -8.408  -3.417  0.00  0.00    +0.074 S 
ATOM     25  O   LIG    1        3.151  -8.736  -3.335  0.00  0.00    -0.150 OA
ATOM     26  O   LIG    1        1.002  -8.633  -4.591  0.00  0.00    -0.150 OA
BRANCH  24  27
ATOM     27  C   LIG    1        0.968  -9.282  -2.114  0.00  0.00    +0.109 A 
ATOM     28  C   LIG    1        1.684  -9.669  -0.997  0.00  0.00    +0.031 A 
ATOM     29  C   LIG    1        1.055 -10.354   0.025  0.00  0.00    +0.040 A 
ATOM     30  C   LIG    1       -0.293 -10.652  -0.070  0.00  0.00    +0.124 A 
ATOM     31  F   LIG    1       -0.909 -11.322   0.929  0.00  0.00    -0.205 F 
ATOM     32  C   LIG    1       -1.010 -10.264  -1.189  0.00  0.00    +0.040 A 
ATOM     33  C   LIG    1       -0.380  -9.574  -2.207  0.00  0.00    +0.031 A 
ENDBRANCH  24  27
ENDBRANCH  22  24
ENDBRANCH   2  22
TORSDOF 6
