REMARK  Name = ZINC02006270
REMARK                            x       y       z     vdW  Elec       q    Type
REMARK                         _______ _______ _______ _____ _____    ______ ____
ROOT
ATOM      1  C   LIG    1        0.384  -3.944  -0.604  0.00  0.00    +0.267 C 
ATOM      2  N   LIG    1       -0.017  -5.223  -0.463  0.00  0.00    -0.280 N 
ATOM      3  H   LIG    1       -0.535  -5.486   0.313  0.00  0.00    +0.155 HD
ATOM      4  O   LIG    1        1.030  -3.613  -1.581  0.00  0.00    -0.268 OA
ENDROOT
BRANCH   1   8
ATOM      5  C   LIG    1       -1.338  -1.784   3.651  0.00  0.00    +0.067 C 
ATOM      6  C   LIG    1       -0.714  -1.978   2.294  0.00  0.00    +0.061 A 
ATOM      7  C   LIG    1       -0.580  -3.196   1.631  0.00  0.00    +0.057 A 
ATOM      8  C   LIG    1        0.041  -2.949   0.422  0.00  0.00    +0.130 A 
ATOM      9  N   LIG    1        0.276  -1.601   0.360  0.00  0.00    -0.227 N 
ATOM     10  N   LIG    1       -0.213  -1.030   1.542  0.00  0.00    -0.171 NA
BRANCH   9  11
ATOM     11  C   LIG    1        0.889  -0.916  -0.696  0.00  0.00    +0.067 A 
ATOM     12  C   LIG    1        0.462  -1.127  -2.002  0.00  0.00    +0.028 A 
ATOM     13  C   LIG    1        1.064  -0.454  -3.048  0.00  0.00    +0.003 A 
ATOM     14  C   LIG    1        2.094   0.432  -2.803  0.00  0.00    +0.016 A 
ATOM     15  C   LIG    1        2.530   0.650  -1.495  0.00  0.00    +0.063 A 
ATOM     16  C   LIG    1        1.919  -0.025  -0.440  0.00  0.00    +0.043 A 
BRANCH  15  17
ATOM     17  C   LIG    1        3.635   1.599  -1.230  0.00  0.00    +0.266 C 
ATOM     18  N   LIG    1        4.584   1.788  -2.144  0.00  0.00    -0.288 N 
ATOM     19  H   LIG    1        5.308   2.409  -1.970  0.00  0.00    +0.301 HD
ATOM     20  H   LIG    1        4.552   1.303  -2.984  0.00  0.00    +0.301 HD
BRANCH  17  21
ATOM     21  N   LIG    1        3.679   2.263  -0.077  0.00  0.00    -0.250 N 
ATOM     22  H   LIG    1        4.403   2.885   0.097  0.00  0.00    +0.288 HD
ATOM     23  H   LIG    1        2.987   2.126   0.589  0.00  0.00    +0.288 HD
ENDBRANCH  17  21
ENDBRANCH  15  17
ENDBRANCH   9  11
ENDBRANCH   1   8
BRANCH   2  24
ATOM     24  C   LIG    1        0.315  -6.171  -1.435  0.00  0.00    +0.034 A 
ATOM     25  C   LIG    1        0.511  -5.774  -2.753  0.00  0.00    +0.024 A 
ATOM     26  C   LIG    1        0.840  -6.707  -3.713  0.00  0.00    +0.010 A 
ATOM     27  C   LIG    1        0.975  -8.049  -3.362  0.00  0.00    -0.016 A 
ATOM     28  C   LIG    1        0.778  -8.445  -2.040  0.00  0.00    +0.010 A 
ATOM     29  C   LIG    1        0.455  -7.508  -1.081  0.00  0.00    +0.024 A 
BRANCH  27  30
ATOM     30  C   LIG    1        1.327  -9.055  -4.394  0.00  0.00    +0.008 A 
ATOM     31  C   LIG    1        0.447  -9.321  -5.441  0.00  0.00    +0.010 A 
ATOM     32  C   LIG    1        0.780 -10.257  -6.398  0.00  0.00    +0.001 A 
ATOM     33  C   LIG    1        1.985 -10.932  -6.319  0.00  0.00    +0.002 A 
ATOM     34  C   LIG    1        2.862 -10.673  -5.282  0.00  0.00    +0.029 A 
ATOM     35  C   LIG    1        2.542  -9.734  -4.322  0.00  0.00    +0.113 A 
BRANCH  35  36
ATOM     36  S   LIG    1        3.664  -9.399  -3.005  0.00  0.00    +0.057 S 
ATOM     37  O   LIG    1        4.749 -10.305  -3.157  0.00  0.00    -0.153 OA
ATOM     38  O   LIG    1        2.887  -9.333  -1.817  0.00  0.00    -0.153 OA
BRANCH  36  39
ATOM     39  N   LIG    1        4.275  -7.881  -3.257  0.00  0.00    -0.203 NA
ATOM     40  H   LIG    1        4.918  -7.508  -2.634  0.00  0.00    +0.144 HD
ATOM     41  H   LIG    1        3.990  -7.365  -4.027  0.00  0.00    +0.144 HD
ENDBRANCH  36  39
ENDBRANCH  35  36
ENDBRANCH  27  30
ENDBRANCH   2  24
TORSDOF 8
