REMARK  Name = ZINC01694592
REMARK                            x       y       z     vdW  Elec       q    Type
REMARK                         _______ _______ _______ _____ _____    ______ ____
ROOT
ATOM      1  N   LIG    1       -0.016   1.344   0.009  0.00  0.00    -0.281 N 
ATOM      2  H   LIG    1       -0.908   1.702   0.140  0.00  0.00    +0.155 HD
ATOM      3  C   LIG    1        0.158   0.020  -0.176  0.00  0.00    +0.249 C 
ATOM      4  O   LIG    1        1.262  -0.416  -0.440  0.00  0.00    -0.270 OA
ENDROOT
BRANCH   1  13
ATOM      5  C   LIG    1        6.306   6.281  -0.006  0.00  0.00    +0.001 A 
ATOM      6  C   LIG    1        7.215   5.404   0.555  0.00  0.00    +0.001 A 
ATOM      7  C   LIG    1        6.824   4.122   0.902  0.00  0.00    +0.012 A 
ATOM      8  C   LIG    1        5.512   3.715   0.685  0.00  0.00    +0.030 A 
ATOM      9  C   LIG    1        4.588   4.606   0.116  0.00  0.00    -0.006 A 
ATOM     10  C   LIG    1        3.276   3.920  -0.002  0.00  0.00    -0.006 A 
ATOM     11  C   LIG    1        2.048   4.348  -0.490  0.00  0.00    +0.011 A 
ATOM     12  C   LIG    1        0.961   3.492  -0.484  0.00  0.00    +0.024 A 
ATOM     13  C   LIG    1        1.087   2.201   0.008  0.00  0.00    +0.034 A 
ATOM     14  C   LIG    1        2.311   1.760   0.505  0.00  0.00    +0.035 A 
ATOM     15  C   LIG    1        3.407   2.613   0.497  0.00  0.00    +0.032 A 
ATOM     16  C   LIG    1        4.809   2.437   0.945  0.00  0.00    +0.194 C 
ATOM     17  O   LIG    1        5.291   1.434   1.432  0.00  0.00    -0.287 OA
ATOM     18  C   LIG    1        4.996   5.888  -0.227  0.00  0.00    +0.009 A 
ENDBRANCH   1  13
BRANCH   3  19
ATOM     19  C   LIG    1       -0.990  -0.900  -0.058  0.00  0.00    +0.045 A 
ATOM     20  C   LIG    1       -2.258  -0.404   0.244  0.00  0.00    +0.013 A 
ATOM     21  C   LIG    1       -3.329  -1.268   0.353  0.00  0.00    +0.001 A 
ATOM     22  C   LIG    1       -3.154  -2.629   0.163  0.00  0.00    +0.001 A 
ATOM     23  C   LIG    1       -1.906  -3.138  -0.138  0.00  0.00    +0.009 A 
ATOM     24  C   LIG    1       -0.814  -2.281  -0.256  0.00  0.00    -0.005 A 
BRANCH  24  25
ATOM     25  C   LIG    1        0.524  -2.822  -0.584  0.00  0.00    -0.003 A 
ATOM     26  C   LIG    1        0.754  -3.422  -1.820  0.00  0.00    +0.009 A 
ATOM     27  C   LIG    1        2.004  -3.925  -2.121  0.00  0.00    +0.001 A 
ATOM     28  C   LIG    1        3.036  -3.837  -1.202  0.00  0.00    +0.001 A 
ATOM     29  C   LIG    1        2.828  -3.247   0.028  0.00  0.00    +0.015 A 
ATOM     30  C   LIG    1        1.574  -2.728   0.349  0.00  0.00    +0.067 A 
BRANCH  30  31
ATOM     31  C   LIG    1        1.347  -2.090   1.659  0.00  0.00    +0.337 C 
ATOM     32  O   LIG    1        0.252  -1.643   1.937  0.00  0.00    -0.245 OA
BRANCH  31  33
ATOM     33  O   LIG    1        2.355  -2.002   2.549  0.00  0.00    -0.477 OA
ATOM     34  H   LIG    1        3.200  -2.347   2.336  0.00  0.00    +0.295 HD
ENDBRANCH  31  33
ENDBRANCH  30  31
ENDBRANCH  24  25
ENDBRANCH   3  19
TORSDOF 5
