REMARK  Name = ZINC01999850
REMARK                            x       y       z     vdW  Elec       q    Type
REMARK                         _______ _______ _______ _____ _____    ______ ____
ROOT
ATOM      1  C   LIG    1        3.078   2.286   1.736  0.00  0.00    +0.279 C 
ATOM      2  C   LIG    1        3.328   3.803   1.676  0.00  0.00    +0.131 C 
ATOM      3  S   LIG    1        2.609   4.411   0.114  0.00  0.00    -0.111 S 
ATOM      4  C   LIG    1        1.086   3.529  -0.000  0.00  0.00    +0.031 A 
ATOM      5  C   LIG    1       -0.122   4.176   0.205  0.00  0.00    +0.036 A 
ATOM      6  C   LIG    1       -1.305   3.464   0.107  0.00  0.00    +0.042 A 
ATOM      7 CL   LIG    1       -2.822   4.268   0.363  0.00  0.00    -0.084 Cl
ATOM      8  C   LIG    1       -1.282   2.114  -0.198  0.00  0.00    +0.022 A 
ATOM      9  C   LIG    1       -0.078   1.463  -0.397  0.00  0.00    +0.026 A 
ATOM     10  C   LIG    1        1.109   2.169  -0.301  0.00  0.00    +0.050 A 
ATOM     11  N   LIG    1        2.342   1.528  -0.501  0.00  0.00    -0.269 N 
ATOM     12  C   LIG    1        3.326   1.659   0.396  0.00  0.00    +0.262 C 
ATOM     13  O   LIG    1        4.439   1.265   0.121  0.00  0.00    -0.271 OA
ENDROOT
BRANCH   2  14
ATOM     14  C   LIG    1        4.809   4.081   1.701  0.00  0.00    -0.030 A 
ATOM     15  C   LIG    1        5.384   4.655   2.820  0.00  0.00    +0.008 A 
ATOM     16  C   LIG    1        6.742   4.905   2.848  0.00  0.00    +0.046 A 
ATOM     17  C   LIG    1        7.527   4.592   1.748  0.00  0.00    +0.120 A 
ATOM     18  C   LIG    1        6.946   4.022   0.624  0.00  0.00    +0.046 A 
ATOM     19  C   LIG    1        5.589   3.767   0.604  0.00  0.00    +0.008 A 
BRANCH  17  20
ATOM     20  O   LIG    1        8.862   4.844   1.770  0.00  0.00    -0.495 OA
ATOM     21  C   LIG    1        9.392   5.432   2.960  0.00  0.00    +0.277 C 
ENDBRANCH  17  20
ENDBRANCH   2  14
BRANCH   1  22
ATOM     22  O   LIG    1        3.972   1.691   2.713  0.00  0.00    -0.451 OA
BRANCH  22  24
ATOM     23  C   LIG    1        4.410  -0.081   4.376  0.00  0.00    +0.136 C 
ATOM     24  C   LIG    1        3.536   0.592   3.349  0.00  0.00    +0.305 C 
ATOM     25  O   LIG    1        2.443   0.143   3.098  0.00  0.00    -0.251 OA
ENDBRANCH  22  24
ENDBRANCH   1  22
BRANCH  11  26
ATOM     26  C   LIG    1        2.552   0.710  -1.699  0.00  0.00    +0.095 C 
BRANCH  26  27
ATOM     27  C   LIG    1        3.114   1.584  -2.821  0.00  0.00    -0.060 C 
BRANCH  27  28
ATOM     28  N   LIG    1        3.340   0.741  -4.014  0.00  0.00    +0.377 N 
ATOM     29  H   LIG    1        3.897  -0.077  -3.743  0.00  0.00    -0.083 HD
ATOM     30  C   LIG    1        4.079   1.506  -5.040  0.00  0.00    -0.097 C 
ATOM     31  C   LIG    1        2.046   0.282  -4.561  0.00  0.00    -0.097 C 
ENDBRANCH  27  28
ENDBRANCH  26  27
ENDBRANCH  11  26
TORSDOF 7
