REMARK  Name = ZINC01681689
REMARK                            x       y       z     vdW  Elec       q    Type
REMARK                         _______ _______ _______ _____ _____    ______ ____
ROOT
ATOM      1  C   LIG    1        1.107   2.011   0.002  0.00  0.00    +0.225 A 
ATOM      2  N   LIG    1        2.293   1.430  -0.011  0.00  0.00    -0.219 NA
ATOM      3  C   LIG    1        2.411   0.106  -0.020  0.00  0.00    +0.147 A 
ATOM      4  C   LIG    1        1.239  -0.670  -0.013  0.00  0.00    +0.147 A 
ATOM      5  C   LIG    1        0.002  -0.004   0.002  0.00  0.00    +0.168 A 
ATOM      6  N   LIG    1       -0.956  -0.986   0.006  0.00  0.00    -0.282 N 
ATOM      7  C   LIG    1       -0.311  -2.187  -0.007  0.00  0.00    +0.204 A 
ATOM      8  N   LIG    1        0.977  -1.999  -0.018  0.00  0.00    -0.231 NA
ATOM      9  N   LIG    1       -0.016   1.325   0.009  0.00  0.00    -0.216 NA
ENDROOT
BRANCH   3  10
ATOM     10  N   LIG    1        3.658  -0.494  -0.035  0.00  0.00    -0.341 N 
ATOM     11  H   LIG    1        4.459   0.053  -0.039  0.00  0.00    +0.144 HD
ATOM     12  H   LIG    1        3.761  -1.067   0.778  0.00  0.00    +0.144 HD
ENDBRANCH   3  10
BRANCH   6  13
ATOM     13  C   LIG    1       -2.407  -0.781   0.020  0.00  0.00    +0.286 C 
BRANCH  13  14
ATOM     14  C   LIG    1       -2.874  -0.596   1.441  0.00  0.00    +0.277 C 
ATOM     15  O   LIG    1       -3.678  -1.360   1.917  0.00  0.00    -0.296 OA
ENDBRANCH  13  14
BRANCH  13  16
ATOM     16  O   LIG    1       -3.054  -1.921  -0.549  0.00  0.00    -0.337 OA
BRANCH  16  17
ATOM     17  C   LIG    1       -4.290  -1.623  -1.200  0.00  0.00    +0.209 C 
BRANCH  17  18
ATOM     18  C   LIG    1       -4.030  -1.303  -2.650  0.00  0.00    +0.257 C 
ATOM     19  O   LIG    1       -2.902  -1.328  -3.081  0.00  0.00    -0.298 OA
ENDBRANCH  17  18
BRANCH  17  20
ATOM     20  C   LIG    1       -5.223  -2.832  -1.104  0.00  0.00    +0.195 C 
BRANCH  20  21
ATOM     21  O   LIG    1       -4.663  -3.924  -1.837  0.00  0.00    -0.392 OA
ATOM     22  H   LIG    1       -5.203  -4.726  -1.820  0.00  0.00    +0.210 HD
ENDBRANCH  20  21
ENDBRANCH  17  20
ENDBRANCH  16  17
ENDBRANCH  13  16
ENDBRANCH   6  13
TORSDOF 8
