REMARK  Name = ZINC02344842
REMARK                            x       y       z     vdW  Elec       q    Type
REMARK                         _______ _______ _______ _____ _____    ______ ____
ROOT
ATOM      1  N   LIG    1        4.238  -1.512   3.598  0.00  0.00    -0.167 N 
ATOM      2  C   LIG    1        3.052  -0.993   3.869  0.00  0.00    +0.273 C 
ATOM      3  C   LIG    1        2.037  -1.914   4.419  0.00  0.00    +0.078 C 
ATOM      4  S   LIG    1        2.963  -3.442   4.470  0.00  0.00    -0.060 S 
ATOM      5  C   LIG    1        0.754  -1.668   4.785  0.00  0.00    +0.028 C 
ATOM      6  O   LIG    1        2.810   0.184   3.673  0.00  0.00    -0.268 OA
ATOM      7  C   LIG    1        4.501  -2.818   3.811  0.00  0.00    +0.137 C 
ATOM      8  S   LIG    1        5.957  -3.670   3.521  0.00  0.00    -0.026 S 
ENDROOT
BRANCH   5   9
ATOM      9  C   LIG    1       -0.019  -2.698   5.494  0.00  0.00    -0.024 A 
ATOM     10  C   LIG    1        0.614  -3.857   5.957  0.00  0.00    +0.011 A 
ATOM     11  C   LIG    1       -0.116  -4.818   6.621  0.00  0.00    +0.039 A 
ATOM     12  C   LIG    1       -1.475  -4.640   6.830  0.00  0.00    +0.123 A 
ATOM     13  F   LIG    1       -2.185  -5.587   7.481  0.00  0.00    -0.205 F 
ATOM     14  C   LIG    1       -2.109  -3.494   6.373  0.00  0.00    +0.039 A 
ATOM     15  C   LIG    1       -1.390  -2.521   5.713  0.00  0.00    +0.011 A 
ENDBRANCH   5   9
BRANCH   1  16
ATOM     16  N   LIG    1        5.243  -0.689   3.074  0.00  0.00    -0.100 NA
ATOM     17  H   LIG    1        5.850  -0.224   3.671  0.00  0.00    +0.172 HD
BRANCH  16  18
ATOM     18  S   LIG    1        5.393  -0.508   1.434  0.00  0.00    +0.074 S 
ATOM     19  O   LIG    1        6.389   0.484   1.225  0.00  0.00    -0.152 OA
ATOM     20  O   LIG    1        5.495  -1.816   0.889  0.00  0.00    -0.152 OA
BRANCH  18  24
ATOM     21  C   LIG    1        1.499   1.229  -0.086  0.00  0.00    +0.000 A 
ATOM     22  C   LIG    1        2.523   2.069   0.308  0.00  0.00    +0.002 A 
ATOM     23  C   LIG    1        3.712   1.539   0.773  0.00  0.00    +0.028 A 
ATOM     24  C   LIG    1        3.877   0.168   0.843  0.00  0.00    +0.107 A 
ATOM     25  C   LIG    1        2.853  -0.672   0.450  0.00  0.00    +0.028 A 
ATOM     26  C   LIG    1        1.664  -0.142  -0.016  0.00  0.00    +0.002 A 
ENDBRANCH  18  24
ENDBRANCH  16  18
ENDBRANCH   1  16
TORSDOF 4
