REMARK  Name = ZINC01700217
REMARK                            x       y       z     vdW  Elec       q    Type
REMARK                         _______ _______ _______ _____ _____    ______ ____
ROOT
ATOM      1  C   LIG    1       -0.016   1.357   0.009  0.00  0.00    +0.001 A 
ATOM      2  C   LIG    1        1.169   2.090   0.002  0.00  0.00    +0.001 A 
ATOM      3  C   LIG    1        2.378   1.466  -0.013  0.00  0.00    +0.010 A 
ATOM      4  C   LIG    1        2.437   0.064  -0.021  0.00  0.00    +0.003 A 
ATOM      5  C   LIG    1        1.233  -0.683  -0.013  0.00  0.00    -0.016 A 
ATOM      6  C   LIG    1        1.290  -2.087  -0.020  0.00  0.00    +0.008 A 
ATOM      7  C   LIG    1        2.496  -2.719  -0.034  0.00  0.00    +0.002 A 
ATOM      8  C   LIG    1        3.685  -1.997  -0.041  0.00  0.00    +0.023 A 
ATOM      9  C   LIG    1        3.673  -0.618  -0.036  0.00  0.00    +0.035 A 
ATOM     10  C   LIG    1        0.002  -0.004   0.002  0.00  0.00    +0.008 A 
ENDROOT
BRANCH   9  11
ATOM     11  N   LIG    1        4.869   0.096  -0.044  0.00  0.00    -0.345 N 
ATOM     12  H   LIG    1        4.855   1.066  -0.039  0.00  0.00    +0.146 HD
BRANCH  11  13
ATOM     13  C   LIG    1        6.148  -0.618  -0.059  0.00  0.00    +0.082 C 
BRANCH  13  14
ATOM     14  C   LIG    1        7.297   0.393  -0.065  0.00  0.00    -0.068 C 
BRANCH  14  15
ATOM     15  N   LIG    1        8.579  -0.323  -0.081  0.00  0.00    +0.379 N 
ATOM     16  H   LIG    1        9.337   0.343  -0.085  0.00  0.00    -0.090 HD
ATOM     17  H   LIG    1        8.633  -0.899  -0.908  0.00  0.00    -0.090 HD
ATOM     18  H   LIG    1        8.649  -0.906   0.740  0.00  0.00    -0.090 HD
ENDBRANCH  14  15
ENDBRANCH  13  14
ENDBRANCH  11  13
ENDBRANCH   9  11
TORSDOF 4
