REMARK  Name = ZINC02005821
REMARK                            x       y       z     vdW  Elec       q    Type
REMARK                         _______ _______ _______ _____ _____    ______ ____
ROOT
ATOM      1  C   LIG    1        1.206  -0.696  -0.013  0.00  0.00    -0.041 A 
ATOM      2  C   LIG    1        0.002  -0.004   0.002  0.00  0.00    +0.006 A 
ATOM      3  C   LIG    1       -0.017   1.373   0.010  0.00  0.00    +0.026 A 
ATOM      4  C   LIG    1        1.181   2.081   0.002  0.00  0.00    +0.047 A 
ATOM      5  C   LIG    1        2.398   1.375  -0.013  0.00  0.00    +0.003 A 
ATOM      6  C   LIG    1        3.455   2.390  -0.017  0.00  0.00    -0.024 A 
ATOM      7  C   LIG    1        2.848   3.587  -0.005  0.00  0.00    +0.087 A 
ATOM      8  N   LIG    1        1.490   3.422   0.007  0.00  0.00    -0.360 N 
ATOM      9  H   LIG    1        0.841   4.143   0.017  0.00  0.00    +0.165 HD
ATOM     10  C   LIG    1        2.394  -0.021  -0.021  0.00  0.00    +0.014 A 
ENDROOT
BRANCH   1  12
ATOM     11  C   LIG    1       -0.242  -2.709  -0.011  0.00  0.00    +0.015 C 
ATOM     12  C   LIG    1        1.202  -2.203  -0.022  0.00  0.00    -0.013 C 
ATOM     13  C   LIG    1        1.933  -2.722   1.218  0.00  0.00    +0.015 C 
ATOM     14  C   LIG    1        1.910  -2.708  -1.281  0.00  0.00    +0.015 C 
ENDBRANCH   1  12
BRANCH   6  15
ATOM     15  C   LIG    1        4.940   2.137  -0.033  0.00  0.00    +0.018 C 
BRANCH  15  16
ATOM     16  C   LIG    1        5.409   1.936  -1.475  0.00  0.00    -0.078 C 
BRANCH  16  17
ATOM     17  N   LIG    1        6.863   1.690  -1.481  0.00  0.00    +0.377 N 
ATOM     18  H   LIG    1        7.345   2.496  -1.067  0.00  0.00    -0.086 HD
ATOM     19  H   LIG    1        7.066   0.849  -0.928  0.00  0.00    -0.086 HD
ATOM     20  C   LIG    1        7.343   1.492  -2.862  0.00  0.00    -0.100 C 
ENDBRANCH  16  17
ENDBRANCH  15  16
ENDBRANCH   6  15
TORSDOF 4
