REMARK  Name = ZINC01909686
REMARK                            x       y       z     vdW  Elec       q    Type
REMARK                         _______ _______ _______ _____ _____    ______ ____
ROOT
ATOM      1  N   LIG    1       -5.900   7.565   0.379  0.00  0.00    -0.224 N 
ATOM      2  C   LIG    1       -6.035   6.357   0.898  0.00  0.00    +0.263 C 
ATOM      3  C   LIG    1       -4.892   5.434   0.731  0.00  0.00    +0.077 C 
ATOM      4  S   LIG    1       -3.751   6.474  -0.170  0.00  0.00    -0.061 S 
ATOM      5  C   LIG    1       -4.747   4.153   1.151  0.00  0.00    +0.028 C 
ATOM      6  O   LIG    1       -7.047   6.021   1.484  0.00  0.00    -0.269 OA
ATOM      7  C   LIG    1       -4.776   7.933  -0.269  0.00  0.00    +0.125 C 
ATOM      8  S   LIG    1       -4.416   9.437  -1.003  0.00  0.00    -0.027 S 
ENDROOT
BRANCH   1  13
ATOM      9  C   LIG    1       -9.012   9.409  -0.314  0.00  0.00    +0.003 A 
ATOM     10  C   LIG    1       -9.038  10.301   0.738  0.00  0.00    +0.015 A 
ATOM     11  C   LIG    1       -8.013  10.292   1.686  0.00  0.00    +0.061 A 
ATOM     12  C   LIG    1       -6.965   9.377   1.565  0.00  0.00    +0.039 A 
ATOM     13  C   LIG    1       -6.950   8.486   0.505  0.00  0.00    +0.043 A 
ATOM     14  C   LIG    1       -7.971   8.507  -0.437  0.00  0.00    +0.024 A 
BRANCH  11  15
ATOM     15  C   LIG    1       -8.037  11.246   2.813  0.00  0.00    +0.337 C 
ATOM     16  O   LIG    1       -7.144  11.236   3.637  0.00  0.00    -0.245 OA
BRANCH  15  17
ATOM     17  O   LIG    1       -9.049  12.128   2.928  0.00  0.00    -0.477 OA
ATOM     18  H   LIG    1       -9.738  12.136   2.293  0.00  0.00    +0.295 HD
ENDBRANCH  15  17
ENDBRANCH  11  15
ENDBRANCH   1  13
BRANCH   5  19
ATOM     19  C   LIG    1       -3.595   3.358   0.701  0.00  0.00    -0.024 A 
ATOM     20  C   LIG    1       -3.337   2.107   1.273  0.00  0.00    +0.010 A 
ATOM     21  C   LIG    1       -2.255   1.367   0.845  0.00  0.00    +0.033 A 
ATOM     22  C   LIG    1       -1.424   1.860  -0.147  0.00  0.00    +0.122 A 
ATOM     23  C   LIG    1       -1.669   3.099  -0.714  0.00  0.00    +0.033 A 
ATOM     24  C   LIG    1       -2.750   3.848  -0.301  0.00  0.00    +0.010 A 
BRANCH  22  25
ATOM     25  N   LIG    1       -0.265   1.059  -0.600  0.00  0.00    +0.006 N 
ATOM     26  O   LIG    1       -0.043  -0.029  -0.101  0.00  0.00    -0.130 OA
BRANCH  25  27
ATOM     27  O   LIG    1        0.466   1.487  -1.476  0.00  0.00    -0.396 OA
ATOM     28  H   LIG    1        0.295   2.324  -1.861  0.00  0.00    +0.329 HD
ENDBRANCH  25  27
ENDBRANCH  22  25
ENDBRANCH   5  19
TORSDOF 6
