REMARK  Name = ZINC02047807
REMARK                            x       y       z     vdW  Elec       q    Type
REMARK                         _______ _______ _______ _____ _____    ______ ____
ROOT
ATOM      1  C   LIG    1        2.341   1.239   1.563  0.00  0.00    +0.042 C 
ENDROOT
BRANCH   1   2
ATOM      2  N   LIG    1        2.615  -0.203   1.694  0.00  0.00    +0.388 N 
ATOM      3  H   LIG    1        3.035  -0.547   0.822  0.00  0.00    -0.089 HD
ATOM      4  H   LIG    1        1.748  -0.709   1.868  0.00  0.00    -0.089 HD
ATOM      5  H   LIG    1        3.263  -0.368   2.462  0.00  0.00    -0.089 HD
ENDBRANCH   1   2
BRANCH   1   6
ATOM      6  P   LIG    1        3.898   2.104   1.176  0.00  0.00    +0.314 P 
ATOM      7  O   LIG    1        4.815   2.012   2.335  0.00  0.00    -0.261 OA
BRANCH   6   8
ATOM      8  O   LIG    1        4.587   1.421  -0.109  0.00  0.00    -0.325 OA
ATOM      9  H   LIG    1        4.774   0.489   0.082  0.00  0.00    +0.220 HD
ENDBRANCH   6   8
BRANCH   6  10
ATOM     10  O   LIG    1        3.587   3.652   0.860  0.00  0.00    -0.325 OA
ATOM     11  H   LIG    1        3.172   4.063   1.634  0.00  0.00    +0.220 HD
ENDBRANCH   6  10
ENDBRANCH   1   6
BRANCH   1  12
ATOM     12  C   LIG    1        1.760   1.792   2.866  0.00  0.00    -0.001 C 
BRANCH  12  14
ATOM     13  C   LIG    1       -0.134   1.615   4.486  0.00  0.00    +0.007 C 
ATOM     14  C   LIG    1        0.388   1.164   3.120  0.00  0.00    -0.018 C 
ATOM     15  C   LIG    1       -0.587   1.610   2.028  0.00  0.00    +0.007 C 
ENDBRANCH  12  14
ENDBRANCH   1  12
TORSDOF 6
