REMARK  Name = ZINC02072446
REMARK                            x       y       z     vdW  Elec       q    Type
REMARK                         _______ _______ _______ _____ _____    ______ ____
ROOT
ATOM      1  C   LIG    1        5.194  -0.184  -2.007  0.00  0.00    +0.030 A 
ATOM      2  C   LIG    1        5.702   1.002  -1.492  0.00  0.00    +0.023 A 
ATOM      3  C   LIG    1        6.729   1.653  -2.147  0.00  0.00    +0.009 A 
ATOM      4  C   LIG    1        7.244   1.131  -3.320  0.00  0.00    +0.002 A 
ATOM      5  C   LIG    1        6.736  -0.046  -3.838  0.00  0.00    +0.009 A 
ATOM      6  C   LIG    1        5.713  -0.705  -3.185  0.00  0.00    +0.023 A 
ENDROOT
BRANCH   1   7
ATOM      7  N   LIG    1        4.159  -0.848  -1.344  0.00  0.00    -0.321 N 
BRANCH   7   8
ATOM      8  C   LIG    1        3.612  -0.296  -0.101  0.00  0.00    +0.140 C 
BRANCH   8  12
ATOM      9  C   LIG    1        5.602  -2.070   3.237  0.00  0.00    +0.000 A 
ATOM     10  C   LIG    1        4.442  -2.637   2.743  0.00  0.00    +0.000 A 
ATOM     11  C   LIG    1        3.798  -2.063   1.662  0.00  0.00    +0.005 A 
ATOM     12  C   LIG    1        4.314  -0.922   1.077  0.00  0.00    -0.030 A 
ATOM     13  C   LIG    1        5.474  -0.355   1.571  0.00  0.00    +0.005 A 
ATOM     14  C   LIG    1        6.118  -0.929   2.651  0.00  0.00    +0.000 A 
ENDBRANCH   8  12
ENDBRANCH   7   8
BRANCH   7  15
ATOM     15  C   LIG    1        3.619  -2.095  -1.892  0.00  0.00    +0.140 C 
BRANCH  15  16
ATOM     16  C   LIG    1        2.434  -1.786  -2.770  0.00  0.00    -0.030 A 
ATOM     17  C   LIG    1        1.174  -1.668  -2.213  0.00  0.00    +0.005 A 
ATOM     18  C   LIG    1        0.087  -1.380  -3.018  0.00  0.00    +0.000 A 
ATOM     19  C   LIG    1        0.259  -1.221  -4.381  0.00  0.00    +0.000 A 
ATOM     20  C   LIG    1        1.518  -1.345  -4.938  0.00  0.00    +0.000 A 
ATOM     21  C   LIG    1        2.606  -1.627  -4.132  0.00  0.00    +0.005 A 
ENDBRANCH  15  16
ENDBRANCH   7  15
ENDBRANCH   1   7
BRANCH   4  22
ATOM     22  C   LIG    1        8.360   1.847  -4.035  0.00  0.00    +0.282 C 
BRANCH  22  23
ATOM     23  C   LIG    1        7.894   2.250  -5.435  0.00  0.00    +0.431 C 
ATOM     24  F   LIG    1        7.537   1.105  -6.156  0.00  0.00    -0.167 F 
ATOM     25  F   LIG    1        8.930   2.915  -6.099  0.00  0.00    -0.167 F 
ATOM     26  F   LIG    1        6.787   3.099  -5.332  0.00  0.00    -0.167 F 
ENDBRANCH  22  23
BRANCH  22  27
ATOM     27  C   LIG    1        9.571   0.919  -4.149  0.00  0.00    +0.431 C 
ATOM     28  F   LIG    1        9.920   0.450  -2.877  0.00  0.00    -0.167 F 
ATOM     29  F   LIG    1       10.649   1.623  -4.697  0.00  0.00    -0.167 F 
ATOM     30  F   LIG    1        9.252  -0.164  -4.974  0.00  0.00    -0.167 F 
ENDBRANCH  22  27
BRANCH  22  31
ATOM     31  O   LIG    1        8.724   3.017  -3.299  0.00  0.00    -0.369 OA
ATOM     32  H   LIG    1        8.003   3.652  -3.188  0.00  0.00    +0.211 HD
ENDBRANCH  22  31
ENDBRANCH   4  22
TORSDOF 9
