REMARK  Name = ZINC01670209
REMARK                            x       y       z     vdW  Elec       q    Type
REMARK                         _______ _______ _______ _____ _____    ______ ____
ROOT
ATOM      1  C   LIG    1        5.740  -1.842  -1.483  0.00  0.00    +0.104 A 
ATOM      2  C   LIG    1        6.506  -2.277  -2.561  0.00  0.00    +0.078 A 
ATOM      3  C   LIG    1        7.702  -2.939  -2.300  0.00  0.00    +0.122 A 
ATOM      4  N   LIG    1        8.067  -3.143  -1.036  0.00  0.00    -0.200 NA
ATOM      5  C   LIG    1        7.310  -2.720  -0.035  0.00  0.00    +0.215 A 
ATOM      6  N   LIG    1        6.169  -2.082  -0.245  0.00  0.00    -0.208 NA
ENDROOT
BRANCH   3   7
ATOM      7  N   LIG    1        8.500  -3.385  -3.342  0.00  0.00    -0.343 N 
ATOM      8  H   LIG    1        8.228  -3.233  -4.261  0.00  0.00    +0.144 HD
ATOM      9  H   LIG    1        9.330  -3.849  -3.152  0.00  0.00    +0.144 HD
ENDBRANCH   3   7
BRANCH   5  10
ATOM     10  N   LIG    1        7.723  -2.951   1.266  0.00  0.00    -0.327 N 
ATOM     11  H   LIG    1        8.556  -3.417   1.435  0.00  0.00    +0.145 HD
ATOM     12  H   LIG    1        7.178  -2.647   2.009  0.00  0.00    +0.145 HD
ENDBRANCH   5  10
BRANCH   1  13
ATOM     13  S   LIG    1        4.220  -0.992  -1.753  0.00  0.00    -0.101 S 
BRANCH  13  14
ATOM     14  C   LIG    1        3.711  -0.707  -0.039  0.00  0.00    +0.111 C 
BRANCH  14  18
ATOM     15  C   LIG    1       -0.017   1.378   0.010  0.00  0.00    +0.000 A 
ATOM     16  C   LIG    1        1.171   2.086   0.002  0.00  0.00    +0.000 A 
ATOM     17  C   LIG    1        2.377   1.411  -0.014  0.00  0.00    +0.004 A 
ATOM     18  C   LIG    1        2.396   0.029  -0.022  0.00  0.00    -0.037 A 
ATOM     19  C   LIG    1        1.208  -0.679  -0.014  0.00  0.00    +0.004 A 
ATOM     20  C   LIG    1        0.002  -0.004   0.002  0.00  0.00    +0.000 A 
ENDBRANCH  14  18
ENDBRANCH  13  14
ENDBRANCH   1  13
TORSDOF 5
