REMARK  Name = ZINC02146774
REMARK                            x       y       z     vdW  Elec       q    Type
REMARK                         _______ _______ _______ _____ _____    ______ ____
ROOT
ATOM      1  C   LIG    1        0.011   1.072   2.506  0.00  0.00    +0.042 C 
ENDROOT
BRANCH   1   2
ATOM      2  N   LIG    1       -0.699   1.536   3.711  0.00  0.00    +0.388 N 
ATOM      3  H   LIG    1       -1.669   1.198   3.683  0.00  0.00    -0.089 HD
ATOM      4  H   LIG    1       -0.703   2.554   3.744  0.00  0.00    -0.089 HD
ATOM      5  H   LIG    1       -0.245   1.172   4.547  0.00  0.00    -0.089 HD
ENDBRANCH   1   2
BRANCH   1   7
ATOM      6  C   LIG    1       -0.013   1.086   0.008  0.00  0.00    +0.003 C 
ATOM      7  C   LIG    1       -0.729   1.579   1.267  0.00  0.00    -0.008 C 
ENDBRANCH   1   7
BRANCH   1   8
ATOM      8  P   LIG    1        1.721   1.703   2.493  0.00  0.00    +0.314 P 
ATOM      9  O   LIG    1        1.702   3.179   2.380  0.00  0.00    -0.261 OA
BRANCH   8  10
ATOM     10  O   LIG    1        2.514   1.079   1.239  0.00  0.00    -0.325 OA
ATOM     11  H   LIG    1        2.069   1.334   0.416  0.00  0.00    +0.220 HD
ENDBRANCH   8  10
BRANCH   8  12
ATOM     12  O   LIG    1        2.460   1.280   3.860  0.00  0.00    -0.325 OA
ATOM     13  H   LIG    1        1.982   1.656   4.616  0.00  0.00    +0.220 HD
ENDBRANCH   8  12
ENDBRANCH   1   8
TORSDOF 5
