REMARK  Name = ZINC01737733
REMARK                            x       y       z     vdW  Elec       q    Type
REMARK                         _______ _______ _______ _____ _____    ______ ____
ROOT
ATOM      1  C   LIG    1        2.523   1.590  -0.014  0.00  0.00    +0.028 C 
ATOM      2  C   LIG    1        1.248   1.954   0.269  0.00  0.00    +0.078 C 
ATOM      3  C   LIG    1        0.014   1.139   0.273  0.00  0.00    +0.272 C 
ATOM      4  N   LIG    1       -1.108   1.766   0.586  0.00  0.00    -0.189 N 
ATOM      5  C   LIG    1       -1.119   3.078   0.898  0.00  0.00    +0.135 C 
ATOM      6  S   LIG    1       -2.455   4.056   1.332  0.00  0.00    -0.026 S 
ATOM      7  O   LIG    1        0.029  -0.045  -0.004  0.00  0.00    -0.268 OA
ATOM      8  S   LIG    1        0.596   3.550   0.740  0.00  0.00    -0.060 S 
ENDROOT
BRANCH   1  14
ATOM      9  C   LIG    1        3.237   3.971  -0.103  0.00  0.00    +0.010 A 
ATOM     10  C   LIG    1        4.229   4.925  -0.193  0.00  0.00    +0.033 A 
ATOM     11  C   LIG    1        5.554   4.541  -0.307  0.00  0.00    +0.122 A 
ATOM     12  C   LIG    1        5.895   3.200  -0.327  0.00  0.00    +0.033 A 
ATOM     13  C   LIG    1        4.916   2.234  -0.232  0.00  0.00    +0.010 A 
ATOM     14  C   LIG    1        3.574   2.613  -0.116  0.00  0.00    -0.024 A 
BRANCH  11  15
ATOM     15  N   LIG    1        6.612   5.571  -0.409  0.00  0.00    +0.006 N 
ATOM     16  O   LIG    1        7.779   5.237  -0.510  0.00  0.00    -0.130 OA
BRANCH  15  17
ATOM     17  O   LIG    1        6.316   6.752  -0.392  0.00  0.00    -0.396 OA
ATOM     18  H   LIG    1        5.418   7.009  -0.315  0.00  0.00    +0.329 HD
ENDBRANCH  15  17
ENDBRANCH  11  15
ENDBRANCH   1  14
BRANCH   4  19
ATOM     19  N   LIG    1       -2.281   1.067   0.601  0.00  0.00    -0.246 NA
ATOM     20  H   LIG    1       -2.447   0.620  -0.288  0.00  0.00    +0.141 HD
ATOM     21  H   LIG    1       -3.054   1.663   0.855  0.00  0.00    +0.141 HD
ENDBRANCH   4  19
TORSDOF 4
