REMARK  Name = ZINC02061133
REMARK                            x       y       z     vdW  Elec       q    Type
REMARK                         _______ _______ _______ _____ _____    ______ ____
ROOT
ATOM      1  N   LIG    1       -3.795  -1.460   2.567  0.00  0.00    -0.194 N 
ENDROOT
BRANCH   1   2
ATOM      2  C   LIG    1       -4.418  -0.319   3.078  0.00  0.00    +0.052 A 
ATOM      3  C   LIG    1       -4.684  -0.221   4.438  0.00  0.00    +0.025 A 
ATOM      4  C   LIG    1       -5.300   0.909   4.939  0.00  0.00    +0.005 A 
ATOM      5  C   LIG    1       -5.650   1.942   4.090  0.00  0.00    -0.050 A 
ATOM      6  C   LIG    1       -6.322   3.173   4.641  0.00  0.00    +0.044 C 
ATOM      7  C   LIG    1       -5.386   1.848   2.736  0.00  0.00    +0.005 A 
ATOM      8  C   LIG    1       -4.766   0.724   2.228  0.00  0.00    +0.025 A 
ENDBRANCH   1   2
BRANCH   1   9
ATOM      9  S   LIG    1       -4.593  -2.911   2.572  0.00  0.00    +0.075 S 
ATOM     10  O   LIG    1       -4.107  -3.646   1.457  0.00  0.00    -0.150 OA
ATOM     11  O   LIG    1       -5.972  -2.615   2.747  0.00  0.00    -0.150 OA
BRANCH   9  12
ATOM     12  C   LIG    1       -4.079  -3.784   4.013  0.00  0.00    +0.109 A 
ATOM     13  C   LIG    1       -2.901  -4.508   3.998  0.00  0.00    +0.031 A 
ATOM     14  C   LIG    1       -2.496  -5.192   5.128  0.00  0.00    +0.040 A 
ATOM     15  C   LIG    1       -3.270  -5.153   6.276  0.00  0.00    +0.124 A 
ATOM     16  F   LIG    1       -2.876  -5.823   7.381  0.00  0.00    -0.205 F 
ATOM     17  C   LIG    1       -4.449  -4.428   6.289  0.00  0.00    +0.040 A 
ATOM     18  C   LIG    1       -4.850  -3.740   5.160  0.00  0.00    +0.031 A 
ENDBRANCH   9  12
ENDBRANCH   1   9
BRANCH   1  19
ATOM     19  C   LIG    1       -2.436  -1.373   2.027  0.00  0.00    +0.227 C 
BRANCH  19  21
ATOM     20  N   LIG    1       -0.119  -1.459   2.887  0.00  0.00    -0.301 N 
ATOM     21  C   LIG    1       -1.440  -1.509   3.149  0.00  0.00    +0.235 C 
ATOM     22  O   LIG    1       -1.827  -1.662   4.288  0.00  0.00    -0.274 OA
BRANCH  20  24
ATOM     23  C   LIG    1        1.170  -0.206   4.546  0.00  0.00    +0.024 C 
ATOM     24  C   LIG    1        0.850  -1.590   3.979  0.00  0.00    +0.104 C 
ENDBRANCH  20  24
BRANCH  20  25
ATOM     25  C   LIG    1        0.349  -1.273   1.511  0.00  0.00    +0.104 C 
ATOM     26  C   LIG    1        0.528  -2.639   0.845  0.00  0.00    +0.024 C 
ENDBRANCH  20  25
ENDBRANCH  19  21
ENDBRANCH   1  19
TORSDOF 7
