REMARK  Name = ZINC02156539
REMARK                            x       y       z     vdW  Elec       q    Type
REMARK                         _______ _______ _______ _____ _____    ______ ____
ROOT
ATOM      1  C   LIG    1        0.993   9.399   1.481  0.00  0.00    +0.001 C 
ENDROOT
BRANCH   1   2
ATOM      2  C   LIG    1        1.022   7.870   1.473  0.00  0.00    +0.015 C 
BRANCH   2   3
ATOM      3  C   LIG    1        1.018   7.367   0.029  0.00  0.00    +0.084 C 
BRANCH   3   9
ATOM      4  C   LIG    1       -0.013   1.076   0.008  0.00  0.00    +0.000 C 
ATOM      5  C   LIG    1       -1.235   1.745   0.017  0.00  0.00    +0.000 C 
ATOM      6  C   LIG    1       -1.291   3.106   0.030  0.00  0.00    +0.005 C 
ATOM      7  C   LIG    1       -0.099   3.847   0.023  0.00  0.00    +0.006 C 
ATOM      8  C   LIG    1       -0.095   5.252   0.029  0.00  0.00    +0.088 C 
ATOM      9  N   LIG    1        1.045   5.902   0.021  0.00  0.00    -0.302 NA
ATOM     10  C   LIG    1        2.221   5.289   0.008  0.00  0.00    +0.084 C 
ATOM     11  C   LIG    1        2.324   3.931   0.000  0.00  0.00    +0.019 C 
ATOM     12  C   LIG    1        1.145   3.164   0.008  0.00  0.00    -0.005 C 
ATOM     13  C   LIG    1        1.164   1.762   0.000  0.00  0.00    +0.004 C 
ENDBRANCH   3   9
ENDBRANCH   2   3
ENDBRANCH   1   2
BRANCH   1  14
ATOM     14  C   LIG    1        0.997   9.903   2.926  0.00  0.00    +0.001 C 
BRANCH  14  15
ATOM     15  C   LIG    1        0.968  11.432   2.933  0.00  0.00    +0.015 C 
BRANCH  15  16
ATOM     16  C   LIG    1        0.973  11.935   4.378  0.00  0.00    +0.084 C 
BRANCH  16  17
ATOM     17  N   LIG    1        0.945  13.400   4.385  0.00  0.00    -0.302 NA
ATOM     18  C   LIG    1       -0.231  14.013   4.399  0.00  0.00    +0.084 C 
ATOM     19  C   LIG    1       -0.334  15.371   4.407  0.00  0.00    +0.019 C 
ATOM     20  C   LIG    1        0.846  16.138   4.399  0.00  0.00    -0.005 C 
ATOM     21  C   LIG    1        0.826  17.540   4.407  0.00  0.00    +0.004 C 
ATOM     22  C   LIG    1        2.003  18.226   4.399  0.00  0.00    +0.000 C 
ATOM     23  C   LIG    1        3.225  17.557   4.384  0.00  0.00    +0.000 C 
ATOM     24  C   LIG    1        3.281  16.196   4.377  0.00  0.00    +0.005 C 
ATOM     25  C   LIG    1        2.090  15.455   4.384  0.00  0.00    +0.006 C 
ATOM     26  C   LIG    1        2.085  14.050   4.383  0.00  0.00    +0.088 C 
ENDBRANCH  16  17
ENDBRANCH  15  16
ENDBRANCH  14  15
ENDBRANCH   1  14
TORSDOF 7
