REMARK  Name = ZINC01916018
REMARK                            x       y       z     vdW  Elec       q    Type
REMARK                         _______ _______ _______ _____ _____    ______ ____
ROOT
ATOM      1  C   LIG    1        4.231  -0.768   2.359  0.00  0.00    +0.158 C 
ENDROOT
BRANCH   1  10
ATOM      2  C   LIG    1        1.808  -1.405   2.649  0.00  0.00    +0.111 A 
ATOM      3  N   LIG    1        1.081  -2.483   2.608  0.00  0.00    -0.232 NA
ATOM      4  C   LIG    1        1.871  -3.554   2.332  0.00  0.00    +0.090 A 
ATOM      5  C   LIG    1        1.621  -4.919   2.175  0.00  0.00    +0.030 A 
ATOM      6  C   LIG    1        2.655  -5.784   1.889  0.00  0.00    +0.003 A 
ATOM      7  C   LIG    1        3.950  -5.317   1.753  0.00  0.00    +0.017 A 
ATOM      8  C   LIG    1        4.227  -3.958   1.905  0.00  0.00    +0.084 A 
ATOM      9  C   LIG    1        3.182  -3.069   2.195  0.00  0.00    +0.083 A 
ATOM     10  N   LIG    1        3.111  -1.712   2.401  0.00  0.00    -0.322 N 
BRANCH   8  11
ATOM     11  C   LIG    1        5.607  -3.461   1.760  0.00  0.00    +0.339 C 
ATOM     12  O   LIG    1        5.831  -2.482   1.076  0.00  0.00    -0.245 OA
BRANCH  11  13
ATOM     13  O   LIG    1        6.619  -4.092   2.386  0.00  0.00    -0.477 OA
ATOM     14  H   LIG    1        6.446  -4.846   2.914  0.00  0.00    +0.295 HD
ENDBRANCH  11  13
ENDBRANCH   8  11
BRANCH   2  15
ATOM     15  C   LIG    1        1.284  -0.020   2.929  0.00  0.00    +0.074 C 
BRANCH  15  16
ATOM     16  C   LIG    1        1.409   0.280   4.424  0.00  0.00    +0.007 C 
BRANCH  16  18
ATOM     17  C   LIG    1        1.137   2.034   6.182  0.00  0.00    +0.004 C 
ATOM     18  C   LIG    1        1.012   1.734   4.687  0.00  0.00    -0.003 C 
ENDBRANCH  16  18
ENDBRANCH  15  16
ENDBRANCH   2  15
ENDBRANCH   1  10
BRANCH   1  19
ATOM     19  C   LIG    1        4.093   0.123   1.153  0.00  0.00    -0.028 A 
ATOM     20  C   LIG    1        4.377  -0.373  -0.107  0.00  0.00    +0.006 A 
ATOM     21  C   LIG    1        4.246   0.438  -1.216  0.00  0.00    +0.009 A 
ATOM     22  C   LIG    1        3.839   1.762  -1.065  0.00  0.00    -0.017 A 
ATOM     23  C   LIG    1        3.560   2.259   0.208  0.00  0.00    +0.009 A 
ATOM     24  C   LIG    1        3.688   1.437   1.309  0.00  0.00    +0.006 A 
BRANCH  22  25
ATOM     25  C   LIG    1        3.704   2.640  -2.251  0.00  0.00    -0.007 A 
ATOM     26  C   LIG    1        2.538   3.374  -2.450  0.00  0.00    +0.009 A 
ATOM     27  C   LIG    1        2.418   4.194  -3.554  0.00  0.00    +0.001 A 
ATOM     28  C   LIG    1        3.448   4.284  -4.475  0.00  0.00    +0.001 A 
ATOM     29  C   LIG    1        4.608   3.559  -4.298  0.00  0.00    +0.012 A 
ATOM     30  C   LIG    1        4.749   2.731  -3.186  0.00  0.00    +0.028 A 
BRANCH  30  31
ATOM     31  C   LIG    1        5.990   1.952  -2.991  0.00  0.00    +0.180 A 
ATOM     32  N   LIG    1        7.068   1.924  -3.787  0.00  0.00    -0.239 N 
ATOM     33  H   LIG    1        7.188   2.424  -4.627  0.00  0.00    +0.192 HD
ATOM     34  N   LIG    1        7.984   1.058  -3.203  0.00  0.00    -0.046 NA
ATOM     35  N   LIG    1        7.422   0.620  -2.129  0.00  0.00    -0.023 NA
ATOM     36  N   LIG    1        6.254   1.135  -1.992  0.00  0.00    -0.108 NA
ENDBRANCH  30  31
ENDBRANCH  22  25
ENDBRANCH   1  19
TORSDOF 9
