REMARK  Name = ZINC01996117
REMARK                            x       y       z     vdW  Elec       q    Type
REMARK                         _______ _______ _______ _____ _____    ______ ____
ROOT
ATOM      1  C   LIG    1        3.699  -0.765  -0.071  0.00  0.00    +0.097 C 
ENDROOT
BRANCH   1   5
ATOM      2  C   LIG    1        6.268  -0.975  -3.478  0.00  0.00    +0.000 A 
ATOM      3  C   LIG    1        6.277   0.149  -2.673  0.00  0.00    +0.000 A 
ATOM      4  C   LIG    1        5.446   0.217  -1.571  0.00  0.00    +0.005 A 
ATOM      5  C   LIG    1        4.605  -0.839  -1.273  0.00  0.00    -0.028 A 
ATOM      6  C   LIG    1        4.595  -1.962  -2.078  0.00  0.00    +0.005 A 
ATOM      7  C   LIG    1        5.427  -2.031  -3.180  0.00  0.00    +0.000 A 
ENDBRANCH   1   5
BRANCH   1   8
ATOM      8  C   LIG    1        3.049  -2.130   0.162  0.00  0.00    -0.006 C 
ATOM      9  C   LIG    1        2.195  -2.105   1.451  0.00  0.00    -0.015 C 
ATOM     10  C   LIG    1        2.471  -3.496   2.075  0.00  0.00    -0.079 C 
ATOM     11  N   LIG    1        3.909  -3.723   1.780  0.00  0.00    +0.380 N 
ATOM     12  H   LIG    1        4.483  -3.220   2.441  0.00  0.00    -0.082 HD
ATOM     13  C   LIG    1        4.127  -3.201   0.411  0.00  0.00    -0.074 C 
BRANCH  11  14
ATOM     14  C   LIG    1        4.215  -5.159   1.828  0.00  0.00    -0.074 C 
BRANCH  14  15
ATOM     15  C   LIG    1        4.052  -5.667   3.262  0.00  0.00    +0.016 C 
BRANCH  15  16
ATOM     16  C   LIG    1        4.366  -7.140   3.312  0.00  0.00    -0.049 A 
ATOM     17  C   LIG    1        3.364  -8.071   3.108  0.00  0.00    +0.007 A 
ATOM     18  C   LIG    1        3.647  -9.420   3.148  0.00  0.00    +0.046 A 
ATOM     19  C   LIG    1        4.947  -9.857   3.394  0.00  0.00    +0.124 A 
ATOM     20  C   LIG    1        5.943  -8.913   3.605  0.00  0.00    -0.002 A 
ATOM     21  C   LIG    1        7.228  -9.674   3.868  0.00  0.00    +0.080 C 
ATOM     22  C   LIG    1        6.702 -11.099   4.160  0.00  0.00    +0.234 C 
ATOM     23  O   LIG    1        5.444 -11.122   3.464  0.00  0.00    -0.491 OA
ATOM     24  C   LIG    1        5.660  -7.566   3.555  0.00  0.00    +0.011 A 
ENDBRANCH  15  16
ENDBRANCH  14  15
ENDBRANCH  11  14
ENDBRANCH   1   8
BRANCH   1  25
ATOM     25  C   LIG    1        2.628   0.268  -0.311  0.00  0.00    -0.028 A 
ATOM     26  C   LIG    1        2.513   0.868  -1.551  0.00  0.00    +0.005 A 
ATOM     27  C   LIG    1        1.530   1.815  -1.771  0.00  0.00    +0.000 A 
ATOM     28  C   LIG    1        0.663   2.162  -0.752  0.00  0.00    +0.000 A 
ATOM     29  C   LIG    1        0.778   1.561   0.487  0.00  0.00    +0.000 A 
ATOM     30  C   LIG    1        1.758   0.610   0.707  0.00  0.00    +0.005 A 
ENDBRANCH   1  25
BRANCH   1  31
ATOM     31  C   LIG    1        4.506  -0.380   1.143  0.00  0.00    +0.226 C 
ATOM     32  N   LIG    1        5.671  -1.004   1.403  0.00  0.00    -0.328 N 
ATOM     33  H   LIG    1        6.145  -0.821   2.230  0.00  0.00    +0.145 HD
ATOM     34  H   LIG    1        6.037  -1.635   0.764  0.00  0.00    +0.145 HD
ATOM     35  O   LIG    1        4.105   0.492   1.885  0.00  0.00    -0.275 OA
ENDBRANCH   1  31
TORSDOF 7
