REMARK  Name = ZINC02025944
REMARK                            x       y       z     vdW  Elec       q    Type
REMARK                         _______ _______ _______ _____ _____    ______ ____
ROOT
ATOM      1  C   LIG    1       -7.137  -3.168   0.800  0.00  0.00    +0.136 A 
ATOM      2  C   LIG    1       -7.363  -3.380   2.131  0.00  0.00    +0.050 A 
ATOM      3  C   LIG    1       -6.453  -2.588   2.835  0.00  0.00    +0.050 A 
ATOM      4  C   LIG    1       -5.697  -1.915   1.891  0.00  0.00    +0.130 A 
ATOM      5  O   LIG    1       -6.135  -2.279   0.668  0.00  0.00    -0.455 OA
ENDROOT
BRANCH   1  13
ATOM      6  C   LIG    1       -8.898  -4.715  -0.040  0.00  0.00    +0.013 A 
ATOM      7  C   LIG    1       -9.587  -5.302  -1.081  0.00  0.00    +0.022 A 
ATOM      8  C   LIG    1       -9.257  -4.999  -2.391  0.00  0.00    +0.059 A 
ATOM      9 CL   LIG    1      -10.125  -5.747  -3.696  0.00  0.00    -0.082 Cl
ATOM     10  C   LIG    1       -8.238  -4.100  -2.666  0.00  0.00    +0.060 A 
ATOM     11 CL   LIG    1       -7.833  -3.727  -4.312  0.00  0.00    -0.082 Cl
ATOM     12  C   LIG    1       -7.545  -3.502  -1.634  0.00  0.00    +0.033 A 
ATOM     13  C   LIG    1       -7.873  -3.804  -0.309  0.00  0.00    +0.019 A 
ENDBRANCH   1  13
BRANCH   4  14
ATOM     14  C   LIG    1       -4.654  -1.002   2.161  0.00  0.00    +0.066 C 
ATOM     15  C   LIG    1       -3.987  -0.405   1.131  0.00  0.00    +0.080 C 
ATOM     16  C   LIG    1       -2.914   0.537   1.169  0.00  0.00    +0.259 C 
ATOM     17  N   LIG    1       -2.430   0.973   0.019  0.00  0.00    -0.244 N 
ATOM     18  C   LIG    1       -2.939   0.544  -1.157  0.00  0.00    +0.121 C 
ATOM     19  S   LIG    1       -2.477   0.976  -2.748  0.00  0.00    -0.027 S 
ATOM     20  O   LIG    1       -2.458   0.927   2.229  0.00  0.00    -0.269 OA
ATOM     21  S   LIG    1       -4.216  -0.590  -0.632  0.00  0.00    -0.061 S 
BRANCH  17  22
ATOM     22  C   LIG    1       -1.329   1.940   0.019  0.00  0.00    +0.235 C 
BRANCH  22  23
ATOM     23  C   LIG    1       -0.014   1.204   0.009  0.00  0.00    +0.323 C 
ATOM     24  O   LIG    1        0.002  -0.004   0.002  0.00  0.00    -0.249 OA
BRANCH  23  25
ATOM     25  O   LIG    1        1.139   1.891   0.001  0.00  0.00    -0.480 OA
ATOM     26  H   LIG    1        1.126   2.828   0.006  0.00  0.00    +0.295 HD
ENDBRANCH  23  25
ENDBRANCH  22  23
ENDBRANCH  17  22
ENDBRANCH   4  14
TORSDOF 5
