REMARK  Name = ZINC02047503
REMARK                            x       y       z     vdW  Elec       q    Type
REMARK                         _______ _______ _______ _____ _____    ______ ____
ROOT
ATOM      1  C   LIG    1        0.069   1.090   0.112  0.00  0.00    +0.154 C 
ATOM      2  N   LIG    1       -0.426   1.583   1.399  0.00  0.00    -0.295 N 
ATOM      3  C   LIG    1       -0.539   2.934   1.611  0.00  0.00    +0.148 A 
ATOM      4  C   LIG    1       -1.018   3.426   2.845  0.00  0.00    +0.037 A 
ATOM      5  C   LIG    1       -1.123   4.814   3.019  0.00  0.00    +0.126 A 
ATOM      6  N   LIG    1       -0.774   5.604   2.021  0.00  0.00    -0.222 NA
ATOM      7  C   LIG    1       -0.331   5.106   0.872  0.00  0.00    +0.221 A 
ATOM      8  C   LIG    1       -1.377   2.529   3.877  0.00  0.00    +0.027 A 
ATOM      9  C   LIG    1       -1.257   1.183   3.658  0.00  0.00    +0.050 A 
ATOM     10  N   LIG    1       -0.214   3.804   0.661  0.00  0.00    -0.196 NA
ATOM     11  C   LIG    1       -0.761   0.706   2.365  0.00  0.00    +0.260 A 
ATOM     12  O   LIG    1       -0.651  -0.490   2.162  0.00  0.00    -0.267 OA
ENDROOT
BRANCH   9  13
ATOM     13  C   LIG    1       -1.624   0.217   4.720  0.00  0.00    +0.024 A 
ATOM     14  C   LIG    1       -0.666  -0.211   5.640  0.00  0.00    +0.050 A 
ATOM     15 CL   LIG    1        0.961   0.386   5.543  0.00  0.00    -0.083 Cl
ATOM     16  C   LIG    1       -1.016  -1.107   6.630  0.00  0.00    +0.021 A 
ATOM     17  C   LIG    1       -2.311  -1.589   6.705  0.00  0.00    +0.003 A 
ATOM     18  C   LIG    1       -3.264  -1.173   5.793  0.00  0.00    +0.021 A 
ATOM     19  C   LIG    1       -2.928  -0.273   4.801  0.00  0.00    +0.050 A 
ATOM     20 CL   LIG    1       -4.125   0.248   3.657  0.00  0.00    -0.083 Cl
ENDBRANCH   9  13
BRANCH   7  21
ATOM     21  N   LIG    1        0.021   5.978  -0.140  0.00  0.00    -0.284 N 
ATOM     22  H   LIG    1        0.421   5.638  -0.956  0.00  0.00    +0.155 HD
BRANCH  21  23
ATOM     23  C   LIG    1       -0.200   7.350   0.011  0.00  0.00    +0.034 A 
ATOM     24  C   LIG    1       -1.306   7.803   0.719  0.00  0.00    +0.023 A 
ATOM     25  C   LIG    1       -1.518   9.159   0.871  0.00  0.00    +0.002 A 
ATOM     26  C   LIG    1       -0.636  10.066   0.311  0.00  0.00    +0.006 A 
ATOM     27  C   LIG    1        0.462   9.618  -0.399  0.00  0.00    -0.020 A 
ATOM     28  C   LIG    1        0.683   8.263  -0.550  0.00  0.00    +0.029 A 
BRANCH  27  29
ATOM     29  C   LIG    1        1.420  10.610  -1.008  0.00  0.00    +0.191 C 
BRANCH  29  30
ATOM     30  O   LIG    1        0.993  10.931  -2.334  0.00  0.00    -0.390 OA
ATOM     31  H   LIG    1        1.564  11.566  -2.788  0.00  0.00    +0.210 HD
ENDBRANCH  29  30
ENDBRANCH  27  29
ENDBRANCH  21  23
ENDBRANCH   7  21
TORSDOF 5
