REMARK  Name = ZINC02383103
REMARK                            x       y       z     vdW  Elec       q    Type
REMARK                         _______ _______ _______ _____ _____    ______ ____
ROOT
ATOM      1  C   LIG    1       -0.471   2.846  -1.710  0.00  0.00    +0.010 A 
ATOM      2  C   LIG    1       -1.139   3.310  -2.828  0.00  0.00    +0.049 A 
ATOM      3  C   LIG    1       -2.083   2.510  -3.452  0.00  0.00    +0.158 A 
ATOM      4  C   LIG    1       -2.357   1.241  -2.950  0.00  0.00    +0.159 A 
ATOM      5  C   LIG    1       -1.680   0.781  -1.833  0.00  0.00    +0.055 A 
ATOM      6  C   LIG    1       -0.743   1.586  -1.212  0.00  0.00    -0.017 A 
ENDROOT
BRANCH   6   7
ATOM      7  C   LIG    1       -0.013   1.086   0.008  0.00  0.00    +0.131 C 
ATOM      8  C   LIG    1       -0.724   1.581   1.270  0.00  0.00    -0.046 C 
ATOM      9  N   LIG    1        0.032   1.149   2.461  0.00  0.00    +0.382 N 
ATOM     10  H   LIG    1       -0.436   1.498   3.305  0.00  0.00    -0.086 HD
ATOM     11  H   LIG    1        0.066   0.123   2.488  0.00  0.00    -0.086 HD
ATOM     12  C   LIG    1        1.407   1.681   2.410  0.00  0.00    -0.054 C 
ATOM     13  C   LIG    1        2.098   1.185   1.136  0.00  0.00    +0.141 C 
ATOM     14  O   LIG    1        1.329   1.582  -0.002  0.00  0.00    -0.376 OA
ENDBRANCH   6   7
BRANCH   3  15
ATOM     15  O   LIG    1       -2.741   2.965  -4.553  0.00  0.00    -0.503 OA
ATOM     16  H   LIG    1       -2.301   2.755  -5.388  0.00  0.00    +0.292 HD
ENDBRANCH   3  15
BRANCH   4  17
ATOM     17  O   LIG    1       -3.283   0.453  -3.559  0.00  0.00    -0.503 OA
ATOM     18  H   LIG    1       -2.920  -0.116  -4.253  0.00  0.00    +0.292 HD
ENDBRANCH   4  17
TORSDOF 3
