REMARK  Name = ZINC02011298
REMARK                            x       y       z     vdW  Elec       q    Type
REMARK                         _______ _______ _______ _____ _____    ______ ____
ROOT
ATOM      1  C   LIG    1        1.481  -2.905  -2.558  0.00  0.00    +0.005 A 
ATOM      2  C   LIG    1        0.738  -3.186  -3.688  0.00  0.00    +0.008 A 
ATOM      3  C   LIG    1        1.321  -3.845  -4.754  0.00  0.00    +0.001 A 
ATOM      4  C   LIG    1        2.649  -4.226  -4.691  0.00  0.00    +0.004 A 
ATOM      5  C   LIG    1        3.396  -3.949  -3.563  0.00  0.00    +0.047 A 
ATOM      6  C   LIG    1        2.815  -3.281  -2.495  0.00  0.00    +0.137 A 
ENDROOT
BRANCH   1   7
ATOM      7  C   LIG    1        0.845  -2.187  -1.396  0.00  0.00    +0.107 C 
BRANCH   7   8
ATOM      8  S   LIG    1        1.044  -0.396  -1.610  0.00  0.00    -0.156 S 
BRANCH   8  10
ATOM      9  C   LIG    1        0.332   1.839  -0.203  0.00  0.00    +0.015 C 
ATOM     10  C   LIG    1        0.236   0.313  -0.149  0.00  0.00    +0.066 C 
ENDBRANCH   8  10
ENDBRANCH   7   8
ENDBRANCH   1   7
BRANCH   6  11
ATOM     11  O   LIG    1        3.550  -3.001  -1.386  0.00  0.00    -0.411 OA
BRANCH  11  12
ATOM     12  C   LIG    1        3.481  -3.858  -0.349  0.00  0.00    +0.405 C 
ATOM     13  N   LIG    1        4.096  -3.561   0.813  0.00  0.00    -0.284 N 
ATOM     14  H   LIG    1        4.588  -2.730   0.902  0.00  0.00    +0.152 HD
ATOM     15  C   LIG    1        4.021  -4.493   1.941  0.00  0.00    +0.131 C 
ATOM     16  O   LIG    1        2.863  -4.899  -0.461  0.00  0.00    -0.226 OA
ENDBRANCH  11  12
ENDBRANCH   6  11
TORSDOF 5
