REMARK  Name = ZINC01691218
REMARK                            x       y       z     vdW  Elec       q    Type
REMARK                         _______ _______ _______ _____ _____    ______ ____
ROOT
ATOM      1  C   LIG    1        0.550   5.933   0.029  0.00  0.00    +0.000 A 
ATOM      2  C   LIG    1       -0.834   5.894   0.042  0.00  0.00    +0.001 A 
ATOM      3  C   LIG    1       -1.493   4.684   0.042  0.00  0.00    +0.012 A 
ATOM      4  C   LIG    1       -0.761   3.487   0.028  0.00  0.00    +0.029 A 
ATOM      5  C   LIG    1        0.634   3.537   0.015  0.00  0.00    -0.029 A 
ATOM      6  C   LIG    1        1.179   2.130   0.002  0.00  0.00    +0.119 C 
ATOM      7  C   LIG    1       -0.014   1.204   0.009  0.00  0.00    +0.207 C 
ATOM      8  O   LIG    1        0.002  -0.004   0.002  0.00  0.00    -0.288 OA
ATOM      9  C   LIG    1       -1.217   2.085   0.018  0.00  0.00    +0.229 C 
ATOM     10  O   LIG    1       -2.372   1.712   0.021  0.00  0.00    -0.284 OA
ATOM     11  C   LIG    1        1.280   4.757   0.016  0.00  0.00    +0.005 A 
ENDROOT
TORSDOF 0
