REMARK  Name = ZINC01687017
REMARK                            x       y       z     vdW  Elec       q    Type
REMARK                         _______ _______ _______ _____ _____    ______ ____
ROOT
ATOM      1  N   LIG    1        1.367  -1.676   1.111  0.00  0.00    -0.342 N 
ATOM      2  H   LIG    1        0.617  -1.740   1.722  0.00  0.00    +0.170 HD
ATOM      3  C   LIG    1        2.378  -2.391   1.285  0.00  0.00    +0.012 C 
ATOM      4  S   LIG    1        3.633  -3.280   1.501  0.00  0.00    +0.018 S 
ENDROOT
BRANCH   1   5
ATOM      5  C   LIG    1        1.317  -0.740  -0.015  0.00  0.00    +0.149 C 
BRANCH   5   7
ATOM      6  C   LIG    1       -0.016   1.306   0.009  0.00  0.00    +0.005 C 
ATOM      7  C   LIG    1        0.002  -0.004   0.002  0.00  0.00    -0.013 C 
ENDBRANCH   5   7
ENDBRANCH   1   5
TORSDOF 2
