REMARK  Name = ZINC02007678
REMARK                            x       y       z     vdW  Elec       q    Type
REMARK                         _______ _______ _______ _____ _____    ______ ____
ROOT
ATOM      1  C   LIG    1       -0.260   3.300   1.322  0.00  0.00    +0.056 C 
ENDROOT
BRANCH   1   2
ATOM      2  C   LIG    1       -0.999   3.912   2.485  0.00  0.00    -0.033 A 
ATOM      3  C   LIG    1       -1.804   3.123   3.285  0.00  0.00    +0.004 A 
ATOM      4  C   LIG    1       -2.477   3.684   4.354  0.00  0.00    +0.000 A 
ATOM      5  C   LIG    1       -2.354   5.036   4.617  0.00  0.00    +0.000 A 
ATOM      6  C   LIG    1       -1.553   5.825   3.813  0.00  0.00    +0.000 A 
ATOM      7  C   LIG    1       -0.875   5.264   2.747  0.00  0.00    +0.004 A 
ENDBRANCH   1   2
BRANCH   1   8
ATOM      8  C   LIG    1       -0.405   4.186   0.112  0.00  0.00    -0.033 A 
ATOM      9  C   LIG    1       -1.246   5.283   0.155  0.00  0.00    +0.004 A 
ATOM     10  C   LIG    1       -1.375   6.098  -0.953  0.00  0.00    +0.000 A 
ATOM     11  C   LIG    1       -0.672   5.811  -2.108  0.00  0.00    +0.000 A 
ATOM     12  C   LIG    1        0.164   4.711  -2.153  0.00  0.00    +0.000 A 
ATOM     13  C   LIG    1        0.297   3.899  -1.043  0.00  0.00    +0.004 A 
ENDBRANCH   1   8
BRANCH   1  14
ATOM     14  C   LIG    1       -0.845   1.919   1.017  0.00  0.00    +0.191 C 
BRANCH  14  16
ATOM     15  C   LIG    1       -0.527  -0.180  -0.299  0.00  0.00    +0.007 C 
ATOM     16  C   LIG    1       -0.009   1.240  -0.070  0.00  0.00    +0.042 C 
ENDBRANCH  14  16
BRANCH  14  17
ATOM     17  O   LIG    1       -2.213   2.065   0.554  0.00  0.00    -0.460 OA
BRANCH  17  18
ATOM     18  C   LIG    1       -3.058   1.056   0.821  0.00  0.00    +0.304 C 
ATOM     19  C   LIG    1       -4.494   1.137   0.372  0.00  0.00    +0.136 C 
ATOM     20  O   LIG    1       -2.666   0.084   1.421  0.00  0.00    -0.251 OA
ENDBRANCH  17  18
ENDBRANCH  14  17
ENDBRANCH   1  14
BRANCH   1  21
ATOM     21  C   LIG    1        1.222   3.159   1.677  0.00  0.00    +0.004 C 
BRANCH  21  22
ATOM     22  C   LIG    1        1.834   4.548   1.871  0.00  0.00    -0.071 C 
ATOM     23  C   LIG    1        1.630   5.377   0.602  0.00  0.00    -0.013 C 
BRANCH  22  24
ATOM     24  N   LIG    1        1.151   5.218   2.998  0.00  0.00    +0.378 N 
ATOM     25  H   LIG    1        0.141   5.237   2.813  0.00  0.00    -0.082 HD
ATOM     26  C   LIG    1        1.641   6.606   3.132  0.00  0.00    -0.096 C 
ATOM     27  C   LIG    1        1.395   4.473   4.251  0.00  0.00    -0.096 C 
ENDBRANCH  22  24
ENDBRANCH  21  22
ENDBRANCH   1  21
TORSDOF 9
