REMARK  Name = ZINC01802775
REMARK                            x       y       z     vdW  Elec       q    Type
REMARK                         _______ _______ _______ _____ _____    ______ ____
ROOT
ATOM      1  C   LIG    1        2.521   1.913  -0.011  0.00  0.00    +0.252 C 
ATOM      2  N   LIG    1        3.563   2.768  -0.017  0.00  0.00    -0.311 N 
ATOM      3  H   LIG    1        3.405   3.725  -0.010  0.00  0.00    +0.149 HD
ATOM      4  O   LIG    1        2.720   0.712  -0.019  0.00  0.00    -0.270 OA
ENDROOT
BRANCH   1  12
ATOM      5  C   LIG    1       -3.648   2.690   0.034  0.00  0.00    +0.001 A 
ATOM      6  C   LIG    1       -3.524   4.075   0.040  0.00  0.00    +0.001 A 
ATOM      7  C   LIG    1       -2.267   4.644   0.047  0.00  0.00    +0.016 A 
ATOM      8  C   LIG    1       -1.153   3.832   0.033  0.00  0.00    +0.021 A 
ATOM      9  C   LIG    1       -1.249   2.420   0.021  0.00  0.00    +0.008 A 
ATOM     10  C   LIG    1       -0.021   1.732   0.012  0.00  0.00    +0.068 A 
ATOM     11 CL   LIG    1        0.002  -0.004   0.002  0.00  0.00    -0.082 Cl
ATOM     12  C   LIG    1        1.147   2.429   0.004  0.00  0.00    +0.093 A 
ATOM     13  S   LIG    1        0.598   4.127   0.018  0.00  0.00    -0.082 S 
ATOM     14  C   LIG    1       -2.560   1.878   0.025  0.00  0.00    +0.010 A 
ENDBRANCH   1  12
BRANCH   2  15
ATOM     15  C   LIG    1        4.934   2.252  -0.032  0.00  0.00    +0.106 C 
BRANCH  15  16
ATOM     16  C   LIG    1        5.919   3.423  -0.035  0.00  0.00    +0.040 C 
BRANCH  16  17
ATOM     17  C   LIG    1        7.351   2.884  -0.051  0.00  0.00    +0.124 C 
BRANCH  17  18
ATOM     18  N   LIG    1        8.294   4.005  -0.055  0.00  0.00    -0.338 N 
ATOM     19  C   LIG    1        8.811   4.628  -1.158  0.00  0.00    +0.104 A 
ATOM     20  C   LIG    1        9.628   5.600  -0.710  0.00  0.00    +0.101 A 
ATOM     21  N   LIG    1        9.617   5.565   0.630  0.00  0.00    -0.352 N 
ATOM     22  H   LIG    1       10.151   6.189   1.245  0.00  0.00    +0.166 HD
ATOM     23  C   LIG    1        8.821   4.612   1.030  0.00  0.00    +0.173 A 
ENDBRANCH  17  18
ENDBRANCH  16  17
ENDBRANCH  15  16
ENDBRANCH   2  15
TORSDOF 5
