REMARK  Name = ZINC02163637
REMARK                            x       y       z     vdW  Elec       q    Type
REMARK                         _______ _______ _______ _____ _____    ______ ____
ROOT
ATOM      1  C   LIG    1        3.785  -8.658   6.166  0.00  0.00    +0.079 C 
ENDROOT
BRANCH   1   2
ATOM      2  C   LIG    1        3.805 -10.164   6.158  0.00  0.00    +0.163 C 
ATOM      3  O   LIG    1        3.280 -10.773   5.250  0.00  0.00    -0.292 OA
BRANCH   2   4
ATOM      4  C   LIG    1        4.462 -10.896   7.249  0.00  0.00    +0.018 A 
ATOM      5  C   LIG    1        5.064 -10.196   8.302  0.00  0.00    +0.015 A 
ATOM      6  C   LIG    1        5.675 -10.883   9.318  0.00  0.00    +0.046 A 
ATOM      7  C   LIG    1        5.698 -12.274   9.305  0.00  0.00    +0.117 A 
ATOM      8  C   LIG    1        5.101 -12.974   8.262  0.00  0.00    +0.046 A 
ATOM      9  C   LIG    1        4.482 -12.296   7.244  0.00  0.00    +0.015 A 
BRANCH   7  10
ATOM     10  O   LIG    1        6.304 -12.950  10.313  0.00  0.00    -0.507 OA
ATOM     11  H   LIG    1        5.718 -13.162  11.053  0.00  0.00    +0.292 HD
ENDBRANCH   7  10
ENDBRANCH   2   4
ENDBRANCH   1   2
BRANCH   1  12
ATOM     12  C   LIG    1        3.045  -8.151   4.926  0.00  0.00    +0.008 C 
BRANCH  12  13
ATOM     13  C   LIG    1        3.024  -6.621   4.935  0.00  0.00    +0.000 C 
BRANCH  13  14
ATOM     14  C   LIG    1        2.284  -6.114   3.695  0.00  0.00    +0.000 C 
BRANCH  14  15
ATOM     15  C   LIG    1        2.264  -4.584   3.704  0.00  0.00    +0.000 C 
BRANCH  15  16
ATOM     16  C   LIG    1        1.524  -4.077   2.464  0.00  0.00    +0.000 C 
BRANCH  16  17
ATOM     17  C   LIG    1        1.503  -2.548   2.473  0.00  0.00    -0.000 C 
BRANCH  17  18
ATOM     18  C   LIG    1        0.763  -2.041   1.233  0.00  0.00    -0.000 C 
BRANCH  18  19
ATOM     19  C   LIG    1        0.742  -0.511   1.242  0.00  0.00    -0.000 C 
BRANCH  19  21
ATOM     20  C   LIG    1       -0.019   1.526   0.010  0.00  0.00    +0.004 C 
ATOM     21  C   LIG    1        0.002  -0.004   0.002  0.00  0.00    -0.003 C 
ENDBRANCH  19  21
ENDBRANCH  18  19
ENDBRANCH  17  18
ENDBRANCH  16  17
ENDBRANCH  15  16
ENDBRANCH  14  15
ENDBRANCH  13  14
ENDBRANCH  12  13
ENDBRANCH   1  12
TORSDOF 12
