REMARK  Name = ZINC02001838
REMARK                            x       y       z     vdW  Elec       q    Type
REMARK                         _______ _______ _______ _____ _____    ______ ____
ROOT
ATOM      1  C   LIG    1       -0.269   1.798  -2.386  0.00  0.00    +0.283 C 
ATOM      2  N   LIG    1       -0.768   1.595  -1.151  0.00  0.00    -0.282 N 
ATOM      3  C   LIG    1       -0.013   1.086   0.008  0.00  0.00    +0.109 C 
ATOM      4  C   LIG    1       -0.783   1.608   1.247  0.00  0.00    +0.021 C 
ATOM      5  C   LIG    1       -2.256   1.496   0.763  0.00  0.00    +0.035 C 
ATOM      6  C   LIG    1       -2.156   1.845  -0.736  0.00  0.00    +0.185 C 
ATOM      7  O   LIG    1       -0.986   2.223  -3.268  0.00  0.00    -0.267 OA
ENDROOT
BRANCH   1   8
ATOM      8  C   LIG    1        1.165   1.500  -2.669  0.00  0.00    +0.223 C 
ATOM      9  O   LIG    1        1.878   1.077  -1.791  0.00  0.00    -0.287 OA
BRANCH   8  10
ATOM     10  C   LIG    1        1.723   1.728  -4.050  0.00  0.00    +0.032 C 
ATOM     11  C   LIG    1        1.571   3.203  -4.426  0.00  0.00    +0.019 C 
ATOM     12  C   LIG    1        0.961   0.864  -5.057  0.00  0.00    +0.019 C 
BRANCH  10  14
ATOM     13  C   LIG    1        3.772   1.577  -5.473  0.00  0.00    +0.005 C 
ATOM     14  C   LIG    1        3.205   1.346  -4.070  0.00  0.00    +0.011 C 
ENDBRANCH  10  14
ENDBRANCH   8  10
ENDBRANCH   1   8
BRANCH   6  15
ATOM     15  C   LIG    1       -3.093   0.972  -1.530  0.00  0.00    +0.328 C 
ATOM     16  O   LIG    1       -2.654   0.212  -2.361  0.00  0.00    -0.249 OA
BRANCH  15  17
ATOM     17  O   LIG    1       -4.417   1.036  -1.313  0.00  0.00    -0.463 OA
BRANCH  17  18
ATOM     18  C   LIG    1       -5.259   0.166  -2.113  0.00  0.00    +0.232 C 
BRANCH  18  19
ATOM     19  C   LIG    1       -6.724   0.379  -1.728  0.00  0.00    +0.046 C 
BRANCH  19  20
ATOM     20  C   LIG    1       -7.612  -0.538  -2.571  0.00  0.00    +0.040 C 
BRANCH  20  21
ATOM     21  C   LIG    1       -9.055  -0.328  -2.191  0.00  0.00    -0.029 A 
ATOM     22  C   LIG    1       -9.822   0.625  -2.845  0.00  0.00    +0.006 A 
ATOM     23  C   LIG    1      -11.145   0.784  -2.463  0.00  0.00    +0.020 A 
ATOM     24  C   LIG    1      -11.652  -0.008  -1.449  0.00  0.00    +0.111 A 
ATOM     25  N   LIG    1      -10.894  -0.904  -0.850  0.00  0.00    -0.263 NA
ATOM     26  C   LIG    1       -9.633  -1.086  -1.191  0.00  0.00    +0.114 A 
ENDBRANCH  20  21
ENDBRANCH  19  20
ENDBRANCH  18  19
ENDBRANCH  17  18
ENDBRANCH  15  17
ENDBRANCH   6  15
TORSDOF 9
