REMARK  Name = ZINC02033588
REMARK                            x       y       z     vdW  Elec       q    Type
REMARK                         _______ _______ _______ _____ _____    ______ ____
ROOT
ATOM      1  C   LIG    1        3.970   1.865   5.550  0.00  0.00    +0.246 C 
ATOM      2  C   LIG    1        3.939   0.347   5.767  0.00  0.00    +0.244 C 
ATOM      3  O   LIG    1        4.203  -0.291   4.512  0.00  0.00    -0.479 OA
ATOM      4  C   LIG    1        3.525   0.182   3.431  0.00  0.00    +0.163 A 
ATOM      5  C   LIG    1        3.452  -0.590   2.281  0.00  0.00    +0.050 A 
ATOM      6  C   LIG    1        2.772  -0.121   1.174  0.00  0.00    +0.011 A 
ATOM      7  C   LIG    1        2.163   1.119   1.208  0.00  0.00    -0.001 A 
ATOM      8  C   LIG    1        2.235   1.896   2.349  0.00  0.00    +0.056 A 
ATOM      9  C   LIG    1        2.911   1.428   3.466  0.00  0.00    +0.163 A 
ATOM     10  O   LIG    1        2.966   2.201   4.585  0.00  0.00    -0.477 OA
ENDROOT
BRANCH   7  11
ATOM     11  C   LIG    1        1.424   1.628  -0.003  0.00  0.00    +0.240 C 
ATOM     12  C   LIG    1       -0.013   1.086   0.008  0.00  0.00    +0.230 C 
ATOM     13  C   LIG    1       -0.696   1.601  -1.246  0.00  0.00    +0.202 C 
ATOM     14  C   LIG    1        0.106   1.611  -2.474  0.00  0.00    +0.103 A 
ATOM     15  C   LIG    1       -0.497   1.828  -3.723  0.00  0.00    +0.134 A 
ATOM     16  C   LIG    1        0.285   1.849  -4.863  0.00  0.00    +0.091 A 
ATOM     17  C   LIG    1        1.657   1.654  -4.770  0.00  0.00    +0.124 A 
ATOM     18  C   LIG    1        2.260   1.434  -3.538  0.00  0.00    +0.092 A 
ATOM     19  C   LIG    1        1.496   1.407  -2.384  0.00  0.00    +0.139 A 
ATOM     20  O   LIG    1       -1.848   1.982  -1.234  0.00  0.00    -0.289 OA
ATOM     21  O   LIG    1        2.087   1.185  -1.187  0.00  0.00    -0.480 OA
BRANCH  12  22
ATOM     22  O   LIG    1       -0.702   1.556   1.168  0.00  0.00    -0.380 OA
ATOM     23  H   LIG    1       -1.621   1.262   1.226  0.00  0.00    +0.211 HD
ENDBRANCH  12  22
BRANCH  15  24
ATOM     24  O   LIG    1       -1.838   2.015  -3.810  0.00  0.00    -0.506 OA
ATOM     25  H   LIG    1       -2.342   1.199  -3.930  0.00  0.00    +0.292 HD
ENDBRANCH  15  24
BRANCH  17  26
ATOM     26  O   LIG    1        2.417   1.679  -5.893  0.00  0.00    -0.507 OA
ATOM     27  H   LIG    1        2.521   0.816  -6.317  0.00  0.00    +0.292 HD
ENDBRANCH  17  26
ENDBRANCH   7  11
BRANCH   1  30
ATOM     28  C   LIG    1        4.460   3.738   8.794  0.00  0.00    +0.162 A 
ATOM     29  C   LIG    1        4.723   3.085   7.601  0.00  0.00    +0.056 A 
ATOM     30  C   LIG    1        3.682   2.571   6.850  0.00  0.00    -0.000 A 
ATOM     31  C   LIG    1        2.378   2.698   7.292  0.00  0.00    +0.011 A 
ATOM     32  C   LIG    1        2.109   3.344   8.483  0.00  0.00    +0.049 A 
ATOM     33  C   LIG    1        3.147   3.866   9.239  0.00  0.00    +0.158 A 
BRANCH  28  35
ATOM     34  C   LIG    1        6.803   4.080   9.014  0.00  0.00    +0.277 C 
ATOM     35  O   LIG    1        5.482   4.248   9.532  0.00  0.00    -0.491 OA
ENDBRANCH  28  35
BRANCH  33  36
ATOM     36  O   LIG    1        2.884   4.502  10.411  0.00  0.00    -0.503 OA
ATOM     37  H   LIG    1        2.879   3.919  11.183  0.00  0.00    +0.292 HD
ENDBRANCH  33  36
ENDBRANCH   1  30
BRANCH   2  38
ATOM     38  C   LIG    1        2.560  -0.073   6.280  0.00  0.00    +0.204 C 
BRANCH  38  39
ATOM     39  O   LIG    1        2.564  -1.474   6.564  0.00  0.00    -0.391 OA
ATOM     40  H   LIG    1        1.720  -1.810   6.894  0.00  0.00    +0.210 HD
ENDBRANCH  38  39
ENDBRANCH   2  38
TORSDOF 9
