REMARK  Name = ZINC01910267
REMARK                            x       y       z     vdW  Elec       q    Type
REMARK                         _______ _______ _______ _____ _____    ______ ____
ROOT
ATOM      1  C   LIG    1        1.733   5.663  -0.144  0.00  0.00    +0.141 A 
ATOM      2  N   LIG    1        0.478   5.569   0.205  0.00  0.00    -0.133 NA
ATOM      3  N   LIG    1        0.136   4.333   0.298  0.00  0.00    -0.129 NA
ATOM      4  C   LIG    1        1.165   3.565   0.010  0.00  0.00    +0.169 A 
ATOM      5  N   LIG    1        2.217   4.396  -0.275  0.00  0.00    -0.276 N 
ENDROOT
BRANCH   5   6
ATOM      6  C   LIG    1        3.520   4.020  -0.631  0.00  0.00    +0.085 A 
ATOM      7  C   LIG    1        3.851   3.836  -1.966  0.00  0.00    +0.029 A 
ATOM      8  C   LIG    1        5.136   3.466  -2.314  0.00  0.00    +0.002 A 
ATOM      9  C   LIG    1        6.093   3.278  -1.333  0.00  0.00    +0.003 A 
ATOM     10  C   LIG    1        5.769   3.461  -0.002  0.00  0.00    +0.040 A 
ATOM     11  C   LIG    1        4.486   3.837   0.353  0.00  0.00    +0.147 A 
ATOM     12  F   LIG    1        4.169   4.020   1.653  0.00  0.00    -0.203 F 
ENDBRANCH   5   6
BRANCH   4  13
ATOM     13  C   LIG    1        1.183   2.087   0.002  0.00  0.00    +0.020 A 
ATOM     14  C   LIG    1       -0.017   1.373   0.010  0.00  0.00    +0.012 A 
ATOM     15  C   LIG    1        0.002  -0.004   0.002  0.00  0.00    +0.009 A 
ATOM     16  C   LIG    1        1.219  -0.685  -0.013  0.00  0.00    -0.018 A 
ATOM     17  C   LIG    1        2.418   0.027  -0.021  0.00  0.00    +0.009 A 
ATOM     18  C   LIG    1        2.401   1.404  -0.013  0.00  0.00    +0.012 A 
BRANCH  16  19
ATOM     19  C   LIG    1        1.238  -2.168  -0.021  0.00  0.00    -0.018 A 
ATOM     20  C   LIG    1        0.042  -2.883  -0.007  0.00  0.00    +0.008 A 
ATOM     21  C   LIG    1        0.066  -4.263  -0.018  0.00  0.00    +0.001 A 
ATOM     22  C   LIG    1        1.274  -4.936  -0.034  0.00  0.00    +0.000 A 
ATOM     23  C   LIG    1        2.464  -4.232  -0.043  0.00  0.00    +0.001 A 
ATOM     24  C   LIG    1        2.453  -2.852  -0.036  0.00  0.00    +0.008 A 
ENDBRANCH  16  19
ENDBRANCH   4  13
BRANCH   1  26
ATOM     25  C   LIG    1        1.844   7.757  -1.468  0.00  0.00    +0.015 C 
ATOM     26  C   LIG    1        2.506   6.939  -0.357  0.00  0.00    +0.051 C 
ATOM     27  C   LIG    1        2.514   7.753   0.939  0.00  0.00    +0.015 C 
ENDBRANCH   1  26
TORSDOF 4
