REMARK  Name = ZINC01717024
REMARK                            x       y       z     vdW  Elec       q    Type
REMARK                         _______ _______ _______ _____ _____    ______ ____
ROOT
ATOM      1  N   LIG    1       -1.236   2.134   0.019  0.00  0.00    -0.281 N 
ATOM      2  H   LIG    1       -2.030   1.701   0.372  0.00  0.00    +0.155 HD
ATOM      3  C   LIG    1       -1.315   3.387  -0.472  0.00  0.00    +0.249 C 
ATOM      4  O   LIG    1       -0.346   3.892  -1.005  0.00  0.00    -0.270 OA
ENDROOT
BRANCH   1  19
ATOM      5  C   LIG    1        6.017   3.719   0.037  0.00  0.00    +0.001 A 
ATOM      6  C   LIG    1        4.798   4.390   0.041  0.00  0.00    +0.001 A 
ATOM      7  C   LIG    1        3.621   3.700   0.035  0.00  0.00    +0.009 A 
ATOM      8  C   LIG    1        3.638   2.303   0.026  0.00  0.00    -0.010 A 
ATOM      9  C   LIG    1        4.875   1.617   0.021  0.00  0.00    -0.017 A 
ATOM     10  C   LIG    1        4.893   0.206   0.013  0.00  0.00    +0.009 A 
ATOM     11  C   LIG    1        3.744  -0.508   0.007  0.00  0.00    +0.010 A 
ATOM     12  C   LIG    1        2.486   0.119   0.011  0.00  0.00    -0.009 A 
ATOM     13  C   LIG    1        1.253  -0.672   0.006  0.00  0.00    -0.008 A 
ATOM     14  C   LIG    1        1.282  -2.069  -0.002  0.00  0.00    +0.009 A 
ATOM     15  C   LIG    1        0.110  -2.769  -0.007  0.00  0.00    +0.001 A 
ATOM     16  C   LIG    1       -1.114  -2.109  -0.002  0.00  0.00    +0.001 A 
ATOM     17  C   LIG    1       -1.175  -0.746   0.007  0.00  0.00    +0.010 A 
ATOM     18  C   LIG    1        0.010   0.000   0.011  0.00  0.00    +0.004 A 
ATOM     19  C   LIG    1       -0.015   1.460   0.021  0.00  0.00    +0.042 A 
ATOM     20  C   LIG    1        1.148   2.167   0.025  0.00  0.00    +0.033 A 
ATOM     21  C   LIG    1        2.397   1.524   0.021  0.00  0.00    -0.008 A 
ATOM     22  C   LIG    1        6.067   2.357   0.026  0.00  0.00    +0.008 A 
ENDBRANCH   1  19
BRANCH   3  23
ATOM     23  C   LIG    1       -2.576   4.145  -0.362  0.00  0.00    +0.045 A 
ATOM     24  C   LIG    1       -3.690   3.570   0.249  0.00  0.00    +0.013 A 
ATOM     25  C   LIG    1       -4.867   4.283   0.349  0.00  0.00    +0.001 A 
ATOM     26  C   LIG    1       -4.952   5.571  -0.154  0.00  0.00    +0.001 A 
ATOM     27  C   LIG    1       -3.859   6.157  -0.762  0.00  0.00    +0.009 A 
ATOM     28  C   LIG    1       -2.661   5.455  -0.868  0.00  0.00    -0.005 A 
BRANCH  28  29
ATOM     29  C   LIG    1       -1.486   6.082  -1.514  0.00  0.00    -0.003 A 
ATOM     30  C   LIG    1       -0.879   7.195  -0.936  0.00  0.00    +0.009 A 
ATOM     31  C   LIG    1        0.217   7.776  -1.541  0.00  0.00    +0.001 A 
ATOM     32  C   LIG    1        0.722   7.259  -2.723  0.00  0.00    +0.001 A 
ATOM     33  C   LIG    1        0.136   6.157  -3.310  0.00  0.00    +0.015 A 
ATOM     34  C   LIG    1       -0.970   5.553  -2.711  0.00  0.00    +0.067 A 
BRANCH  34  35
ATOM     35  C   LIG    1       -1.597   4.371  -3.332  0.00  0.00    +0.337 C 
ATOM     36  O   LIG    1       -2.562   3.850  -2.809  0.00  0.00    -0.245 OA
BRANCH  35  37
ATOM     37  O   LIG    1       -1.100   3.868  -4.479  0.00  0.00    -0.477 OA
ATOM     38  H   LIG    1       -0.355   4.270  -4.882  0.00  0.00    +0.295 HD
ENDBRANCH  35  37
ENDBRANCH  34  35
ENDBRANCH  28  29
ENDBRANCH   3  23
TORSDOF 5
