REMARK  Name = ZINC02270590
REMARK                            x       y       z     vdW  Elec       q    Type
REMARK                         _______ _______ _______ _____ _____    ______ ____
ROOT
ATOM      1  C   LIG    1       -3.487  -0.053   1.560  0.00  0.00    +0.028 C 
ATOM      2  C   LIG    1       -4.419   0.976   0.916  0.00  0.00    +0.081 C 
ATOM      3  C   LIG    1       -5.593   1.275   1.857  0.00  0.00    +0.050 C 
ATOM      4  C   LIG    1       -6.545   2.250   1.165  0.00  0.00    +0.115 C 
ATOM      5  C   LIG    1       -5.790   3.445   0.645  0.00  0.00    -0.005 A 
ATOM      6  C   LIG    1       -6.486   4.613   0.380  0.00  0.00    +0.007 A 
ATOM      7  C   LIG    1       -5.823   5.728  -0.086  0.00  0.00    +0.000 A 
ATOM      8  C   LIG    1       -4.458   5.684  -0.306  0.00  0.00    +0.002 A 
ATOM      9  C   LIG    1       -3.757   4.523  -0.048  0.00  0.00    +0.024 A 
ATOM     10  C   LIG    1       -4.423   3.400   0.433  0.00  0.00    +0.042 A 
ATOM     11  N   LIG    1       -3.692   2.233   0.692  0.00  0.00    -0.264 N 
ATOM     12  C   LIG    1       -2.345   2.264   0.740  0.00  0.00    +0.251 C 
ATOM     13  O   LIG    1       -1.713   1.226   0.722  0.00  0.00    -0.270 OA
ENDROOT
BRANCH  12  14
ATOM     14  C   LIG    1       -1.638   3.560   0.813  0.00  0.00    +0.037 A 
ATOM     15  C   LIG    1       -0.443   3.747   0.117  0.00  0.00    +0.013 A 
ATOM     16  C   LIG    1        0.210   4.960   0.186  0.00  0.00    +0.001 A 
ATOM     17  C   LIG    1       -0.316   5.989   0.947  0.00  0.00    +0.000 A 
ATOM     18  C   LIG    1       -1.498   5.809   1.644  0.00  0.00    +0.001 A 
ATOM     19  C   LIG    1       -2.160   4.601   1.583  0.00  0.00    +0.013 A 
ENDBRANCH  12  14
BRANCH   4  20
ATOM     20  N   LIG    1       -7.559   2.698   2.123  0.00  0.00    -0.260 N 
ATOM     21  C   LIG    1       -7.192   3.397   3.215  0.00  0.00    +0.251 C 
ATOM     22  O   LIG    1       -6.026   3.697   3.381  0.00  0.00    -0.270 OA
BRANCH  21  23
ATOM     23  C   LIG    1       -8.208   3.799   4.211  0.00  0.00    +0.037 A 
ATOM     24  C   LIG    1       -9.525   4.035   3.813  0.00  0.00    +0.013 A 
ATOM     25  C   LIG    1      -10.470   4.404   4.748  0.00  0.00    +0.001 A 
ATOM     26  C   LIG    1      -10.111   4.553   6.076  0.00  0.00    +0.000 A 
ATOM     27  C   LIG    1       -8.806   4.326   6.476  0.00  0.00    +0.001 A 
ATOM     28  C   LIG    1       -7.853   3.951   5.552  0.00  0.00    +0.013 A 
ENDBRANCH  21  23
BRANCH  20  29
ATOM     29  C   LIG    1       -8.908   2.400   1.903  0.00  0.00    +0.037 A 
ATOM     30  C   LIG    1       -9.634   1.711   2.867  0.00  0.00    +0.023 A 
ATOM     31  C   LIG    1      -10.967   1.423   2.650  0.00  0.00    +0.002 A 
ATOM     32  C   LIG    1      -11.576   1.810   1.470  0.00  0.00    +0.000 A 
ATOM     33  C   LIG    1      -10.854   2.491   0.506  0.00  0.00    +0.002 A 
ATOM     34  C   LIG    1       -9.523   2.787   0.720  0.00  0.00    +0.023 A 
ENDBRANCH  20  29
ENDBRANCH   4  20
TORSDOF 4
