REMARK  Name = ZINC02011566
REMARK                            x       y       z     vdW  Elec       q    Type
REMARK                         _______ _______ _______ _____ _____    ______ ____
ROOT
ATOM      1  N   LIG    1       -4.115   2.447   2.352  0.00  0.00    -0.234 N 
ATOM      2  C   LIG    1       -4.922   2.918   3.488  0.00  0.00    +0.164 C 
ATOM      3  C   LIG    1       -6.354   2.977   2.922  0.00  0.00    +0.221 C 
ATOM      4  O   LIG    1       -6.205   2.537   1.540  0.00  0.00    -0.443 OA
ATOM      5  C   LIG    1       -4.918   2.263   1.296  0.00  0.00    +0.408 C 
ATOM      6  O   LIG    1       -4.516   1.879   0.215  0.00  0.00    -0.226 OA
ENDROOT
BRANCH   1  12
ATOM      7  C   LIG    1       -0.013   1.086   0.008  0.00  0.00    +0.044 C 
ATOM      8  C   LIG    1       -0.718   1.572   1.248  0.00  0.00    -0.049 A 
ATOM      9  C   LIG    1        0.002   1.806   2.405  0.00  0.00    +0.003 A 
ATOM     10  C   LIG    1       -0.642   2.251   3.545  0.00  0.00    +0.002 A 
ATOM     11  C   LIG    1       -2.006   2.465   3.531  0.00  0.00    +0.023 A 
ATOM     12  C   LIG    1       -2.732   2.231   2.370  0.00  0.00    +0.040 A 
ATOM     13  C   LIG    1       -2.082   1.789   1.225  0.00  0.00    +0.027 A 
ENDBRANCH   1  12
BRANCH   3  14
ATOM     14  C   LIG    1       -7.274   2.026   3.691  0.00  0.00    +0.202 C 
BRANCH  14  15
ATOM     15  O   LIG    1       -8.616   2.184   3.226  0.00  0.00    -0.391 OA
ATOM     16  H   LIG    1       -9.256   1.611   3.670  0.00  0.00    +0.210 HD
ENDBRANCH  14  15
ENDBRANCH   3  14
TORSDOF 3
