REMARK  Name = ZINC01741507
REMARK                            x       y       z     vdW  Elec       q    Type
REMARK                         _______ _______ _______ _____ _____    ______ ____
ROOT
ATOM      1  N   LIG    1        0.248  -2.776   0.016  0.00  0.00    -0.266 N 
ATOM      2  H   LIG    1       -0.365  -2.346  -0.600  0.00  0.00    +0.156 HD
ATOM      3  C   LIG    1        0.388  -4.116   0.002  0.00  0.00    +0.308 C 
ATOM      4  N   LIG    1       -0.237  -4.849  -0.940  0.00  0.00    -0.269 N 
ATOM      5  H   LIG    1       -0.725  -4.408  -1.653  0.00  0.00    +0.156 HD
ATOM      6  O   LIG    1        1.080  -4.664   0.839  0.00  0.00    -0.252 OA
ENDROOT
BRANCH   1  12
ATOM      7  C   LIG    1        0.574  -0.711   1.238  0.00  0.00    +0.141 A 
ATOM      8  C   LIG    1        1.305   0.046   2.139  0.00  0.00    +0.047 A 
ATOM      9  C   LIG    1        2.446  -0.479   2.718  0.00  0.00    +0.004 A 
ATOM     10  C   LIG    1        2.860  -1.760   2.400  0.00  0.00    +0.002 A 
ATOM     11  C   LIG    1        2.136  -2.521   1.502  0.00  0.00    +0.027 A 
ATOM     12  C   LIG    1        0.987  -2.003   0.922  0.00  0.00    +0.077 A 
BRANCH   7  14
ATOM     13  C   LIG    1       -0.911   1.135   1.039  0.00  0.00    +0.277 C 
ATOM     14  O   LIG    1       -0.548  -0.196   0.668  0.00  0.00    -0.493 OA
ENDBRANCH   7  14
ENDBRANCH   1  12
BRANCH   4  15
ATOM     15  C   LIG    1       -0.184  -6.247  -0.889  0.00  0.00    +0.035 A 
ATOM     16  C   LIG    1       -0.152  -6.898   0.337  0.00  0.00    +0.025 A 
ATOM     17  C   LIG    1       -0.099  -8.277   0.384  0.00  0.00    +0.030 A 
ATOM     18  C   LIG    1       -0.077  -9.010  -0.788  0.00  0.00    +0.105 A 
ATOM     19  C   LIG    1       -0.109  -8.365  -2.011  0.00  0.00    +0.030 A 
ATOM     20  C   LIG    1       -0.168  -6.986  -2.064  0.00  0.00    +0.025 A 
BRANCH  18  21
ATOM     21  S   LIG    1       -0.009 -10.769  -0.724  0.00  0.00    +0.056 S 
ATOM     22  O   LIG    1        0.563 -11.108   0.532  0.00  0.00    -0.153 OA
ATOM     23  O   LIG    1        0.551 -11.199  -1.957  0.00  0.00    -0.153 OA
BRANCH  21  24
ATOM     24  N   LIG    1       -1.571 -11.319  -0.697  0.00  0.00    -0.204 NA
ATOM     25  H   LIG    1       -1.749 -12.272  -0.661  0.00  0.00    +0.144 HD
ATOM     26  H   LIG    1       -2.308 -10.688  -0.717  0.00  0.00    +0.144 HD
ENDBRANCH  21  24
ENDBRANCH  18  21
ENDBRANCH   4  15
TORSDOF 5
