REMARK  Name = ZINC01675992
REMARK                            x       y       z     vdW  Elec       q    Type
REMARK                         _______ _______ _______ _____ _____    ______ ____
ROOT
ATOM      1  N   LIG    1        2.402   1.107  -0.014  0.00  0.00    -0.299 N 
ATOM      2  H   LIG    1        2.399   0.143  -0.128  0.00  0.00    +0.154 HD
ENDROOT
BRANCH   1  10
ATOM      3  C   LIG    1        0.041   1.433  -0.403  0.00  0.00    +0.025 A 
ATOM      4  C   LIG    1       -1.136   2.101  -0.128  0.00  0.00    +0.023 A 
ATOM      5  C   LIG    1       -1.153   3.117   0.810  0.00  0.00    +0.059 A 
ATOM      6 CL   LIG    1       -2.635   3.954   1.154  0.00  0.00    -0.082 Cl
ATOM      7  C   LIG    1        0.008   3.464   1.481  0.00  0.00    +0.061 A 
ATOM      8 CL   LIG    1       -0.019   4.735   2.663  0.00  0.00    -0.082 Cl
ATOM      9  C   LIG    1        1.190   2.802   1.206  0.00  0.00    +0.044 A 
ATOM     10  C   LIG    1        1.209   1.781   0.263  0.00  0.00    +0.034 A 
ENDBRANCH   1  10
BRANCH   1  11
ATOM     11  C   LIG    1        3.589   1.815  -0.126  0.00  0.00    +0.129 A 
ATOM     12  C   LIG    1        3.583   3.210  -0.127  0.00  0.00    +0.084 A 
ATOM     13  C   LIG    1        4.791   3.874  -0.235  0.00  0.00    +0.136 A 
ATOM     14 CL   LIG    1        4.842   5.610  -0.233  0.00  0.00    -0.062 Cl
ATOM     15  N   LIG    1        5.910   3.171  -0.345  0.00  0.00    -0.203 NA
ATOM     16  C   LIG    1        5.884   1.847  -0.348  0.00  0.00    +0.216 A 
ATOM     17  N   LIG    1        4.748   1.174  -0.240  0.00  0.00    -0.200 NA
BRANCH  16  18
ATOM     18  N   LIG    1        7.073   1.148  -0.465  0.00  0.00    -0.327 N 
ATOM     19  H   LIG    1        7.912   1.629  -0.544  0.00  0.00    +0.145 HD
ATOM     20  H   LIG    1        7.067   0.178  -0.468  0.00  0.00    +0.145 HD
ENDBRANCH  16  18
ENDBRANCH   1  11
TORSDOF 3
