REMARK  Name = ZINC01741717
REMARK                            x       y       z     vdW  Elec       q    Type
REMARK                         _______ _______ _______ _____ _____    ______ ____
ROOT
ATOM      1  N   LIG    1       -4.872   3.684   0.054  0.00  0.00    -0.269 N 
ATOM      2  H   LIG    1       -5.705   3.190  -0.006  0.00  0.00    +0.156 HD
ATOM      3  C   LIG    1       -4.893   5.028   0.156  0.00  0.00    +0.308 C 
ATOM      4  N   LIG    1       -6.068   5.678   0.269  0.00  0.00    -0.269 N 
ATOM      5  H   LIG    1       -6.894   5.176   0.344  0.00  0.00    +0.156 HD
ATOM      6  O   LIG    1       -3.850   5.654   0.147  0.00  0.00    -0.252 OA
ENDROOT
BRANCH   4   7
ATOM      7  C   LIG    1       -6.096   7.078   0.278  0.00  0.00    +0.037 A 
ATOM      8  C   LIG    1       -5.069   7.790   0.883  0.00  0.00    +0.026 A 
ATOM      9  C   LIG    1       -5.096   9.171   0.886  0.00  0.00    +0.042 A 
ATOM     10  C   LIG    1       -6.152   9.845   0.296  0.00  0.00    +0.153 A 
ATOM     11  F   LIG    1       -6.179  11.196   0.304  0.00  0.00    -0.203 F 
ATOM     12  C   LIG    1       -7.179   9.137  -0.304  0.00  0.00    +0.158 A 
ATOM     13  C   LIG    1       -7.154   7.756  -0.313  0.00  0.00    +0.058 A 
BRANCH  12  14
ATOM     14  N   LIG    1       -8.306   9.860  -0.934  0.00  0.00    +0.009 N 
ATOM     15  O   LIG    1       -9.211   9.237  -1.462  0.00  0.00    -0.130 OA
BRANCH  14  16
ATOM     16  O   LIG    1       -8.330  11.078  -0.926  0.00  0.00    -0.396 OA
ATOM     17  H   LIG    1       -7.634  11.557  -0.520  0.00  0.00    +0.329 HD
ENDBRANCH  14  16
ENDBRANCH  12  14
ENDBRANCH   4   7
BRANCH   1  20
ATOM     18  C   LIG    1       -2.336   1.079   0.611  0.00  0.00    +0.025 A 
ATOM     19  C   LIG    1       -3.539   1.755   0.635  0.00  0.00    +0.025 A 
ATOM     20  C   LIG    1       -3.648   3.001   0.034  0.00  0.00    +0.035 A 
ATOM     21  C   LIG    1       -2.545   3.572  -0.586  0.00  0.00    +0.025 A 
ATOM     22  C   LIG    1       -1.339   2.899  -0.606  0.00  0.00    +0.025 A 
ATOM     23  C   LIG    1       -1.230   1.652  -0.005  0.00  0.00    +0.028 A 
BRANCH  23  24
ATOM     24  N   LIG    1       -0.009   0.970  -0.026  0.00  0.00    -0.334 N 
ATOM     25  H   LIG    1        0.762   1.368  -0.460  0.00  0.00    +0.147 HD
BRANCH  24  26
ATOM     26  C   LIG    1        0.107  -0.344   0.613  0.00  0.00    +0.222 C 
BRANCH  26  27
ATOM     27  C   LIG    1        1.516  -0.856   0.456  0.00  0.00    +0.322 C 
ATOM     28  O   LIG    1        2.338  -0.192  -0.130  0.00  0.00    -0.249 OA
BRANCH  27  29
ATOM     29  O   LIG    1        1.857  -2.049   0.967  0.00  0.00    -0.480 OA
ATOM     30  H   LIG    1        1.219  -2.564   1.421  0.00  0.00    +0.295 HD
ENDBRANCH  27  29
ENDBRANCH  26  27
ENDBRANCH  24  26
ENDBRANCH  23  24
ENDBRANCH   1  20
TORSDOF 8
