REMARK  Name = ZINC01724368
REMARK                            x       y       z     vdW  Elec       q    Type
REMARK                         _______ _______ _______ _____ _____    ______ ____
ROOT
ATOM      1  C   LIG    1       -0.016   1.359   0.009  0.00  0.00    +0.001 A 
ATOM      2  C   LIG    1        1.167   2.090   0.002  0.00  0.00    +0.001 A 
ATOM      3  C   LIG    1        2.378   1.460  -0.013  0.00  0.00    +0.009 A 
ATOM      4  C   LIG    1        2.431   0.064  -0.021  0.00  0.00    -0.010 A 
ATOM      5  C   LIG    1        1.230  -0.683  -0.013  0.00  0.00    -0.017 A 
ATOM      6  C   LIG    1        1.281  -2.093  -0.022  0.00  0.00    +0.009 A 
ATOM      7  C   LIG    1        2.463  -2.752  -0.038  0.00  0.00    +0.010 A 
ATOM      8  C   LIG    1        3.687  -2.061  -0.046  0.00  0.00    -0.009 A 
ATOM      9  C   LIG    1        4.962  -2.780  -0.063  0.00  0.00    -0.007 A 
ATOM     10  C   LIG    1        5.013  -4.177  -0.073  0.00  0.00    +0.009 A 
ATOM     11  C   LIG    1        6.222  -4.809  -0.089  0.00  0.00    +0.001 A 
ATOM     12  C   LIG    1        7.406  -4.081  -0.096  0.00  0.00    +0.001 A 
ATOM     13  C   LIG    1        7.391  -2.717  -0.084  0.00  0.00    +0.011 A 
ATOM     14  C   LIG    1        6.165  -2.036  -0.068  0.00  0.00    +0.018 A 
ATOM     15  C   LIG    1        6.116  -0.623  -0.059  0.00  0.00    +0.132 A 
ATOM     16  F   LIG    1        7.269   0.081  -0.066  0.00  0.00    -0.205 F 
ATOM     17  C   LIG    1        4.932   0.036  -0.044  0.00  0.00    +0.048 A 
ATOM     18  C   LIG    1        3.708  -0.653  -0.037  0.00  0.00    -0.007 A 
ATOM     19  C   LIG    1        0.002  -0.004   0.002  0.00  0.00    +0.008 A 
ENDROOT
TORSDOF 0
