REMARK  Name = ZINC02020238
REMARK                            x       y       z     vdW  Elec       q    Type
REMARK                         _______ _______ _______ _____ _____    ______ ____
ROOT
ATOM      1  C   LIG    1       -2.852   1.641  -2.374  0.00  0.00    +0.011 C 
ENDROOT
BRANCH   1   2
ATOM      2  C   LIG    1       -2.134   1.034  -1.167  0.00  0.00    +0.183 C 
BRANCH   2   3
ATOM      3  O   LIG    1       -0.792   1.525  -1.115  0.00  0.00    -0.303 OA
BRANCH   3   4
ATOM      4  N   LIG    1       -0.012   1.005   0.008  0.00  0.00    -0.215 NA
ATOM      5  H   LIG    1        0.925   1.379   0.001  0.00  0.00    +0.150 HD
ATOM      6  H   LIG    1        0.002  -0.004   0.002  0.00  0.00    +0.150 HD
ENDBRANCH   3   4
ENDBRANCH   2   3
ENDBRANCH   1   2
BRANCH   1   7
ATOM      7  C   LIG    1       -4.288   1.116  -2.430  0.00  0.00    -0.084 C 
BRANCH   7   8
ATOM      8  N   LIG    1       -4.977   1.723  -3.582  0.00  0.00    +0.378 N 
ATOM      9  H   LIG    1       -5.008   2.742  -3.459  0.00  0.00    -0.090 HD
ATOM     10  H   LIG    1       -5.929   1.367  -3.647  0.00  0.00    -0.090 HD
ATOM     11  H   LIG    1       -4.475   1.507  -4.442  0.00  0.00    -0.090 HD
ENDBRANCH   7   8
ENDBRANCH   1   7
TORSDOF 5
