REMARK  Name = ZINC02049690
REMARK                            x       y       z     vdW  Elec       q    Type
REMARK                         _______ _______ _______ _____ _____    ______ ____
ROOT
ATOM      1  C   LIG    1        7.537  -4.778   5.779  0.00  0.00    +0.066 C 
ATOM      2  C   LIG    1        6.420  -3.910   6.298  0.00  0.00    +0.053 C 
ATOM      3  C   LIG    1        6.205  -3.816   7.645  0.00  0.00    +0.085 C 
ATOM      4  C   LIG    1        5.075  -2.935   8.125  0.00  0.00    +0.162 C 
ATOM      5  N   LIG    1        4.273  -2.230   7.085  0.00  0.00    -0.275 N 
ATOM      6  C   LIG    1        3.237  -1.412   7.311  0.00  0.00    +0.268 A 
ATOM      7  C   LIG    1        2.569  -0.808   6.151  0.00  0.00    +0.081 A 
ATOM      8  S   LIG    1        3.520  -1.503   4.808  0.00  0.00    -0.046 S 
ATOM      9  C   LIG    1        1.512   0.044   6.109  0.00  0.00    +0.028 C 
ATOM     10  O   LIG    1        2.861  -1.175   8.445  0.00  0.00    -0.266 OA
ATOM     11  C   LIG    1        4.659  -2.463   5.785  0.00  0.00    +0.178 A 
ATOM     12  N   LIG    1        5.654  -3.243   5.444  0.00  0.00    -0.228 NA
ENDROOT
BRANCH   4  13
ATOM     13  C   LIG    1        4.134  -3.789   8.935  0.00  0.00    -0.020 A 
ATOM     14  C   LIG    1        3.110  -4.475   8.309  0.00  0.00    +0.007 A 
ATOM     15  C   LIG    1        2.251  -5.263   9.051  0.00  0.00    +0.020 A 
ATOM     16  C   LIG    1        2.409  -5.357  10.422  0.00  0.00    +0.041 A 
ATOM     17 CL   LIG    1        1.326  -6.341  11.355  0.00  0.00    -0.084 Cl
ATOM     18  C   LIG    1        3.430  -4.666  11.049  0.00  0.00    +0.020 A 
ATOM     19  C   LIG    1        4.293  -3.882  10.306  0.00  0.00    +0.007 A 
ENDBRANCH   4  13
BRANCH   9  20
ATOM     20  C   LIG    1        0.901   0.394   4.821  0.00  0.00    -0.024 A 
ATOM     21  C   LIG    1        1.146  -0.395   3.690  0.00  0.00    +0.011 A 
ATOM     22  C   LIG    1        0.571  -0.061   2.484  0.00  0.00    +0.046 A 
ATOM     23  C   LIG    1       -0.252   1.055   2.389  0.00  0.00    +0.121 A 
ATOM     24  C   LIG    1       -0.494   1.844   3.507  0.00  0.00    +0.046 A 
ATOM     25  C   LIG    1        0.071   1.517   4.719  0.00  0.00    +0.011 A 
BRANCH  23  26
ATOM     26  O   LIG    1       -0.816   1.380   1.197  0.00  0.00    -0.481 OA
BRANCH  26  27
ATOM     27  C   LIG    1       -1.651   2.539   1.169  0.00  0.00    +0.349 C 
BRANCH  27  28
ATOM     28  C   LIG    1       -2.184   2.740  -0.226  0.00  0.00    +0.343 C 
ATOM     29  O   LIG    1       -1.881   1.970  -1.106  0.00  0.00    -0.247 OA
BRANCH  28  30
ATOM     30  O   LIG    1       -2.996   3.775  -0.491  0.00  0.00    -0.478 OA
ATOM     31  H   LIG    1       -3.232   4.373   0.191  0.00  0.00    +0.295 HD
ENDBRANCH  28  30
ENDBRANCH  27  28
ENDBRANCH  26  27
ENDBRANCH  23  26
ENDBRANCH   9  20
BRANCH   3  32
ATOM     32  C   LIG    1        7.012  -4.517   8.556  0.00  0.00    +0.339 C 
ATOM     33  O   LIG    1        7.918  -5.222   8.150  0.00  0.00    -0.245 OA
BRANCH  32  34
ATOM     34  O   LIG    1        6.782  -4.410   9.883  0.00  0.00    -0.459 OA
BRANCH  34  35
ATOM     35  C   LIG    1        7.641  -5.152  10.752  0.00  0.00    +0.171 C 
ATOM     36  C   LIG    1        6.875  -5.537  12.019  0.00  0.00    +0.052 C 
ATOM     37  C   LIG    1        8.850  -4.293  11.128  0.00  0.00    +0.052 C 
ENDBRANCH  34  35
ENDBRANCH  32  34
ENDBRANCH   3  32
TORSDOF 9
