REMARK  Name = ZINC01699466
REMARK                            x       y       z     vdW  Elec       q    Type
REMARK                         _______ _______ _______ _____ _____    ______ ____
ROOT
ATOM      1  C   LIG    1        1.254  -2.157  -0.021  0.00  0.00    +0.233 C 
ATOM      2  O   LIG    1        0.581  -2.088  -1.029  0.00  0.00    -0.283 OA
ENDROOT
BRANCH   1   9
ATOM      3  C   LIG    1       -0.487  -0.940   1.279  0.00  0.00    +0.013 A 
ATOM      4  C   LIG    1       -0.968  -0.445   2.471  0.00  0.00    +0.016 A 
ATOM      5  C   LIG    1       -0.246  -0.624   3.641  0.00  0.00    +0.018 A 
ATOM      6 BR   LIG    1       -0.915   0.060   5.273  0.00  0.00    -0.050 Br
ATOM      7  C   LIG    1        0.962  -1.301   3.621  0.00  0.00    +0.016 A 
ATOM      8  C   LIG    1        1.456  -1.802   2.436  0.00  0.00    +0.013 A 
ATOM      9  C   LIG    1        0.733  -1.625   1.250  0.00  0.00    +0.026 A 
ENDBRANCH   1   9
BRANCH   1  10
ATOM     10  C   LIG    1        2.607  -2.781  -0.070  0.00  0.00    +0.233 C 
ATOM     11  O   LIG    1        3.599  -2.082  -0.042  0.00  0.00    -0.283 OA
BRANCH  10  12
ATOM     12  C   LIG    1        2.741  -4.246  -0.151  0.00  0.00    +0.026 A 
ATOM     13  C   LIG    1        1.603  -5.050  -0.284  0.00  0.00    +0.013 A 
ATOM     14  C   LIG    1        1.736  -6.419  -0.366  0.00  0.00    +0.016 A 
ATOM     15  C   LIG    1        2.992  -7.001  -0.306  0.00  0.00    +0.018 A 
ATOM     16 BR   LIG    1        3.164  -8.881  -0.412  0.00  0.00    -0.050 Br
ATOM     17  C   LIG    1        4.123  -6.212  -0.168  0.00  0.00    +0.016 A 
ATOM     18  C   LIG    1        4.006  -4.841  -0.091  0.00  0.00    +0.013 A 
ENDBRANCH  10  12
ENDBRANCH   1  10
TORSDOF 3
