REMARK  Name = ZINC01712658
REMARK                            x       y       z     vdW  Elec       q    Type
REMARK                         _______ _______ _______ _____ _____    ______ ____
ROOT
ATOM      1  N   LIG    1        0.047  -0.015   2.418  0.00  0.00    -0.278 N 
ATOM      2  H   LIG    1        0.097   0.954   2.426  0.00  0.00    +0.155 HD
ATOM      3  C   LIG    1       -0.040  -0.695   3.578  0.00  0.00    +0.303 C 
ATOM      4  O   LIG    1       -0.019  -1.909   3.573  0.00  0.00    -0.265 OA
ENDROOT
BRANCH   1  11
ATOM      5  C   LIG    1       -1.232   1.181   0.175  0.00  0.00    +0.045 C 
ATOM      6  C   LIG    1       -0.546  -0.158   0.082  0.00  0.00    -0.029 A 
ATOM      7  C   LIG    1       -0.521  -0.840  -1.118  0.00  0.00    +0.005 A 
ATOM      8  C   LIG    1        0.108  -2.068  -1.204  0.00  0.00    +0.000 A 
ATOM      9  C   LIG    1        0.714  -2.618  -0.089  0.00  0.00    +0.002 A 
ATOM     10  C   LIG    1        0.693  -1.942   1.114  0.00  0.00    +0.023 A 
ATOM     11  C   LIG    1        0.066  -0.705   1.203  0.00  0.00    +0.037 A 
ENDBRANCH   1  11
BRANCH   3  12
ATOM     12  C   LIG    1       -0.161   0.044   4.869  0.00  0.00    +0.303 C 
ATOM     13  N   LIG    1       -0.248  -0.636   6.029  0.00  0.00    -0.278 N 
ATOM     14  H   LIG    1       -0.166  -1.603   6.032  0.00  0.00    +0.155 HD
ATOM     15  O   LIG    1       -0.181   1.258   4.874  0.00  0.00    -0.265 OA
BRANCH  13  16
ATOM     16  C   LIG    1       -0.456   0.050   7.228  0.00  0.00    +0.037 A 
ATOM     17  C   LIG    1        0.106   1.307   7.418  0.00  0.00    +0.023 A 
ATOM     18  C   LIG    1       -0.102   1.983   8.603  0.00  0.00    +0.002 A 
ATOM     19  C   LIG    1       -0.869   1.411   9.602  0.00  0.00    +0.000 A 
ATOM     20  C   LIG    1       -1.430   0.161   9.417  0.00  0.00    +0.005 A 
ATOM     21  C   LIG    1       -1.230  -0.519   8.231  0.00  0.00    -0.029 A 
ATOM     22  C   LIG    1       -1.847  -1.879   8.028  0.00  0.00    +0.045 C 
ENDBRANCH  13  16
ENDBRANCH   3  12
TORSDOF 3
