REMARK  Name = ZINC02146508
REMARK                            x       y       z     vdW  Elec       q    Type
REMARK                         _______ _______ _______ _____ _____    ______ ____
ROOT
ATOM      1  C   LIG    1       -7.572   5.233   0.067  0.00  0.00    +0.189 A 
ATOM      2  N   LIG    1       -6.250   5.296   0.060  0.00  0.00    -0.125 NA
ATOM      3  N   LIG    1       -5.531   4.260   0.051  0.00  0.00    -0.133 NA
ATOM      4  C   LIG    1       -6.056   3.043   0.048  0.00  0.00    +0.166 A 
ATOM      5  S   LIG    1       -7.798   3.457   0.052  0.00  0.00    -0.024 S 
ENDROOT
BRANCH   1   7
ATOM      6  C   LIG    1       -8.116   7.542   0.080  0.00  0.00    +0.250 C 
ATOM      7  N   LIG    1       -8.516   6.255   0.076  0.00  0.00    -0.259 N 
ATOM      8  H   LIG    1       -9.462   6.041   0.080  0.00  0.00    +0.157 HD
ATOM      9  O   LIG    1       -6.930   7.810   0.075  0.00  0.00    -0.270 OA
BRANCH   6  17
ATOM     10  C   LIG    1      -10.481   8.322   0.090  0.00  0.00    +0.014 A 
ATOM     11  C   LIG    1      -11.413   9.338   0.105  0.00  0.00    +0.022 A 
ATOM     12  C   LIG    1      -11.001  10.660   0.108  0.00  0.00    +0.059 A 
ATOM     13 CL   LIG    1      -12.180  11.934   0.120  0.00  0.00    -0.082 Cl
ATOM     14  C   LIG    1       -9.649  10.970   0.103  0.00  0.00    +0.060 A 
ATOM     15 CL   LIG    1       -9.141  12.630   0.109  0.00  0.00    -0.082 Cl
ATOM     16  C   LIG    1       -8.708   9.961   0.094  0.00  0.00    +0.034 A 
ATOM     17  C   LIG    1       -9.119   8.627   0.090  0.00  0.00    +0.039 A 
ENDBRANCH   6  17
ENDBRANCH   1   7
BRANCH   4  18
ATOM     18  S   LIG    1       -5.265   1.469   0.037  0.00  0.00    -0.034 S 
BRANCH  18  19
ATOM     19  C   LIG    1       -3.577   1.974   0.030  0.00  0.00    +0.142 A 
ATOM     20  N   LIG    1       -2.494   1.230   0.021  0.00  0.00    -0.232 NA
ATOM     21  C   LIG    1       -1.251   1.758   0.018  0.00  0.00    +0.081 A 
ATOM     22  C   LIG    1       -0.013   1.076   0.008  0.00  0.00    +0.049 A 
ATOM     23  C   LIG    1        1.170   1.770   0.000  0.00  0.00    +0.043 A 
ATOM     24 CL   LIG    1        2.669   0.894  -0.018  0.00  0.00    -0.083 Cl
ATOM     25  C   LIG    1        1.196   3.158   0.007  0.00  0.00    +0.021 A 
ATOM     26  C   LIG    1        0.002   3.857   0.021  0.00  0.00    +0.018 A 
ATOM     27  C   LIG    1       -1.186   3.170   0.029  0.00  0.00    +0.040 A 
ATOM     28  S   LIG    1       -2.902   3.629   0.048  0.00  0.00    -0.061 S 
ENDBRANCH  18  19
ENDBRANCH   4  18
TORSDOF 4
