REMARK  Name = ZINC01733926
REMARK                            x       y       z     vdW  Elec       q    Type
REMARK                         _______ _______ _______ _____ _____    ______ ____
ROOT
ATOM      1  C   LIG    1       -0.017   1.378   0.010  0.00  0.00    +0.000 A 
ATOM      2  C   LIG    1        1.171   2.086   0.002  0.00  0.00    +0.000 A 
ATOM      3  C   LIG    1        2.377   1.411  -0.013  0.00  0.00    +0.005 A 
ATOM      4  C   LIG    1        2.396   0.029  -0.020  0.00  0.00    -0.026 A 
ATOM      5  C   LIG    1        1.208  -0.679  -0.012  0.00  0.00    +0.005 A 
ATOM      6  C   LIG    1        0.002  -0.004   0.002  0.00  0.00    +0.000 A 
ENDROOT
BRANCH   4   7
ATOM      7  C   LIG    1        3.711  -0.707  -0.038  0.00  0.00    +0.180 C 
BRANCH   7   8
ATOM      8  N   LIG    1        4.152  -0.952   1.338  0.00  0.00    -0.253 NA
ATOM      9  C   LIG    1        4.238  -2.161   1.782  0.00  0.00    +0.293 C 
BRANCH   9  10
ATOM     10  O   LIG    1        4.644  -2.387   3.049  0.00  0.00    -0.498 OA
ATOM     11  H   LIG    1        4.678  -3.323   3.290  0.00  0.00    +0.293 HD
ENDBRANCH   9  10
ENDBRANCH   7   8
ENDBRANCH   4   7
TORSDOF 3
