REMARK  Name = ZINC02207043
REMARK                            x       y       z     vdW  Elec       q    Type
REMARK                         _______ _______ _______ _____ _____    ______ ____
ROOT
ATOM      1  C   LIG    1       -0.695   1.545  -1.718  0.00  0.00    +0.074 C 
ATOM      2  C   LIG    1       -0.645   2.872  -2.006  0.00  0.00    +0.050 C 
ATOM      3  N   LIG    1        0.245   3.699  -1.359  0.00  0.00    -0.308 N 
ATOM      4  H   LIG    1        0.095   4.788  -1.375  0.00  0.00    +0.153 HD
ATOM      5  C   LIG    1        1.324   3.164  -0.692  0.00  0.00    +0.080 C 
ATOM      6  C   LIG    1        1.348   1.848  -0.355  0.00  0.00    +0.072 C 
ATOM      7  C   LIG    1        0.205   0.931  -0.683  0.00  0.00    +0.136 C 
ENDROOT
BRANCH   2   8
ATOM      8  C   LIG    1       -1.556   3.432  -3.025  0.00  0.00    -0.003 A 
ATOM      9  C   LIG    1       -1.044   3.933  -4.224  0.00  0.00    +0.010 A 
ATOM     10  C   LIG    1       -1.901   4.450  -5.173  0.00  0.00    +0.001 A 
ATOM     11  C   LIG    1       -3.264   4.484  -4.934  0.00  0.00    +0.000 A 
ATOM     12  C   LIG    1       -3.777   3.995  -3.746  0.00  0.00    +0.001 A 
ATOM     13  C   LIG    1       -2.932   3.470  -2.790  0.00  0.00    +0.010 A 
ENDBRANCH   2   8
BRANCH   7  14
ATOM     14  C   LIG    1       -0.591   0.665   0.568  0.00  0.00    +0.118 A 
ATOM     15  C   LIG    1       -0.790  -0.540   1.133  0.00  0.00    +0.045 A 
ATOM     16  C   LIG    1       -1.587  -0.329   2.280  0.00  0.00    +0.041 A 
ATOM     17  C   LIG    1       -1.829   0.993   2.349  0.00  0.00    +0.195 A 
ATOM     18  O   LIG    1       -1.218   1.590   1.313  0.00  0.00    -0.467 OA
ENDBRANCH   7  14
BRANCH   1  19
ATOM     19  C   LIG    1       -1.610   0.726  -2.405  0.00  0.00    +0.338 C 
ATOM     20  O   LIG    1       -2.260   1.181  -3.329  0.00  0.00    -0.245 OA
BRANCH  19  21
ATOM     21  O   LIG    1       -1.768  -0.565  -2.040  0.00  0.00    -0.462 OA
BRANCH  21  23
ATOM     22  C   LIG    1       -2.754  -2.763  -2.228  0.00  0.00    +0.048 C 
ATOM     23  C   LIG    1       -2.714  -1.337  -2.782  0.00  0.00    +0.229 C 
ENDBRANCH  21  23
ENDBRANCH  19  21
ENDBRANCH   1  19
BRANCH   6  24
ATOM     24  C   LIG    1        2.491   1.323   0.330  0.00  0.00    +0.098 C 
ATOM     25  N   LIG    1        3.398   0.906   0.873  0.00  0.00    -0.191 NA
ENDBRANCH   6  24
BRANCH   5  26
ATOM     26  S   LIG    1        2.688   4.197  -0.272  0.00  0.00    -0.100 S 
BRANCH  26  27
ATOM     27  C   LIG    1        2.109   5.773  -0.949  0.00  0.00    +0.171 C 
BRANCH  27  28
ATOM     28  C   LIG    1        3.146   6.838  -0.699  0.00  0.00    +0.227 C 
ATOM     29  N   LIG    1        2.930   8.101  -1.119  0.00  0.00    -0.285 N 
ATOM     30  H   LIG    1        2.032   8.338  -1.708  0.00  0.00    +0.155 HD
ATOM     31  O   LIG    1        4.175   6.559  -0.120  0.00  0.00    -0.275 OA
BRANCH  29  32
ATOM     32  C   LIG    1        3.847   9.109  -0.804  0.00  0.00    +0.033 A 
ATOM     33  C   LIG    1        3.402  10.399  -0.547  0.00  0.00    +0.023 A 
ATOM     34  C   LIG    1        4.309  11.391  -0.231  0.00  0.00    +0.005 A 
ATOM     35  C   LIG    1        5.661  11.104  -0.182  0.00  0.00    -0.050 A 
ATOM     36  C   LIG    1        6.649  12.190   0.156  0.00  0.00    +0.044 C 
ATOM     37  C   LIG    1        6.108   9.822  -0.444  0.00  0.00    +0.005 A 
ATOM     38  C   LIG    1        5.205   8.824  -0.754  0.00  0.00    +0.023 A 
ENDBRANCH  29  32
ENDBRANCH  27  28
ENDBRANCH  26  27
ENDBRANCH   5  26
TORSDOF 10
