REMARK  Name = ZINC01847418
REMARK                            x       y       z     vdW  Elec       q    Type
REMARK                         _______ _______ _______ _____ _____    ______ ____
ROOT
ATOM      1  C   LIG    1       -0.016   1.357   0.009  0.00  0.00    +0.002 A 
ATOM      2  C   LIG    1        1.156   2.100   0.002  0.00  0.00    +0.001 A 
ATOM      3  C   LIG    1        2.375   1.449  -0.013  0.00  0.00    +0.017 A 
ATOM      4  C   LIG    1        2.404   0.076  -0.021  0.00  0.00    +0.041 A 
ATOM      5  C   LIG    1        1.226  -0.705  -0.013  0.00  0.00    +0.080 A 
ATOM      6  N   LIG    1        1.464  -2.033  -0.023  0.00  0.00    -0.221 NA
ATOM      7  C   LIG    1        2.669  -2.521  -0.038  0.00  0.00    +0.233 A 
ATOM      8  S   LIG    1        3.669  -1.167  -0.040  0.00  0.00    -0.047 S 
ATOM      9  C   LIG    1        0.002  -0.004   0.002  0.00  0.00    +0.029 A 
ENDROOT
BRANCH   7  10
ATOM     10  S   LIG    1        3.147  -4.217  -0.052  0.00  0.00    +0.080 S 
ATOM     11  O   LIG    1        2.191  -4.902  -0.849  0.00  0.00    -0.151 OA
ATOM     12  O   LIG    1        3.411  -4.576   1.298  0.00  0.00    -0.151 OA
BRANCH  10  13
ATOM     13  N   LIG    1        4.591  -4.312  -0.857  0.00  0.00    -0.202 NA
ATOM     14  H   LIG    1        4.798  -3.675  -1.559  0.00  0.00    +0.144 HD
ATOM     15  H   LIG    1        5.230  -5.005  -0.628  0.00  0.00    +0.144 HD
ENDBRANCH  10  13
ENDBRANCH   7  10
TORSDOF 2
