REMARK  Name = ZINC01672966
REMARK                            x       y       z     vdW  Elec       q    Type
REMARK                         _______ _______ _______ _____ _____    ______ ____
ROOT
ATOM      1  C   LIG    1        3.694  -0.680  -0.037  0.00  0.00    +0.233 C 
ATOM      2  O   LIG    1        3.296  -1.216  -1.050  0.00  0.00    -0.283 OA
ENDROOT
BRANCH   1   6
ATOM      3  C   LIG    1        1.615  -1.247   3.620  0.00  0.00    +0.000 A 
ATOM      4  C   LIG    1        2.806  -0.542   3.608  0.00  0.00    +0.001 A 
ATOM      5  C   LIG    1        3.488  -0.354   2.424  0.00  0.00    +0.012 A 
ATOM      6  C   LIG    1        2.972  -0.878   1.234  0.00  0.00    +0.026 A 
ATOM      7  C   LIG    1        1.767  -1.589   1.254  0.00  0.00    +0.012 A 
ATOM      8  C   LIG    1        1.098  -1.768   2.446  0.00  0.00    +0.001 A 
ENDBRANCH   1   6
BRANCH   1   9
ATOM      9  C   LIG    1        4.913   0.177  -0.076  0.00  0.00    +0.233 C 
ATOM     10  O   LIG    1        4.807   1.386  -0.035  0.00  0.00    -0.283 OA
BRANCH   9  11
ATOM     11  C   LIG    1        6.248  -0.443  -0.165  0.00  0.00    +0.026 A 
ATOM     12  C   LIG    1        6.371  -1.828  -0.312  0.00  0.00    +0.012 A 
ATOM     13  C   LIG    1        7.623  -2.400  -0.400  0.00  0.00    +0.001 A 
ATOM     14  C   LIG    1        8.756  -1.607  -0.331  0.00  0.00    +0.000 A 
ATOM     15  C   LIG    1        8.642  -0.236  -0.179  0.00  0.00    +0.001 A 
ATOM     16  C   LIG    1        7.398   0.351  -0.096  0.00  0.00    +0.012 A 
ENDBRANCH   9  11
ENDBRANCH   1   9
TORSDOF 3
