REMARK  Name = ZINC01702514
REMARK                            x       y       z     vdW  Elec       q    Type
REMARK                         _______ _______ _______ _____ _____    ______ ____
ROOT
ATOM      1  C   LIG    1        0.000   1.080   2.488  0.00  0.00    -0.031 A 
ATOM      2  C   LIG    1       -0.409  -0.080   3.118  0.00  0.00    +0.053 A 
ATOM      3  C   LIG    1        0.247  -0.566   4.242  0.00  0.00    +0.163 A 
ATOM      4  C   LIG    1        1.340   0.121   4.771  0.00  0.00    +0.182 A 
ATOM      5  C   LIG    1        1.747   1.292   4.138  0.00  0.00    +0.047 A 
ATOM      6  C   LIG    1        2.893   2.052   4.657  0.00  0.00    +0.047 A 
ATOM      7  C   LIG    1        3.554   1.558   5.800  0.00  0.00    +0.071 A 
ATOM      8  C   LIG    1        3.053   0.315   6.399  0.00  0.00    +0.345 A 
ATOM      9  O   LIG    1        3.598  -0.141   7.387  0.00  0.00    -0.245 OA
ATOM     10  C   LIG    1        4.643   2.264   6.306  0.00  0.00    +0.019 A 
ATOM     11  C   LIG    1        5.048   3.425   5.679  0.00  0.00    +0.050 A 
ATOM     12  C   LIG    1        4.395   3.910   4.551  0.00  0.00    +0.163 A 
ATOM     13  C   LIG    1        3.302   3.223   4.023  0.00  0.00    +0.182 A 
ATOM     14  O   LIG    1        2.647   3.670   2.927  0.00  0.00    -0.418 OA
ATOM     15  C   LIG    1        1.589   3.029   2.394  0.00  0.00    +0.346 A 
ATOM     16  O   LIG    1        1.044   3.484   1.407  0.00  0.00    -0.244 OA
ATOM     17  O   LIG    1        1.995  -0.327   5.867  0.00  0.00    -0.418 OA
ATOM     18  C   LIG    1        1.087   1.786   2.994  0.00  0.00    +0.074 A 
ENDROOT
BRANCH   3  19
ATOM     19  O   LIG    1       -0.181  -1.712   4.832  0.00  0.00    -0.491 OA
ATOM     20  C   LIG    1       -1.305  -2.366   4.239  0.00  0.00    +0.277 C 
ENDBRANCH   3  19
BRANCH  12  21
ATOM     21  O   LIG    1        4.822   5.056   3.962  0.00  0.00    -0.491 OA
ATOM     22  C   LIG    1        5.947   5.709   4.553  0.00  0.00    +0.277 C 
ENDBRANCH  12  21
BRANCH   1  23
ATOM     23  C   LIG    1       -0.729   1.579   1.267  0.00  0.00    +0.017 C 
BRANCH  23  24
ATOM     24  C   LIG    1       -0.013   1.086   0.008  0.00  0.00    -0.075 C 
BRANCH  24  26
ATOM     25  C   LIG    1       -0.640   3.036  -1.283  0.00  0.00    -0.097 C 
ATOM     26  N   LIG    1       -0.751   1.565  -1.179  0.00  0.00    +0.376 N 
ATOM     27  H   LIG    1       -1.741   1.312  -1.081  0.00  0.00    -0.083 HD
ATOM     28  C   LIG    1       -0.211   0.930  -2.400  0.00  0.00    -0.097 C 
ENDBRANCH  24  26
ENDBRANCH  23  24
ENDBRANCH   1  23
TORSDOF 5
