REMARK  Name = ZINC02190602
REMARK                            x       y       z     vdW  Elec       q    Type
REMARK                         _______ _______ _______ _____ _____    ______ ____
ROOT
ATOM      1  C   LIG    1       -2.649   0.845   0.011  0.00  0.00    +0.198 C 
ATOM      2  N   LIG    1       -2.475  -0.344  -0.831  0.00  0.00    -0.321 N 
ATOM      3  H   LIG    1       -2.546  -1.234  -0.451  0.00  0.00    +0.148 HD
ATOM      4  C   LIG    1       -2.207  -0.172  -2.184  0.00  0.00    +0.041 A 
ATOM      5  C   LIG    1       -1.488  -1.107  -2.910  0.00  0.00    +0.024 A 
ATOM      6  C   LIG    1       -1.271  -0.905  -4.260  0.00  0.00    +0.002 A 
ATOM      7  C   LIG    1       -1.769   0.223  -4.893  0.00  0.00    +0.001 A 
ATOM      8  C   LIG    1       -2.483   1.166  -4.183  0.00  0.00    +0.015 A 
ATOM      9  C   LIG    1       -2.698   0.982  -2.820  0.00  0.00    +0.058 A 
ATOM     10  C   LIG    1       -3.450   1.962  -2.016  0.00  0.00    +0.254 C 
ATOM     11  O   LIG    1       -4.038   2.878  -2.558  0.00  0.00    -0.270 OA
ATOM     12  N   LIG    1       -3.481   1.834  -0.674  0.00  0.00    -0.244 N 
ENDROOT
BRANCH   1  16
ATOM     13  C   LIG    1        1.178   2.554   0.848  0.00  0.00    +0.120 A 
ATOM     14  C   LIG    1        1.060   1.189   0.625  0.00  0.00    +0.046 A 
ATOM     15  C   LIG    1       -0.179   0.639   0.359  0.00  0.00    +0.010 A 
ATOM     16  C   LIG    1       -1.300   1.447   0.308  0.00  0.00    -0.009 A 
ATOM     17  C   LIG    1       -1.185   2.806   0.535  0.00  0.00    +0.010 A 
ATOM     18  C   LIG    1        0.051   3.362   0.802  0.00  0.00    +0.046 A 
BRANCH  13  20
ATOM     19  C   LIG    1        2.442   4.509   1.328  0.00  0.00    +0.277 C 
ATOM     20  O   LIG    1        2.395   3.098   1.109  0.00  0.00    -0.495 OA
ENDBRANCH  13  20
ENDBRANCH   1  16
BRANCH  12  21
ATOM     21  C   LIG    1       -4.324   2.663   0.077  0.00  0.00    +0.039 A 
ATOM     22  C   LIG    1       -5.228   3.498  -0.565  0.00  0.00    +0.027 A 
ATOM     23  C   LIG    1       -6.063   4.311   0.176  0.00  0.00    +0.048 A 
ATOM     24  C   LIG    1       -5.990   4.301   1.561  0.00  0.00    +0.129 A 
ATOM     25  C   LIG    1       -5.082   3.471   2.203  0.00  0.00    +0.048 A 
ATOM     26  C   LIG    1       -4.251   2.654   1.463  0.00  0.00    +0.027 A 
BRANCH  24  27
ATOM     27  O   LIG    1       -6.809   5.105   2.290  0.00  0.00    -0.456 OA
BRANCH  27  28
ATOM     28  C   LIG    1       -7.758   5.817   1.628  0.00  0.00    +0.128 A 
ATOM     29  C   LIG    1       -7.584   7.177   1.415  0.00  0.00    +0.046 A 
ATOM     30  C   LIG    1       -8.549   7.898   0.737  0.00  0.00    +0.004 A 
ATOM     31  C   LIG    1       -9.692   7.267   0.282  0.00  0.00    +0.000 A 
ATOM     32  C   LIG    1       -9.870   5.913   0.498  0.00  0.00    +0.004 A 
ATOM     33  C   LIG    1       -8.907   5.187   1.170  0.00  0.00    +0.046 A 
ENDBRANCH  27  28
ENDBRANCH  24  27
ENDBRANCH  12  21
TORSDOF 5
