REMARK  Name = ZINC01764195
REMARK                            x       y       z     vdW  Elec       q    Type
REMARK                         _______ _______ _______ _____ _____    ______ ____
ROOT
ATOM      1  C   LIG    1       -0.018   1.461   0.010  0.00  0.00    +0.150 C 
ATOM      2  N   LIG    1        0.002  -0.004   0.002  0.00  0.00    -0.328 N 
ATOM      3  C   LIG    1        0.009  -0.800  -1.085  0.00  0.00    +0.202 A 
ATOM      4  N   LIG    1        0.028  -2.054  -0.714  0.00  0.00    -0.218 NA
ATOM      5  C   LIG    1        0.034  -2.132   0.619  0.00  0.00    +0.168 A 
ATOM      6  N   LIG    1        0.053  -3.184   1.520  0.00  0.00    -0.280 N 
ATOM      7  C   LIG    1        0.069  -4.565   1.032  0.00  0.00    +0.155 C 
ATOM      8  C   LIG    1        0.069  -2.939   2.844  0.00  0.00    +0.334 A 
ATOM      9  O   LIG    1        0.089  -3.876   3.620  0.00  0.00    -0.246 OA
ATOM     10  N   LIG    1        0.056  -1.686   3.330  0.00  0.00    -0.247 N 
ATOM     11  C   LIG    1        0.034  -0.620   2.503  0.00  0.00    +0.283 A 
ATOM     12  O   LIG    1        0.022   0.511   2.955  0.00  0.00    -0.265 OA
ATOM     13  C   LIG    1        0.024  -0.831   1.107  0.00  0.00    +0.151 A 
ENDROOT
BRANCH  10  14
ATOM     14  C   LIG    1        0.067  -1.474   4.779  0.00  0.00    +0.218 C 
BRANCH  14  15
ATOM     15  C   LIG    1       -1.317  -1.422   5.278  0.00  0.00    -0.084 C 
ATOM     16  C   LIG    1       -2.420  -1.381   5.676  0.00  0.00    +0.005 C 
ENDBRANCH  14  15
ENDBRANCH  10  14
TORSDOF 2
