REMARK  Name = ZINC01688380
REMARK                            x       y       z     vdW  Elec       q    Type
REMARK                         _______ _______ _______ _____ _____    ______ ____
ROOT
ATOM      1  N   LIG    1        0.002  -0.004   0.002  0.00  0.00    -0.324 N 
ATOM      2  H   LIG    1        0.849  -0.478  -0.009  0.00  0.00    +0.148 HD
ENDROOT
BRANCH   1   6
ATOM      3  C   LIG    1       -0.054   4.159   0.024  0.00  0.00    +0.000 A 
ATOM      4  C   LIG    1        1.153   3.486   0.009  0.00  0.00    +0.002 A 
ATOM      5  C   LIG    1        1.176   2.105   0.002  0.00  0.00    +0.023 A 
ATOM      6  C   LIG    1       -0.017   1.393   0.010  0.00  0.00    +0.028 A 
ATOM      7  C   LIG    1       -1.228   2.072   0.019  0.00  0.00    +0.023 A 
ATOM      8  C   LIG    1       -1.243   3.453   0.031  0.00  0.00    +0.002 A 
ENDBRANCH   1   6
BRANCH   1   9
ATOM      9  C   LIG    1       -1.256  -0.754   0.010  0.00  0.00    +0.302 C 
BRANCH   9  10
ATOM     10  S   LIG    1       -1.716  -1.182  -1.692  0.00  0.00    +0.096 S 
ATOM     11  O   LIG    1       -0.794  -2.123  -2.225  0.00  0.00    -0.146 OA
ATOM     12  O   LIG    1       -2.055  -0.008  -2.417  0.00  0.00    -0.146 OA
BRANCH  10  13
ATOM     13  O   LIG    1       -3.024  -1.950  -1.562  0.00  0.00    -0.253 OA
ATOM     14  H   LIG    1       -3.708  -1.365  -1.200  0.00  0.00    +0.245 HD
ENDBRANCH  10  13
ENDBRANCH   9  10
ENDBRANCH   1   9
TORSDOF 4
