REMARK  Name = ZINC02016053
REMARK                            x       y       z     vdW  Elec       q    Type
REMARK                         _______ _______ _______ _____ _____    ______ ____
ROOT
ATOM      1  C   LIG    1       -1.103   4.145  -1.407  0.00  0.00    +0.029 C 
ATOM      2  C   LIG    1       -1.214   3.626   0.028  0.00  0.00    +0.137 C 
ENDROOT
BRANCH   2   3
ATOM      3  C   LIG    1       -1.194   2.119   0.019  0.00  0.00    +0.227 C 
ATOM      4  N   LIG    1       -0.018   1.461   0.010  0.00  0.00    -0.304 N 
ATOM      5  H   LIG    1        0.816   1.957   0.005  0.00  0.00    +0.149 HD
ATOM      6  O   LIG    1       -2.236   1.498   0.021  0.00  0.00    -0.275 OA
BRANCH   4   7
ATOM      7  C   LIG    1        0.002  -0.004   0.002  0.00  0.00    +0.151 C 
ATOM      8  C   LIG    1        1.313  -0.478  -0.624  0.00  0.00    +0.042 C 
ATOM      9  C   LIG    1        1.608  -1.914  -0.130  0.00  0.00    +0.079 C 
ATOM     10  S   LIG    1        0.851  -1.896   1.537  0.00  0.00    -0.086 S 
ATOM     11  C   LIG    1       -0.173  -0.504   1.418  0.00  0.00    +0.209 C 
ATOM     12  O   LIG    1       -0.880  -0.033   2.284  0.00  0.00    -0.283 OA
ENDBRANCH   4   7
ENDBRANCH   2   3
BRANCH   2  13
ATOM     13  S   LIG    1       -2.766   4.204   0.759  0.00  0.00    -0.070 S 
BRANCH  13  14
ATOM     14  C   LIG    1       -2.464   5.940   0.783  0.00  0.00    +0.227 C 
ATOM     15  O   LIG    1       -1.411   6.381   0.360  0.00  0.00    -0.279 OA
BRANCH  14  16
ATOM     16  C   LIG    1       -3.482   6.853   1.311  0.00  0.00    +0.066 A 
ATOM     17  C   LIG    1       -3.445   8.235   1.418  0.00  0.00    +0.020 A 
ATOM     18  C   LIG    1       -4.548   8.850   1.957  0.00  0.00    +0.008 A 
ATOM     19  C   LIG    1       -5.604   8.091   2.352  0.00  0.00    +0.046 A 
ATOM     20  S   LIG    1       -5.095   6.477   1.975  0.00  0.00    -0.093 S 
ENDBRANCH  14  16
ENDBRANCH  13  14
ENDBRANCH   2  13
TORSDOF 5
