REMARK  Name = ZINC01889710
REMARK                            x       y       z     vdW  Elec       q    Type
REMARK                         _______ _______ _______ _____ _____    ______ ____
ROOT
ATOM      1  C   LIG    1        5.177  -0.192   0.325  0.00  0.00    -0.028 A 
ATOM      2  C   LIG    1        5.057   1.136  -0.040  0.00  0.00    +0.007 A 
ATOM      3  C   LIG    1        3.818   1.746  -0.039  0.00  0.00    +0.023 A 
ATOM      4  C   LIG    1        2.691   1.022   0.329  0.00  0.00    +0.034 A 
ATOM      5  C   LIG    1        2.815  -0.310   0.699  0.00  0.00    +0.023 A 
ATOM      6  C   LIG    1        4.056  -0.915   0.691  0.00  0.00    +0.007 A 
ENDROOT
BRANCH   4   7
ATOM      7  N   LIG    1        1.434   1.637   0.331  0.00  0.00    -0.281 N 
ATOM      8  H   LIG    1        1.356   2.580   0.543  0.00  0.00    +0.155 HD
ATOM      9  C   LIG    1        0.332   0.917   0.040  0.00  0.00    +0.249 C 
ATOM     10  O   LIG    1        0.438  -0.241  -0.313  0.00  0.00    -0.270 OA
BRANCH   9  11
ATOM     11  C   LIG    1       -1.006   1.540   0.143  0.00  0.00    +0.051 A 
ATOM     12  C   LIG    1       -1.296   2.700  -0.570  0.00  0.00    +0.014 A 
ATOM     13  C   LIG    1       -2.549   3.275  -0.474  0.00  0.00    +0.001 A 
ATOM     14  C   LIG    1       -3.518   2.711   0.337  0.00  0.00    +0.001 A 
ATOM     15  C   LIG    1       -3.247   1.563   1.057  0.00  0.00    +0.016 A 
ATOM     16  C   LIG    1       -1.991   0.966   0.969  0.00  0.00    +0.071 A 
BRANCH  16  17
ATOM     17  C   LIG    1       -1.695  -0.261   1.737  0.00  0.00    +0.338 C 
ATOM     18  O   LIG    1       -0.572  -0.722   1.738  0.00  0.00    -0.245 OA
BRANCH  17  19
ATOM     19  O   LIG    1       -2.672  -0.869   2.437  0.00  0.00    -0.477 OA
ATOM     20  H   LIG    1       -3.540  -0.514   2.437  0.00  0.00    +0.295 HD
ENDBRANCH  17  19
ENDBRANCH  16  17
ENDBRANCH   9  11
ENDBRANCH   4   7
BRANCH   1  21
ATOM     21  C   LIG    1        6.531  -0.854   0.323  0.00  0.00    +0.158 C 
BRANCH  21  27
ATOM     22  C   LIG    1        6.944  -1.705   2.651  0.00  0.00    +0.112 A 
ATOM     23  N   LIG    1        7.608  -1.309   3.703  0.00  0.00    -0.221 NA
ATOM     24  C   LIG    1        8.204  -0.138   3.436  0.00  0.00    +0.151 A 
ATOM     25 CL   LIG    1        9.191   0.778   4.532  0.00  0.00    -0.060 Cl
ATOM     26  C   LIG    1        7.903   0.204   2.168  0.00  0.00    +0.068 A 
ATOM     27  N   LIG    1        7.106  -0.793   1.669  0.00  0.00    -0.325 N 
BRANCH  22  28
ATOM     28  C   LIG    1        6.135  -2.971   2.549  0.00  0.00    +0.074 C 
BRANCH  28  29
ATOM     29  C   LIG    1        7.053  -4.136   2.173  0.00  0.00    +0.007 C 
BRANCH  29  31
ATOM     30  C   LIG    1        7.134  -6.560   1.573  0.00  0.00    +0.004 C 
ATOM     31  C   LIG    1        6.215  -5.396   1.949  0.00  0.00    -0.003 C 
ENDBRANCH  29  31
ENDBRANCH  28  29
ENDBRANCH  22  28
BRANCH  26  32
ATOM     32  C   LIG    1        8.355   1.443   1.439  0.00  0.00    +0.177 C 
BRANCH  32  33
ATOM     33  C   LIG    1        7.353   2.547   1.657  0.00  0.00    +0.313 C 
ATOM     34  O   LIG    1        6.372   2.348   2.335  0.00  0.00    -0.250 OA
BRANCH  33  35
ATOM     35  O   LIG    1        7.549   3.752   1.099  0.00  0.00    -0.468 OA
ATOM     36  C   LIG    1        6.543   4.768   1.351  0.00  0.00    +0.280 C 
ENDBRANCH  33  35
ENDBRANCH  32  33
ENDBRANCH  26  32
ENDBRANCH  21  27
ENDBRANCH   1  21
TORSDOF 12
