REMARK  Name = ZINC02169849
REMARK                            x       y       z     vdW  Elec       q    Type
REMARK                         _______ _______ _______ _____ _____    ______ ____
ROOT
ATOM      1  C   LIG    1        5.463   0.574   1.586  0.00  0.00    +0.150 A 
ATOM      2  C   LIG    1        5.962   0.550   2.900  0.00  0.00    +0.147 A 
ATOM      3  C   LIG    1        7.355   0.517   3.080  0.00  0.00    +0.167 A 
ATOM      4  N   LIG    1        7.561   0.499   4.436  0.00  0.00    -0.286 N 
ATOM      5  C   LIG    1        6.337   0.521   5.035  0.00  0.00    +0.203 A 
ATOM      6  N   LIG    1        8.145   0.509   2.010  0.00  0.00    -0.216 NA
ATOM      7  C   LIG    1        7.633   0.532   0.798  0.00  0.00    +0.225 A 
ATOM      8  N   LIG    1        5.401   0.551   4.133  0.00  0.00    -0.231 NA
ATOM      9  N   LIG    1        6.330   0.558   0.579  0.00  0.00    -0.219 NA
ENDROOT
BRANCH   4  10
ATOM     10  C1* LIG    1        8.859   0.464   5.115  0.00  0.00    +0.253 C 
ATOM     11  C2* LIG    1        9.408   1.895   5.301  0.00  0.00    +0.195 C 
ATOM     12  C3* LIG    1       10.094   1.858   6.685  0.00  0.00    +0.178 C 
ATOM     13  C4* LIG    1        9.877   0.408   7.172  0.00  0.00    +0.177 C 
ATOM     14  O4* LIG    1        8.710  -0.054   6.455  0.00  0.00    -0.346 OA
BRANCH  11  15
ATOM     15  O2* LIG    1       10.357   2.204   4.278  0.00  0.00    -0.385 OA
ATOM     16  H2* LIG    1       10.734   3.092   4.346  0.00  0.00    +0.210 HD
ENDBRANCH  11  15
BRANCH  12  17
ATOM     17  O3* LIG    1       11.488   2.144   6.561  0.00  0.00    -0.386 OA
ATOM     18  H3* LIG    1       11.968   2.134   7.401  0.00  0.00    +0.210 HD
ENDBRANCH  12  17
BRANCH  13  19
ATOM     19  C5* LIG    1        9.624   0.385   8.681  0.00  0.00    +0.190 C 
BRANCH  19  20
ATOM     20  O5* LIG    1        9.542  -0.970   9.129  0.00  0.00    -0.392 OA
ATOM     21  H5* LIG    1        9.382  -1.060  10.079  0.00  0.00    +0.210 HD
ENDBRANCH  19  20
ENDBRANCH  13  19
ENDBRANCH   4  10
BRANCH   1  22
ATOM     22  N   LIG    1        4.101   0.607   1.347  0.00  0.00    -0.320 N 
ATOM     23  H   LIG    1        3.478   0.617   2.090  0.00  0.00    +0.148 HD
BRANCH  22  24
ATOM     24  C   LIG    1        3.599   0.625  -0.029  0.00  0.00    +0.177 C 
BRANCH  24  27
ATOM     25  C   LIG    1       -0.016   1.341   0.009  0.00  0.00    +0.041 A 
ATOM     26  C   LIG    1        1.331   1.769  -0.001  0.00  0.00    +0.046 A 
ATOM     27  C   LIG    1        2.092   0.660  -0.014  0.00  0.00    +0.122 A 
ATOM     28  O   LIG    1        1.282  -0.411  -0.012  0.00  0.00    -0.466 OA
ATOM     29  C   LIG    1        0.002  -0.004   0.002  0.00  0.00    +0.195 A 
ENDBRANCH  24  27
ENDBRANCH  22  24
ENDBRANCH   1  22
TORSDOF 8
