REMARK  Name = ZINC01999561
REMARK                            x       y       z     vdW  Elec       q    Type
REMARK                         _______ _______ _______ _____ _____    ______ ____
ROOT
ATOM      1  C   LIG    1        0.535  -0.527   3.610  0.00  0.00    +0.121 A 
ATOM      2  C   LIG    1        1.726  -1.236   3.653  0.00  0.00    +0.046 A 
ATOM      3  C   LIG    1        2.260  -1.613   4.870  0.00  0.00    +0.007 A 
ATOM      4  C   LIG    1        1.602  -1.296   6.043  0.00  0.00    -0.046 A 
ATOM      5  C   LIG    1        0.411  -0.594   6.003  0.00  0.00    +0.007 A 
ATOM      6  C   LIG    1       -0.124  -0.209   4.789  0.00  0.00    +0.046 A 
ENDROOT
BRANCH   1   7
ATOM      7  O   LIG    1        0.010  -0.149   2.414  0.00  0.00    -0.489 OA
BRANCH   7   8
ATOM      8  C   LIG    1        0.742  -0.511   1.242  0.00  0.00    +0.258 C 
BRANCH   8   9
ATOM      9  C   LIG    1        0.002  -0.004   0.002  0.00  0.00    +0.135 C 
BRANCH   9  10
ATOM     10  O   LIG    1       -0.017   1.425   0.010  0.00  0.00    -0.390 OA
ATOM     11  H   LIG    1        0.861   1.830   0.004  0.00  0.00    +0.210 HD
ENDBRANCH   9  10
BRANCH   9  12
ATOM     12  C   LIG    1        0.718  -0.497  -1.257  0.00  0.00    -0.047 C 
BRANCH  12  13
ATOM     13  N   LIG    1       -0.001  -0.005  -2.447  0.00  0.00    +0.382 N 
ATOM     14  H   LIG    1       -0.015   1.022  -2.433  0.00  0.00    -0.085 HD
ATOM     15  H   LIG    1       -0.964  -0.360  -2.432  0.00  0.00    -0.085 HD
BRANCH  13  17
ATOM     16  C   LIG    1       -0.350  -0.507  -4.818  0.00  0.00    -0.014 C 
ATOM     17  C   LIG    1        0.668  -0.466  -3.677  0.00  0.00    -0.078 C 
ATOM     18  C   LIG    1        1.798   0.501  -4.037  0.00  0.00    -0.014 C 
ENDBRANCH  13  17
ENDBRANCH  12  13
ENDBRANCH   9  12
ENDBRANCH   8   9
ENDBRANCH   7   8
ENDBRANCH   1   7
BRANCH   4  19
ATOM     19  C   LIG    1        2.184  -1.714   7.369  0.00  0.00    +0.054 C 
BRANCH  19  20
ATOM     20  C   LIG    1        1.651  -3.098   7.746  0.00  0.00    +0.110 C 
BRANCH  20  21
ATOM     21  N   LIG    1        2.216  -3.505   9.034  0.00  0.00    -0.299 N 
ATOM     22  H   LIG    1        2.828  -2.917   9.503  0.00  0.00    +0.150 HD
ATOM     23  C   LIG    1        1.886  -4.698   9.569  0.00  0.00    +0.300 C 
ATOM     24  N   LIG    1        2.406  -5.072  10.754  0.00  0.00    -0.297 N 
ATOM     25  H   LIG    1        3.018  -4.484  11.223  0.00  0.00    +0.150 HD
ATOM     26  O   LIG    1        1.119  -5.436   8.981  0.00  0.00    -0.253 OA
BRANCH  24  27
ATOM     27  C   LIG    1        2.047  -6.368  11.335  0.00  0.00    +0.068 C 
ATOM     28  C   LIG    1        2.219  -6.312  12.854  0.00  0.00    +0.027 C 
ATOM     29  C   LIG    1        2.957  -7.455  10.759  0.00  0.00    +0.027 C 
ENDBRANCH  24  27
ENDBRANCH  20  21
ENDBRANCH  19  20
ENDBRANCH   4  19
TORSDOF 11
