REMARK  Name = ZINC01720912
REMARK                            x       y       z     vdW  Elec       q    Type
REMARK                         _______ _______ _______ _____ _____    ______ ____
ROOT
ATOM      1  C   LIG    1       -0.729   1.579   1.267  0.00  0.00    +0.042 C 
ENDROOT
BRANCH   1   2
ATOM      2  N   LIG    1       -0.019   1.068   2.453  0.00  0.00    +0.388 N 
ATOM      3  H   LIG    1        0.012   0.042   2.411  0.00  0.00    -0.089 HD
ATOM      4  H   LIG    1       -0.507   1.351   3.301  0.00  0.00    -0.089 HD
ATOM      5  H   LIG    1        0.933   1.429   2.473  0.00  0.00    -0.089 HD
ENDBRANCH   1   2
BRANCH   1   7
ATOM      6  C   LIG    1       -0.753   1.593  -1.232  0.00  0.00    +0.003 C 
ATOM      7  C   LIG    1       -0.013   1.086   0.008  0.00  0.00    -0.008 C 
ENDBRANCH   1   7
BRANCH   1   8
ATOM      8  P   LIG    1       -0.754   3.402   1.277  0.00  0.00    +0.314 P 
ATOM      9  O   LIG    1        0.628   3.915   1.145  0.00  0.00    -0.261 OA
BRANCH   8  10
ATOM     10  O   LIG    1       -1.389   3.922   2.662  0.00  0.00    -0.325 OA
ATOM     11  H   LIG    1       -0.853   3.602   3.404  0.00  0.00    +0.220 HD
ENDBRANCH   8  10
BRANCH   8  12
ATOM     12  O   LIG    1       -1.643   3.933   0.045  0.00  0.00    -0.325 OA
ATOM     13  H   LIG    1       -1.260   3.620  -0.790  0.00  0.00    +0.220 HD
ENDBRANCH   8  12
ENDBRANCH   1   8
TORSDOF 5
