REMARK  Name = ZINC02012156
REMARK                            x       y       z     vdW  Elec       q    Type
REMARK                         _______ _______ _______ _____ _____    ______ ____
ROOT
ATOM      1  C   LIG    1        0.870  -2.011   1.172  0.00  0.00    -0.024 A 
ATOM      2  C   LIG    1        0.043  -2.909   1.729  0.00  0.00    +0.087 A 
ATOM      3  N   LIG    1        0.477  -4.177   1.454  0.00  0.00    -0.360 N 
ATOM      4  C   LIG    1        1.625  -4.124   0.692  0.00  0.00    +0.047 A 
ATOM      5  C   LIG    1        2.457  -5.097   0.150  0.00  0.00    +0.030 A 
ATOM      6  C   LIG    1        3.553  -4.727  -0.598  0.00  0.00    +0.047 A 
ATOM      7  C   LIG    1        3.847  -3.383  -0.809  0.00  0.00    +0.118 A 
ATOM      8  C   LIG    1        3.035  -2.401  -0.275  0.00  0.00    +0.055 A 
ATOM      9  H   LIG    1        0.042  -4.992   1.750  0.00  0.00    +0.165 HD
ATOM     10  C   LIG    1        1.917  -2.765   0.478  0.00  0.00    +0.006 A 
ENDROOT
BRANCH   7  11
ATOM     11  O   LIG    1        4.937  -3.035  -1.543  0.00  0.00    -0.507 OA
ATOM     12  H   LIG    1        5.744  -2.926  -1.022  0.00  0.00    +0.292 HD
ENDBRANCH   7  11
BRANCH   1  13
ATOM     13  C   LIG    1        0.742  -0.511   1.242  0.00  0.00    +0.021 C 
BRANCH  13  15
ATOM     14  C   LIG    1       -0.019   1.526   0.010  0.00  0.00    -0.014 C 
ATOM     15  C   LIG    1        0.002  -0.004   0.002  0.00  0.00    -0.074 C 
BRANCH  15  16
ATOM     16  N   LIG    1       -1.376  -0.512   0.012  0.00  0.00    +0.380 N 
ATOM     17  H   LIG    1       -1.848  -0.187   0.843  0.00  0.00    -0.090 HD
ATOM     18  H   LIG    1       -1.362  -1.521   0.007  0.00  0.00    -0.090 HD
ATOM     19  H   LIG    1       -1.864  -0.178  -0.805  0.00  0.00    -0.090 HD
ENDBRANCH  15  16
ENDBRANCH  13  15
ENDBRANCH   1  13
TORSDOF 4
