REMARK  Name = ZINC01869694
REMARK                            x       y       z     vdW  Elec       q    Type
REMARK                         _______ _______ _______ _____ _____    ______ ____
ROOT
ATOM      1  C   LIG    1        0.707  -0.490  -1.238  0.00  0.00    -0.032 A 
ATOM      2  C   LIG    1        0.215  -0.147  -2.488  0.00  0.00    +0.005 A 
ATOM      3  C   LIG    1        0.852  -0.585  -3.629  0.00  0.00    +0.011 A 
ATOM      4  C   LIG    1        1.994  -1.376  -3.524  0.00  0.00    +0.007 A 
ATOM      5  C   LIG    1        2.892  -1.996  -4.514  0.00  0.00    +0.009 A 
ATOM      6  C   LIG    1        2.918  -2.011  -5.907  0.00  0.00    +0.030 A 
ATOM      7  C   LIG    1        3.915  -2.699  -6.566  0.00  0.00    +0.042 A 
ATOM      8 CL   LIG    1        3.950  -2.720  -8.302  0.00  0.00    -0.084 Cl
ATOM      9  C   LIG    1        4.889  -3.376  -5.847  0.00  0.00    +0.022 A 
ATOM     10  C   LIG    1        4.874  -3.369  -4.469  0.00  0.00    +0.027 A 
ATOM     11  C   LIG    1        3.877  -2.680  -3.786  0.00  0.00    +0.048 A 
ATOM     12  N   LIG    1        3.621  -2.506  -2.437  0.00  0.00    -0.354 N 
ATOM     13  H   LIG    1        4.156  -2.877  -1.719  0.00  0.00    +0.166 HD
ATOM     14  C   LIG    1        2.493  -1.725  -2.260  0.00  0.00    +0.048 A 
ATOM     15  C   LIG    1        1.839  -1.267  -1.119  0.00  0.00    +0.030 A 
ENDROOT
BRANCH   1  17
ATOM     16  C   LIG    1       -0.019   1.526   0.010  0.00  0.00    +0.024 C 
ATOM     17  C   LIG    1        0.002  -0.004   0.002  0.00  0.00    +0.124 C 
BRANCH  17  18
ATOM     18  C   LIG    1       -1.412  -0.526   0.013  0.00  0.00    +0.312 C 
ATOM     19  O   LIG    1       -1.810  -1.227  -0.902  0.00  0.00    -0.250 OA
BRANCH  18  20
ATOM     20  O   LIG    1       -2.158  -0.246   0.936  0.00  0.00    -0.480 OA
ATOM     21  H   LIG    1       -1.852   0.293   1.639  0.00  0.00    +0.295 HD
ENDBRANCH  18  20
ENDBRANCH  17  18
ENDBRANCH   1  17
TORSDOF 3
