REMARK  Name = ZINC02344842
REMARK                            x       y       z     vdW  Elec       q    Type
REMARK                         _______ _______ _______ _____ _____    ______ ____
ROOT
ATOM      1  N   LIG    1        6.350  -0.585   2.108  0.00  0.00    -0.167 N 
ATOM      2  C   LIG    1        6.415  -1.195   3.280  0.00  0.00    +0.273 C 
ATOM      3  C   LIG    1        7.473  -2.213   3.439  0.00  0.00    +0.078 C 
ATOM      4  S   LIG    1        8.247  -2.145   1.829  0.00  0.00    -0.060 S 
ATOM      5  C   LIG    1        7.775  -2.987   4.511  0.00  0.00    +0.028 C 
ATOM      6  O   LIG    1        5.641  -0.930   4.182  0.00  0.00    -0.268 OA
ATOM      7  C   LIG    1        7.205  -0.885   1.110  0.00  0.00    +0.137 C 
ATOM      8  S   LIG    1        7.277  -0.217  -0.465  0.00  0.00    -0.026 S 
ENDROOT
BRANCH   5   9
ATOM      9  C   LIG    1        9.000  -3.799   4.510  0.00  0.00    -0.024 A 
ATOM     10  C   LIG    1        9.949  -3.638   3.494  0.00  0.00    +0.011 A 
ATOM     11  C   LIG    1       11.096  -4.401   3.500  0.00  0.00    +0.039 A 
ATOM     12  C   LIG    1       11.310  -5.329   4.509  0.00  0.00    +0.123 A 
ATOM     13  F   LIG    1       12.437  -6.075   4.508  0.00  0.00    -0.205 F 
ATOM     14  C   LIG    1       10.374  -5.494   5.518  0.00  0.00    +0.039 A 
ATOM     15  C   LIG    1        9.226  -4.732   5.529  0.00  0.00    +0.011 A 
ENDBRANCH   5   9
BRANCH   1  16
ATOM     16  N   LIG    1        5.367   0.390   1.897  0.00  0.00    -0.100 NA
ATOM     17  H   LIG    1        4.466  -0.061   2.056  0.00  0.00    +0.172 HD
BRANCH  16  18
ATOM     18  S   LIG    1        5.265   1.161   0.435  0.00  0.00    +0.074 S 
ATOM     19  O   LIG    1        6.450   1.933   0.299  0.00  0.00    -0.152 OA
ATOM     20  O   LIG    1        4.884   0.177  -0.517  0.00  0.00    -0.152 OA
BRANCH  18  24
ATOM     21  C   LIG    1        1.832   4.098   0.703  0.00  0.00    +0.000 A 
ATOM     22  C   LIG    1        3.109   4.494   1.056  0.00  0.00    +0.002 A 
ATOM     23  C   LIG    1        4.157   3.596   0.974  0.00  0.00    +0.028 A 
ATOM     24  C   LIG    1        3.929   2.304   0.540  0.00  0.00    +0.107 A 
ATOM     25  C   LIG    1        2.651   1.909   0.189  0.00  0.00    +0.028 A 
ATOM     26  C   LIG    1        1.603   2.806   0.269  0.00  0.00    +0.002 A 
ENDBRANCH  18  24
ENDBRANCH  16  18
ENDBRANCH   1  16
TORSDOF 4
