REMARK  Name = ZINC01851873
REMARK                            x       y       z     vdW  Elec       q    Type
REMARK                         _______ _______ _______ _____ _____    ______ ____
ROOT
ATOM      1  C   LIG    1       -0.702   1.560   1.219  0.00  0.00    -0.119 C 
ATOM      2  C   LIG    1       -1.251   1.939   2.185  0.00  0.00    -0.085 C 
ENDROOT
BRANCH   1   3
ATOM      3  C   LIG    1       -0.013   1.086   0.008  0.00  0.00    +0.015 C 
BRANCH   3   5
ATOM      4  C   LIG    1       -1.336   2.901  -1.054  0.00  0.00    -0.091 C 
ATOM      5  N   LIG    1       -0.723   1.572  -1.182  0.00  0.00    +0.383 N 
ATOM      6  C   LIG    1       -1.446   0.576  -1.984  0.00  0.00    -0.093 C 
ATOM      7  C   LIG    1       -0.156   1.220  -2.491  0.00  0.00    -0.093 C 
ENDBRANCH   3   5
ENDBRANCH   1   3
BRANCH   2   8
ATOM      8  C   LIG    1       -1.940   2.414   3.396  0.00  0.00    +0.196 C 
BRANCH   8   9
ATOM      9  N   LIG    1       -1.232   1.929   4.583  0.00  0.00    -0.290 N 
ATOM     10  C   LIG    1       -1.521   0.658   5.258  0.00  0.00    +0.109 C 
ATOM     11  C   LIG    1       -0.283   0.371   6.140  0.00  0.00    +0.028 C 
ATOM     12  C   LIG    1        0.269   1.795   6.379  0.00  0.00    +0.097 C 
ATOM     13  C   LIG    1       -0.237   2.592   5.197  0.00  0.00    +0.216 C 
ATOM     14  O   LIG    1        0.193   3.673   4.853  0.00  0.00    -0.276 OA
ENDBRANCH   8   9
ENDBRANCH   2   8
TORSDOF 4
