REMARK  Name = ZINC02051048
REMARK                            x       y       z     vdW  Elec       q    Type
REMARK                         _______ _______ _______ _____ _____    ______ ____
ROOT
ATOM      1  C   LIG    1        3.444  11.319  -0.578  0.00  0.00    +0.044 C 
ATOM      2  C   LIG    1        2.803   9.961  -0.449  0.00  0.00    -0.050 A 
ATOM      3  C   LIG    1        1.421   9.855  -0.370  0.00  0.00    +0.007 A 
ATOM      4  C   LIG    1        0.816   8.623  -0.251  0.00  0.00    +0.047 A 
ATOM      5  C   LIG    1        1.592   7.470  -0.209  0.00  0.00    +0.136 A 
ATOM      6  C   LIG    1        2.991   7.585  -0.289  0.00  0.00    +0.029 A 
ATOM      7  C   LIG    1        3.511   6.211  -0.218  0.00  0.00    +0.040 A 
ATOM      8  C   LIG    1        2.396   5.396  -0.103  0.00  0.00    +0.184 A 
ATOM      9  O   LIG    1        1.284   6.162  -0.106  0.00  0.00    -0.451 OA
ATOM     10  C   LIG    1        3.586   8.841  -0.409  0.00  0.00    +0.015 A 
ENDROOT
BRANCH   7  11
ATOM     11  C   LIG    1        4.926   5.788  -0.262  0.00  0.00    +0.005 A 
ATOM     12  C   LIG    1        5.405   5.019  -1.333  0.00  0.00    +0.019 A 
ATOM     13  C   LIG    1        6.731   4.653  -1.328  0.00  0.00    +0.016 A 
ATOM     14  C   LIG    1        7.551   5.056  -0.267  0.00  0.00    +0.081 A 
ATOM     15  C   LIG    1        8.974   4.647  -0.309  0.00  0.00    +0.042 A 
ATOM     16  C   LIG    1        9.783   4.707   0.818  0.00  0.00    +0.013 A 
ATOM     17  C   LIG    1       11.101   4.303   0.734  0.00  0.00    +0.001 A 
ATOM     18  C   LIG    1       11.614   3.842  -0.467  0.00  0.00    +0.004 A 
ATOM     19  C   LIG    1       10.817   3.783  -1.594  0.00  0.00    +0.046 A 
ATOM     20  C   LIG    1        9.494   4.186  -1.527  0.00  0.00    +0.130 A 
ATOM     21  O   LIG    1        8.695   4.141  -2.622  0.00  0.00    -0.487 OA
ATOM     22  N   LIG    1        7.067   5.780   0.731  0.00  0.00    -0.254 NA
ATOM     23  C   LIG    1        7.315   3.822  -2.438  0.00  0.00    +0.266 C 
ATOM     24  C   LIG    1        5.805   6.155   0.760  0.00  0.00    +0.120 A 
ENDBRANCH   7  11
BRANCH   8  25
ATOM     25  C   LIG    1        2.420   3.938   0.000  0.00  0.00    +0.229 C 
ATOM     26  O   LIG    1        3.483   3.351   0.087  0.00  0.00    -0.283 OA
BRANCH  25  27
ATOM     27  C   LIG    1        1.153   3.176  -0.002  0.00  0.00    +0.025 A 
ATOM     28  C   LIG    1        1.174   1.780  -0.032  0.00  0.00    +0.012 A 
ATOM     29  C   LIG    1       -0.011   1.075  -0.033  0.00  0.00    +0.001 A 
ATOM     30  C   LIG    1       -1.220   1.748  -0.010  0.00  0.00    +0.000 A 
ATOM     31  C   LIG    1       -1.248   3.131   0.025  0.00  0.00    +0.001 A 
ATOM     32  C   LIG    1       -0.070   3.848   0.027  0.00  0.00    +0.012 A 
ENDBRANCH  25  27
ENDBRANCH   8  25
TORSDOF 3
