REMARK  Name = ZINC02014009
REMARK                            x       y       z     vdW  Elec       q    Type
REMARK                         _______ _______ _______ _____ _____    ______ ____
ROOT
ATOM      1  C   LIG    1       -1.493   5.062  -0.095  0.00  0.00    +0.111 A 
ATOM      2  N   LIG    1       -0.227   4.765  -0.056  0.00  0.00    -0.232 NA
ATOM      3  C   LIG    1       -0.077   3.426   0.113  0.00  0.00    +0.089 A 
ATOM      4  C   LIG    1        1.036   2.587   0.221  0.00  0.00    +0.030 A 
ATOM      5  C   LIG    1        0.860   1.242   0.389  0.00  0.00    +0.002 A 
ATOM      6  C   LIG    1       -0.414   0.698   0.456  0.00  0.00    +0.002 A 
ATOM      7  C   LIG    1       -1.526   1.506   0.347  0.00  0.00    +0.028 A 
ATOM      8  C   LIG    1       -1.367   2.875   0.181  0.00  0.00    +0.069 A 
ATOM      9  N   LIG    1       -2.242   3.935   0.046  0.00  0.00    -0.323 N 
ENDROOT
BRANCH   1  10
ATOM     10  C   LIG    1       -2.049   6.451  -0.271  0.00  0.00    +0.074 C 
BRANCH  10  11
ATOM     11  C   LIG    1       -2.112   6.790  -1.762  0.00  0.00    +0.007 C 
BRANCH  11  13
ATOM     12  C   LIG    1       -2.626   8.580  -3.428  0.00  0.00    +0.004 C 
ATOM     13  C   LIG    1       -2.563   8.241  -1.937  0.00  0.00    -0.003 C 
ENDBRANCH  11  13
ENDBRANCH  10  11
ENDBRANCH   1  10
BRANCH   9  14
ATOM     14  C   LIG    1       -3.705   3.860   0.054  0.00  0.00    +0.158 C 
BRANCH  14  15
ATOM     15  C   LIG    1       -4.202   3.884   1.476  0.00  0.00    -0.028 A 
ATOM     16  C   LIG    1       -4.347   2.699   2.175  0.00  0.00    +0.006 A 
ATOM     17  C   LIG    1       -4.797   2.715   3.479  0.00  0.00    +0.015 A 
ATOM     18  C   LIG    1       -5.116   3.929   4.090  0.00  0.00    +0.059 A 
ATOM     19  C   LIG    1       -4.971   5.121   3.377  0.00  0.00    +0.015 A 
ATOM     20  C   LIG    1       -4.516   5.091   2.075  0.00  0.00    +0.006 A 
BRANCH  18  21
ATOM     21  C   LIG    1       -5.603   3.954   5.484  0.00  0.00    +0.337 C 
ATOM     22  O   LIG    1       -5.879   5.012   6.013  0.00  0.00    -0.245 OA
BRANCH  21  23
ATOM     23  O   LIG    1       -5.740   2.802   6.170  0.00  0.00    -0.477 OA
ATOM     24  H   LIG    1       -5.528   1.986   5.762  0.00  0.00    +0.295 HD
ENDBRANCH  21  23
ENDBRANCH  18  21
ENDBRANCH  14  15
ENDBRANCH   9  14
TORSDOF 7
