REMARK  Name = ZINC02379523
REMARK                            x       y       z     vdW  Elec       q    Type
REMARK                         _______ _______ _______ _____ _____    ______ ____
ROOT
ATOM      1  C   LIG    1        3.698  -0.688  -0.038  0.00  0.00    -0.015 C 
ATOM      2  C   LIG    1        4.532  -0.591   1.004  0.00  0.00    -0.020 C 
ENDROOT
BRANCH   1   6
ATOM      3  C   LIG    1       -0.017   1.379   0.010  0.00  0.00    +0.000 A 
ATOM      4  C   LIG    1        1.169   2.092   0.002  0.00  0.00    +0.001 A 
ATOM      5  C   LIG    1        2.377   1.427  -0.013  0.00  0.00    +0.008 A 
ATOM      6  C   LIG    1        2.402   0.033  -0.021  0.00  0.00    -0.018 A 
ATOM      7  C   LIG    1        1.205  -0.680  -0.013  0.00  0.00    +0.008 A 
ATOM      8  C   LIG    1        0.002  -0.004   0.002  0.00  0.00    +0.001 A 
ENDBRANCH   1   6
BRANCH   1   9
ATOM      9  C   LIG    1        4.070  -1.517  -1.211  0.00  0.00    -0.018 A 
ATOM     10  C   LIG    1        4.288  -0.917  -2.450  0.00  0.00    +0.008 A 
ATOM     11  C   LIG    1        4.634  -1.693  -3.538  0.00  0.00    +0.001 A 
ATOM     12  C   LIG    1        4.765  -3.063  -3.399  0.00  0.00    +0.000 A 
ATOM     13  C   LIG    1        4.550  -3.664  -2.172  0.00  0.00    +0.001 A 
ATOM     14  C   LIG    1        4.209  -2.897  -1.076  0.00  0.00    +0.008 A 
ENDBRANCH   1   9
BRANCH   2  15
ATOM     15  C   LIG    1        4.154   0.251   2.195  0.00  0.00    +0.009 C 
BRANCH  15  16
ATOM     16  C   LIG    1        4.225  -0.600   3.465  0.00  0.00    -0.075 C 
BRANCH  16  17
ATOM     17  N   LIG    1        3.857   0.221   4.626  0.00  0.00    +0.380 N 
ATOM     18  H   LIG    1        2.949   0.633   4.470  0.00  0.00    -0.082 HD
ATOM     19  C   LIG    1        4.851   1.285   4.806  0.00  0.00    -0.079 C 
ATOM     20  C   LIG    1        4.429   2.192   5.964  0.00  0.00    -0.018 C 
ATOM     21  C   LIG    1        4.332   1.360   7.247  0.00  0.00    +0.011 C 
ATOM     22  C   LIG    1        3.348   0.208   7.023  0.00  0.00    +0.081 C 
ATOM     23  C   LIG    1        3.810  -0.625   5.825  0.00  0.00    -0.064 C 
BRANCH  22  24
ATOM     24  C   LIG    1        3.301  -0.660   8.253  0.00  0.00    +0.306 C 
ATOM     25  O   LIG    1        2.960  -0.185   9.323  0.00  0.00    -0.251 OA
BRANCH  24  26
ATOM     26  O   LIG    1        3.606  -1.839   8.180  0.00  0.00    -0.480 OA
ATOM     27  H   LIG    1        3.869  -2.204   7.358  0.00  0.00    +0.295 HD
ENDBRANCH  24  26
ENDBRANCH  22  24
ENDBRANCH  16  17
ENDBRANCH  15  16
ENDBRANCH   2  15
TORSDOF 7
