REMARK  Name = ZINC01725417
REMARK                            x       y       z     vdW  Elec       q    Type
REMARK                         _______ _______ _______ _____ _____    ______ ____
ROOT
ATOM      1  S   LIG    1        5.256  -2.867  -0.066  0.00  0.00    +0.144 S 
ATOM      2  O   LIG    1        6.273  -1.874  -0.044  0.00  0.00    -0.132 OA
ATOM      3  O   LIG    1        5.165  -3.841  -1.096  0.00  0.00    -0.132 OA
ENDROOT
BRANCH   1   5
ATOM      4  C   LIG    1        3.695  -0.685  -0.038  0.00  0.00    +0.030 C 
ATOM      5  C   LIG    1        3.716  -2.010  -0.046  0.00  0.00    +0.178 C 
BRANCH   4   9
ATOM      6  C   LIG    1       -0.017   1.379   0.010  0.00  0.00    +0.000 A 
ATOM      7  C   LIG    1        1.168   2.093   0.002  0.00  0.00    +0.001 A 
ATOM      8  C   LIG    1        2.377   1.429  -0.013  0.00  0.00    +0.008 A 
ATOM      9  C   LIG    1        2.403   0.034  -0.021  0.00  0.00    -0.024 A 
ATOM     10  C   LIG    1        1.204  -0.681  -0.013  0.00  0.00    +0.008 A 
ATOM     11  C   LIG    1        0.002  -0.004   0.002  0.00  0.00    +0.001 A 
ENDBRANCH   4   9
ENDBRANCH   1   5
BRANCH   1  12
ATOM     12  O   LIG    1        5.364  -3.629   1.246  0.00  0.00    -0.343 OA
BRANCH  12  13
ATOM     13  C   LIG    1        4.583  -4.740   1.306  0.00  0.00    +0.157 A 
ATOM     14  C   LIG    1        3.285  -4.651   1.787  0.00  0.00    +0.048 A 
ATOM     15  C   LIG    1        2.493  -5.781   1.846  0.00  0.00    +0.004 A 
ATOM     16  C   LIG    1        2.993  -7.000   1.428  0.00  0.00    +0.000 A 
ATOM     17  C   LIG    1        4.287  -7.092   0.949  0.00  0.00    +0.004 A 
ATOM     18  C   LIG    1        5.081  -5.963   0.882  0.00  0.00    +0.048 A 
ENDBRANCH  12  13
ENDBRANCH   1  12
TORSDOF 4
