REMARK  Name = ZINC01756243
REMARK                            x       y       z     vdW  Elec       q    Type
REMARK                         _______ _______ _______ _____ _____    ______ ____
ROOT
ATOM      1  C   LIG    1       -4.654  -1.002   2.161  0.00  0.00    +0.066 C 
ATOM      2  C   LIG    1       -3.987  -0.405   1.131  0.00  0.00    +0.080 C 
ATOM      3  C   LIG    1       -2.914   0.537   1.169  0.00  0.00    +0.259 C 
ATOM      4  N   LIG    1       -2.430   0.973   0.019  0.00  0.00    -0.244 N 
ATOM      5  C   LIG    1       -2.939   0.544  -1.157  0.00  0.00    +0.121 C 
ATOM      6  S   LIG    1       -2.477   0.976  -2.748  0.00  0.00    -0.027 S 
ATOM      7  O   LIG    1       -2.458   0.927   2.229  0.00  0.00    -0.269 OA
ATOM      8  S   LIG    1       -4.216  -0.590  -0.632  0.00  0.00    -0.061 S 
ENDROOT
BRANCH   1  12
ATOM      9  C   LIG    1       -7.137  -3.168   0.800  0.00  0.00    +0.136 A 
ATOM     10  C   LIG    1       -7.363  -3.380   2.131  0.00  0.00    +0.050 A 
ATOM     11  C   LIG    1       -6.453  -2.588   2.835  0.00  0.00    +0.050 A 
ATOM     12  C   LIG    1       -5.697  -1.915   1.891  0.00  0.00    +0.130 A 
ATOM     13  O   LIG    1       -6.135  -2.279   0.668  0.00  0.00    -0.455 OA
BRANCH   9  20
ATOM     14  C   LIG    1       -8.899  -4.714  -0.040  0.00  0.00    +0.013 A 
ATOM     15  C   LIG    1       -9.587  -5.300  -1.081  0.00  0.00    +0.021 A 
ATOM     16  C   LIG    1       -9.257  -4.997  -2.392  0.00  0.00    +0.041 A 
ATOM     17 CL   LIG    1      -10.124  -5.744  -3.697  0.00  0.00    -0.084 Cl
ATOM     18  C   LIG    1       -8.238  -4.099  -2.666  0.00  0.00    +0.021 A 
ATOM     19  C   LIG    1       -7.545  -3.502  -1.634  0.00  0.00    +0.013 A 
ATOM     20  C   LIG    1       -7.873  -3.804  -0.309  0.00  0.00    +0.017 A 
ENDBRANCH   9  20
ENDBRANCH   1  12
BRANCH   4  21
ATOM     21  C   LIG    1       -1.329   1.940   0.019  0.00  0.00    +0.235 C 
BRANCH  21  22
ATOM     22  C   LIG    1       -0.014   1.204   0.009  0.00  0.00    +0.323 C 
ATOM     23  O   LIG    1        0.002  -0.004   0.002  0.00  0.00    -0.249 OA
BRANCH  22  24
ATOM     24  O   LIG    1        1.139   1.891   0.001  0.00  0.00    -0.480 OA
ATOM     25  H   LIG    1        1.126   2.828   0.006  0.00  0.00    +0.295 HD
ENDBRANCH  22  24
ENDBRANCH  21  22
ENDBRANCH   4  21
TORSDOF 5
