REMARK  Name = ZINC02007680
REMARK                            x       y       z     vdW  Elec       q    Type
REMARK                         _______ _______ _______ _____ _____    ______ ____
ROOT
ATOM      1  C   LIG    1       -1.884   3.714   0.061  0.00  0.00    +0.056 C 
ENDROOT
BRANCH   1   2
ATOM      2  C   LIG    1       -1.612   4.849   1.016  0.00  0.00    -0.033 A 
ATOM      3  C   LIG    1       -2.483   5.097   2.060  0.00  0.00    +0.004 A 
ATOM      4  C   LIG    1       -2.231   6.135   2.938  0.00  0.00    +0.000 A 
ATOM      5  C   LIG    1       -1.114   6.930   2.765  0.00  0.00    +0.000 A 
ATOM      6  C   LIG    1       -0.246   6.685   1.718  0.00  0.00    +0.000 A 
ATOM      7  C   LIG    1       -0.495   5.644   0.843  0.00  0.00    +0.004 A 
ENDBRANCH   1   2
BRANCH   1   8
ATOM      8  C   LIG    1       -0.814   2.663   0.213  0.00  0.00    -0.033 A 
ATOM      9  C   LIG    1       -1.139   1.412   0.702  0.00  0.00    +0.004 A 
ATOM     10  C   LIG    1       -0.158   0.449   0.845  0.00  0.00    +0.000 A 
ATOM     11  C   LIG    1        1.147   0.735   0.490  0.00  0.00    +0.000 A 
ATOM     12  C   LIG    1        1.472   1.985  -0.004  0.00  0.00    +0.000 A 
ATOM     13  C   LIG    1        0.491   2.949  -0.142  0.00  0.00    +0.004 A 
ENDBRANCH   1   8
BRANCH   1  14
ATOM     14  C   LIG    1       -3.250   3.101   0.374  0.00  0.00    +0.191 C 
BRANCH  14  16
ATOM     15  C   LIG    1       -4.946   1.417  -0.356  0.00  0.00    +0.007 C 
ATOM     16  C   LIG    1       -3.590   2.047  -0.682  0.00  0.00    +0.042 C 
ENDBRANCH  14  16
BRANCH  14  17
ATOM     17  O   LIG    1       -3.211   2.477   1.685  0.00  0.00    -0.460 OA
BRANCH  17  18
ATOM     18  C   LIG    1       -4.360   2.447   2.380  0.00  0.00    +0.304 C 
ATOM     19  C   LIG    1       -4.396   1.816   3.748  0.00  0.00    +0.136 C 
ATOM     20  O   LIG    1       -5.364   2.925   1.908  0.00  0.00    -0.251 OA
ENDBRANCH  17  18
ENDBRANCH  14  17
ENDBRANCH   1  14
BRANCH   1  21
ATOM     21  C   LIG    1       -1.879   4.243  -1.374  0.00  0.00    +0.004 C 
BRANCH  21  22
ATOM     22  C   LIG    1       -3.082   5.166  -1.582  0.00  0.00    -0.071 C 
ATOM     23  C   LIG    1       -2.874   6.460  -0.792  0.00  0.00    -0.013 C 
BRANCH  22  24
ATOM     24  N   LIG    1       -3.192   5.489  -3.020  0.00  0.00    +0.378 N 
ATOM     25  H   LIG    1       -2.277   5.804  -3.362  0.00  0.00    -0.082 HD
ATOM     26  C   LIG    1       -4.179   6.571  -3.220  0.00  0.00    -0.096 C 
ATOM     27  C   LIG    1       -3.599   4.287  -3.778  0.00  0.00    -0.096 C 
ENDBRANCH  22  24
ENDBRANCH  21  22
ENDBRANCH   1  21
TORSDOF 9
