REMARK  Name = ZINC01715674
REMARK                            x       y       z     vdW  Elec       q    Type
REMARK                         _______ _______ _______ _____ _____    ______ ____
ROOT
ATOM      1  N   LIG    1        3.470   1.299  -3.332  0.00  0.00    -0.281 N 
ATOM      2  H   LIG    1        4.274   0.757  -3.305  0.00  0.00    +0.155 HD
ATOM      3  C   LIG    1        3.229   2.196  -2.356  0.00  0.00    +0.249 C 
ATOM      4  O   LIG    1        2.272   2.942  -2.439  0.00  0.00    -0.270 OA
ENDROOT
BRANCH   1  13
ATOM      5  C   LIG    1       -1.692   0.423  -9.394  0.00  0.00    +0.001 A 
ATOM      6  C   LIG    1       -2.853   0.687  -8.689  0.00  0.00    +0.000 A 
ATOM      7  C   LIG    1       -2.793   0.982  -7.339  0.00  0.00    +0.007 A 
ATOM      8  C   LIG    1       -1.576   1.014  -6.692  0.00  0.00    -0.007 A 
ATOM      9  C   LIG    1       -0.402   0.750  -7.393  0.00  0.00    -0.012 A 
ATOM     10  C   LIG    1        0.757   0.849  -6.471  0.00  0.00    -0.011 A 
ATOM     11  C   LIG    1        2.125   0.674  -6.694  0.00  0.00    +0.011 A 
ATOM     12  C   LIG    1        3.018   0.824  -5.656  0.00  0.00    +0.024 A 
ATOM     13  C   LIG    1        2.562   1.149  -4.383  0.00  0.00    +0.034 A 
ATOM     14  C   LIG    1        1.201   1.318  -4.156  0.00  0.00    +0.030 A 
ATOM     15  C   LIG    1        0.307   1.175  -5.194  0.00  0.00    -0.005 A 
ATOM     16  C   LIG    1       -1.196   1.298  -5.260  0.00  0.00    +0.176 C 
ATOM     17  C   LIG    1       -0.470   0.453  -8.756  0.00  0.00    +0.009 A 
BRANCH  16  18
ATOM     18  O   LIG    1       -1.808   0.343  -4.390  0.00  0.00    -0.382 OA
ATOM     19  H   LIG    1       -2.775   0.355  -4.411  0.00  0.00    +0.211 HD
ENDBRANCH  16  18
ENDBRANCH   1  13
BRANCH   3  20
ATOM     20  C   LIG    1        4.126   2.274  -1.186  0.00  0.00    +0.045 A 
ATOM     21  C   LIG    1        5.226   1.421  -1.087  0.00  0.00    +0.013 A 
ATOM     22  C   LIG    1        6.061   1.499   0.008  0.00  0.00    +0.001 A 
ATOM     23  C   LIG    1        5.817   2.420   1.013  0.00  0.00    +0.001 A 
ATOM     24  C   LIG    1        4.737   3.276   0.930  0.00  0.00    +0.009 A 
ATOM     25  C   LIG    1        3.879   3.209  -0.165  0.00  0.00    -0.005 A 
BRANCH  25  26
ATOM     26  C   LIG    1        2.716   4.122  -0.256  0.00  0.00    -0.003 A 
ATOM     27  C   LIG    1        2.912   5.495  -0.381  0.00  0.00    +0.009 A 
ATOM     28  C   LIG    1        1.825   6.342  -0.460  0.00  0.00    +0.001 A 
ATOM     29  C   LIG    1        0.536   5.836  -0.421  0.00  0.00    +0.001 A 
ATOM     30  C   LIG    1        0.322   4.478  -0.303  0.00  0.00    +0.015 A 
ATOM     31  C   LIG    1        1.407   3.606  -0.222  0.00  0.00    +0.067 A 
BRANCH  31  32
ATOM     32  C   LIG    1        1.185   2.153  -0.096  0.00  0.00    +0.337 C 
ATOM     33  O   LIG    1        2.133   1.397  -0.026  0.00  0.00    -0.245 OA
BRANCH  32  34
ATOM     34  O   LIG    1       -0.071   1.665  -0.059  0.00  0.00    -0.477 OA
ATOM     35  H   LIG    1       -0.802   2.248  -0.113  0.00  0.00    +0.295 HD
ENDBRANCH  32  34
ENDBRANCH  31  32
ENDBRANCH  25  26
ENDBRANCH   3  20
TORSDOF 6
