REMARK  Name = ZINC01696581
REMARK                            x       y       z     vdW  Elec       q    Type
REMARK                         _______ _______ _______ _____ _____    ______ ____
ROOT
ATOM      1  C   LIG    1        1.251  -2.154  -0.021  0.00  0.00    +0.163 C 
ATOM      2  O   LIG    1        0.212  -2.778  -0.014  0.00  0.00    -0.292 OA
ENDROOT
BRANCH   1   3
ATOM      3  C   LIG    1        1.226  -0.685  -0.013  0.00  0.00    +0.018 A 
ATOM      4  C   LIG    1        0.002  -0.004   0.002  0.00  0.00    +0.015 A 
ATOM      5  C   LIG    1       -0.017   1.367   0.010  0.00  0.00    +0.046 A 
ATOM      6  C   LIG    1        1.177   2.081   0.002  0.00  0.00    +0.117 A 
ATOM      7  C   LIG    1        2.395   1.409  -0.013  0.00  0.00    +0.046 A 
ATOM      8  C   LIG    1        2.424   0.039  -0.021  0.00  0.00    +0.015 A 
BRANCH   6   9
ATOM      9  O   LIG    1        1.153   3.438   0.009  0.00  0.00    -0.507 OA
ATOM     10  H   LIG    1        1.155   3.826   0.895  0.00  0.00    +0.292 HD
ENDBRANCH   6   9
ENDBRANCH   1   3
BRANCH   1  11
ATOM     11  C   LIG    1        2.570  -2.884  -0.037  0.00  0.00    +0.079 C 
BRANCH  11  12
ATOM     12  C   LIG    1        2.316  -4.393  -0.043  0.00  0.00    +0.008 C 
BRANCH  12  13
ATOM     13  C   LIG    1        3.655  -5.134  -0.059  0.00  0.00    +0.000 C 
BRANCH  13  14
ATOM     14  C   LIG    1        3.402  -6.643  -0.064  0.00  0.00    +0.000 C 
BRANCH  14  15
ATOM     15  C   LIG    1        4.740  -7.385  -0.081  0.00  0.00    -0.000 C 
BRANCH  15  17
ATOM     16  C   LIG    1        5.825  -9.635  -0.103  0.00  0.00    +0.004 C 
ATOM     17  C   LIG    1        4.487  -8.894  -0.086  0.00  0.00    -0.003 C 
ENDBRANCH  15  17
ENDBRANCH  14  15
ENDBRANCH  13  14
ENDBRANCH  12  13
ENDBRANCH  11  12
ENDBRANCH   1  11
TORSDOF 8
