REMARK  Name = ZINC01886617
REMARK                            x       y       z     vdW  Elec       q    Type
REMARK                         _______ _______ _______ _____ _____    ______ ____
ROOT
ATOM      1  N   LIG    1       -1.357  -0.545  -0.045  0.00  0.00    -0.337 N 
ATOM      2  C   LIG    1       -2.208  -0.383   1.027  0.00  0.00    +0.050 A 
ATOM      3  C   LIG    1       -2.065   0.238   2.264  0.00  0.00    +0.026 A 
ATOM      4  C   LIG    1       -3.116   0.240   3.156  0.00  0.00    +0.002 A 
ATOM      5  C   LIG    1       -4.319  -0.372   2.833  0.00  0.00    +0.001 A 
ATOM      6  C   LIG    1       -4.481  -0.987   1.624  0.00  0.00    +0.010 A 
ATOM      7  C   LIG    1       -3.429  -1.001   0.706  0.00  0.00    +0.008 A 
ATOM      8  C   LIG    1       -3.270  -1.557  -0.645  0.00  0.00    +0.015 A 
ATOM      9  C   LIG    1       -1.988  -1.240  -1.050  0.00  0.00    +0.051 A 
ENDROOT
BRANCH   8  10
ATOM     10  C   LIG    1       -4.285  -2.304  -1.421  0.00  0.00    -0.015 A 
ATOM     11  C   LIG    1       -4.087  -3.653  -1.717  0.00  0.00    +0.011 A 
ATOM     12  C   LIG    1       -5.036  -4.345  -2.440  0.00  0.00    +0.039 A 
ATOM     13  C   LIG    1       -6.186  -3.702  -2.872  0.00  0.00    +0.123 A 
ATOM     14  F   LIG    1       -7.112  -4.384  -3.580  0.00  0.00    -0.205 F 
ATOM     15  C   LIG    1       -6.387  -2.362  -2.581  0.00  0.00    +0.039 A 
ATOM     16  C   LIG    1       -5.447  -1.663  -1.853  0.00  0.00    +0.011 A 
ENDBRANCH   8  10
BRANCH   1  18
ATOM     17  C   LIG    1        0.013   1.479   0.051  0.00  0.00    +0.030 C 
ATOM     18  C   LIG    1        0.018  -0.043  -0.108  0.00  0.00    +0.082 C 
ATOM     19  C   LIG    1        0.842  -0.670   1.018  0.00  0.00    +0.030 C 
ENDBRANCH   1  18
BRANCH   9  20
ATOM     20  C   LIG    1       -1.392  -1.594  -2.346  0.00  0.00    +0.025 C 
ATOM     21  C   LIG    1       -1.985  -1.216  -3.476  0.00  0.00    +0.006 C 
BRANCH  21  22
ATOM     22  C   LIG    1       -1.442  -1.680  -4.803  0.00  0.00    +0.140 C 
BRANCH  22  23
ATOM     23  O   LIG    1       -0.371  -2.600  -4.584  0.00  0.00    -0.388 OA
ATOM     24  H   LIG    1       -0.626  -3.390  -4.088  0.00  0.00    +0.210 HD
ENDBRANCH  22  23
BRANCH  22  25
ATOM     25  C   LIG    1       -2.554  -2.371  -5.595  0.00  0.00    +0.067 C 
BRANCH  25  26
ATOM     26  C   LIG    1       -2.039  -2.732  -6.990  0.00  0.00    +0.128 C 
BRANCH  26  27
ATOM     27  O   LIG    1       -0.996  -3.702  -6.876  0.00  0.00    -0.391 OA
ATOM     28  H   LIG    1       -1.271  -4.527  -6.452  0.00  0.00    +0.210 HD
ENDBRANCH  26  27
BRANCH  26  29
ATOM     29  C   LIG    1       -3.184  -3.309  -7.824  0.00  0.00    +0.151 C 
BRANCH  29  30
ATOM     30  C   LIG    1       -2.708  -3.549  -9.233  0.00  0.00    +0.307 C 
ATOM     31  O   LIG    1       -1.559  -3.284  -9.542  0.00  0.00    -0.251 OA
BRANCH  30  32
ATOM     32  O   LIG    1       -3.472  -4.009 -10.065  0.00  0.00    -0.481 OA
ATOM     33  H   LIG    1       -4.355  -4.214  -9.827  0.00  0.00    +0.295 HD
ENDBRANCH  30  32
ENDBRANCH  29  30
ENDBRANCH  26  29
ENDBRANCH  25  26
ENDBRANCH  22  25
ENDBRANCH  21  22
ENDBRANCH   9  20
TORSDOF 11
