REMARK  Name = ZINC02143791
REMARK                            x       y       z     vdW  Elec       q    Type
REMARK                         _______ _______ _______ _____ _____    ______ ____
ROOT
ATOM      1  C   LIG    1        0.002  -0.004   0.002  0.00  0.00    +0.002 A 
ATOM      2  C   LIG    1       -0.017   1.381   0.010  0.00  0.00    +0.030 A 
ATOM      3  C   LIG    1        1.191   2.029   0.002  0.00  0.00    +0.078 A 
ATOM      4  S   LIG    1        2.351   0.675  -0.017  0.00  0.00    -0.079 S 
ATOM      5  C   LIG    1        1.224  -0.641  -0.013  0.00  0.00    +0.100 A 
ENDROOT
BRANCH   1   9
ATOM      6  C   LIG    1       -3.619  -2.233   0.023  0.00  0.00    +0.000 A 
ATOM      7  C   LIG    1       -3.428  -1.221   0.946  0.00  0.00    +0.001 A 
ATOM      8  C   LIG    1       -2.255  -0.494   0.944  0.00  0.00    +0.008 A 
ATOM      9  C   LIG    1       -1.262  -0.782   0.009  0.00  0.00    -0.017 A 
ATOM     10  C   LIG    1       -1.462  -1.799  -0.922  0.00  0.00    +0.008 A 
ATOM     11  C   LIG    1       -2.637  -2.523  -0.907  0.00  0.00    +0.001 A 
ENDBRANCH   1   9
BRANCH   3  12
ATOM     12  C   LIG    1        1.460   3.473   0.007  0.00  0.00    +0.265 A 
ATOM     13  N   LIG    1        2.650   4.054   0.004  0.00  0.00    -0.187 NA
ATOM     14  C   LIG    1        2.403   5.380   0.009  0.00  0.00    +0.202 A 
ATOM     15  N   LIG    1        1.103   5.536   0.022  0.00  0.00    -0.056 NA
ATOM     16  O   LIG    1        0.547   4.459   0.021  0.00  0.00    -0.332 OA
BRANCH  14  17
ATOM     17  C   LIG    1        3.418   6.462   0.005  0.00  0.00    +0.022 A 
ATOM     18  C   LIG    1        4.775   6.148  -0.004  0.00  0.00    +0.012 A 
ATOM     19  C   LIG    1        5.715   7.159  -0.013  0.00  0.00    +0.001 A 
ATOM     20  C   LIG    1        5.312   8.482  -0.001  0.00  0.00    +0.000 A 
ATOM     21  C   LIG    1        3.966   8.799   0.014  0.00  0.00    +0.001 A 
ATOM     22  C   LIG    1        3.017   7.797   0.017  0.00  0.00    +0.012 A 
ENDBRANCH  14  17
ENDBRANCH   3  12
BRANCH   5  23
ATOM     23  C   LIG    1        1.510  -2.121  -0.023  0.00  0.00    +0.424 C 
ATOM     24  F   LIG    1        0.484  -2.799   0.643  0.00  0.00    -0.165 F 
ATOM     25  F   LIG    1        2.727  -2.365   0.623  0.00  0.00    -0.165 F 
ATOM     26  F   LIG    1        1.586  -2.572  -1.345  0.00  0.00    -0.165 F 
ENDBRANCH   5  23
TORSDOF 4
