REMARK  Name = ZINC01682433
REMARK                            x       y       z     vdW  Elec       q    Type
REMARK                         _______ _______ _______ _____ _____    ______ ____
ROOT
ATOM      1  C   LIG    1       -3.558   2.807   1.048  0.00  0.00    -0.092 C 
ATOM      2  N   LIG    1       -3.272   1.370   1.160  0.00  0.00    +0.377 N 
ATOM      3  C   LIG    1       -2.546   1.111   2.410  0.00  0.00    -0.092 C 
ATOM      4  C   LIG    1       -4.535   0.618   1.161  0.00  0.00    -0.092 C 
ENDROOT
BRANCH   2   5
ATOM      5  C   LIG    1       -2.451   0.944   0.019  0.00  0.00    -0.049 C 
BRANCH   5   6
ATOM      6  C   LIG    1       -1.156   1.715   0.017  0.00  0.00    -0.053 C 
ATOM      7  C   LIG    1       -0.013   1.076   0.008  0.00  0.00    +0.002 C 
ENDBRANCH   5   6
ENDBRANCH   2   5
TORSDOF 2
