REMARK  Name = ZINC02020083
REMARK                            x       y       z     vdW  Elec       q    Type
REMARK                         _______ _______ _______ _____ _____    ______ ____
ROOT
ATOM      1  C   LIG    1        5.030  -0.512  -3.420  0.00  0.00    +0.242 A 
ATOM      2  C   LIG    1        6.454  -0.219  -3.577  0.00  0.00    +0.063 A 
ATOM      3  C   LIG    1        7.399   0.455  -2.796  0.00  0.00    +0.015 A 
ATOM      4  C   LIG    1        8.687   0.558  -3.236  0.00  0.00    +0.001 A 
ATOM      5  C   LIG    1        9.068   0.001  -4.451  0.00  0.00    +0.002 A 
ATOM      6  C   LIG    1        8.162  -0.661  -5.230  0.00  0.00    +0.028 A 
ATOM      7  C   LIG    1        6.841  -0.783  -4.807  0.00  0.00    +0.073 A 
ATOM      8  N   LIG    1        5.724  -1.370  -5.343  0.00  0.00    -0.256 N 
ATOM      9  N   LIG    1        4.647  -1.189  -4.469  0.00  0.00    -0.132 NA
ENDROOT
BRANCH   1  10
ATOM     10  O   LIG    1        4.247  -0.150  -2.370  0.00  0.00    -0.475 OA
BRANCH  10  11
ATOM     11  C   LIG    1        2.875  -0.547  -2.416  0.00  0.00    +0.229 C 
BRANCH  11  12
ATOM     12  C   LIG    1        2.159  -0.053  -1.157  0.00  0.00    +0.022 C 
BRANCH  12  13
ATOM     13  C   LIG    1        0.690  -0.478  -1.207  0.00  0.00    -0.076 C 
BRANCH  13  15
ATOM     14  C   LIG    1       -0.018   1.465   0.010  0.00  0.00    -0.097 C 
ATOM     15  N   LIG    1        0.002  -0.004   0.002  0.00  0.00    +0.376 N 
ATOM     16  H   LIG    1        0.490  -0.338   0.820  0.00  0.00    -0.083 HD
ATOM     17  C   LIG    1       -1.376  -0.512   0.012  0.00  0.00    -0.097 C 
ENDBRANCH  13  15
ENDBRANCH  12  13
ENDBRANCH  11  12
ENDBRANCH  10  11
ENDBRANCH   1  10
BRANCH   8  18
ATOM     18  C   LIG    1        5.668  -2.079  -6.623  0.00  0.00    +0.179 C 
BRANCH  18  19
ATOM     19  C   LIG    1        5.972  -3.538  -6.403  0.00  0.00    -0.026 A 
ATOM     20  C   LIG    1        7.277  -3.990  -6.467  0.00  0.00    +0.005 A 
ATOM     21  C   LIG    1        7.555  -5.329  -6.266  0.00  0.00    +0.000 A 
ATOM     22  C   LIG    1        6.529  -6.216  -5.999  0.00  0.00    +0.000 A 
ATOM     23  C   LIG    1        5.224  -5.764  -5.934  0.00  0.00    +0.000 A 
ATOM     24  C   LIG    1        4.946  -4.424  -6.132  0.00  0.00    +0.005 A 
ENDBRANCH  18  19
ENDBRANCH   8  18
TORSDOF 7
