REMARK  Name = ZINC01713901
REMARK                            x       y       z     vdW  Elec       q    Type
REMARK                         _______ _______ _______ _____ _____    ______ ____
ROOT
ATOM      1  C   LIG    1       -1.258   2.195   0.020  0.00  0.00    +0.060 C 
ATOM      2  C   LIG    1       -0.016   1.341   0.009  0.00  0.00    -0.003 C 
ATOM      3  C   LIG    1        0.002  -0.004   0.002  0.00  0.00    -0.003 C 
ATOM      4  C   LIG    1        1.355  -0.417  -0.013  0.00  0.00    +0.038 C 
ATOM      5  C   LIG    1        2.022  -1.715  -0.027  0.00  0.00    +0.015 C 
ATOM      6  C   LIG    1        1.301  -2.915  -0.026  0.00  0.00    +0.007 C 
ATOM      7  C   LIG    1        2.002  -4.091  -0.039  0.00  0.00    +0.016 C 
ATOM      8  C   LIG    1        3.393  -4.066  -0.052  0.00  0.00    +0.084 C 
ATOM      9  N   LIG    1        4.063  -2.938  -0.052  0.00  0.00    -0.302 NA
ATOM     10  C   LIG    1        5.527  -2.973  -0.066  0.00  0.00    +0.105 C 
ATOM     11  C   LIG    1        3.437  -1.757  -0.040  0.00  0.00    +0.060 C 
ATOM     12  C   LIG    1        4.164  -0.550  -0.040  0.00  0.00    +0.021 C 
ATOM     13  C   LIG    1        3.533   0.649  -0.028  0.00  0.00    +0.024 C 
ATOM     14  C   LIG    1        2.136   0.746  -0.014  0.00  0.00    +0.077 C 
ATOM     15  N   LIG    1        1.266   1.813  -0.000  0.00  0.00    -0.344 N 
ATOM     16  H   LIG    1        1.522   2.749   0.002  0.00  0.00    +0.146 HD
ENDROOT
TORSDOF 0
