REMARK  Name = ZINC01847292
REMARK                            x       y       z     vdW  Elec       q    Type
REMARK                         _______ _______ _______ _____ _____    ______ ____
ROOT
ATOM      1  C   LIG    1        0.566   1.422   0.193  0.00  0.00    +0.138 C 
ATOM      2  N   LIG    1        0.324  -0.021   0.105  0.00  0.00    -0.271 N 
ATOM      3  C   LIG    1       -0.992  -0.453   0.163  0.00  0.00    +0.045 A 
ATOM      4  C   LIG    1       -1.945   0.300  -0.527  0.00  0.00    +0.024 A 
ATOM      5  C   LIG    1       -3.272  -0.066  -0.514  0.00  0.00    +0.002 A 
ATOM      6  C   LIG    1       -3.676  -1.190   0.188  0.00  0.00    +0.001 A 
ATOM      7  C   LIG    1       -2.752  -1.944   0.872  0.00  0.00    +0.012 A 
ATOM      8  C   LIG    1       -1.395  -1.585   0.868  0.00  0.00    +0.022 A 
ATOM      9  C   LIG    1       -0.461  -2.438   1.618  0.00  0.00    +0.077 C 
ATOM     10  N   LIG    1        0.715  -2.771   1.217  0.00  0.00    -0.251 NA
ATOM     11  C   LIG    1        1.253  -2.311  -0.062  0.00  0.00    +0.279 C 
ATOM     12  C   LIG    1        1.385  -0.813  -0.030  0.00  0.00    +0.262 C 
ATOM     13  O   LIG    1        2.487  -0.315  -0.124  0.00  0.00    -0.271 OA
ENDROOT
BRANCH   9  14
ATOM     14  C   LIG    1       -0.908  -2.953   2.933  0.00  0.00    +0.001 A 
ATOM     15  C   LIG    1       -0.333  -4.107   3.466  0.00  0.00    +0.010 A 
ATOM     16  C   LIG    1       -0.753  -4.581   4.691  0.00  0.00    +0.001 A 
ATOM     17  C   LIG    1       -1.743  -3.915   5.391  0.00  0.00    +0.000 A 
ATOM     18  C   LIG    1       -2.317  -2.770   4.869  0.00  0.00    +0.001 A 
ATOM     19  C   LIG    1       -1.901  -2.283   3.647  0.00  0.00    +0.010 A 
ENDBRANCH   9  14
BRANCH  11  20
ATOM     20  N   LIG    1        2.568  -2.916  -0.287  0.00  0.00    -0.281 N 
ATOM     21  H   LIG    1        3.341  -2.593   0.203  0.00  0.00    +0.152 HD
ATOM     22  C   LIG    1        2.705  -3.921  -1.174  0.00  0.00    +0.262 C 
ATOM     23  O   LIG    1        1.736  -4.326  -1.789  0.00  0.00    -0.269 OA
BRANCH  22  24
ATOM     24  C   LIG    1        4.025  -4.529  -1.400  0.00  0.00    +0.103 A 
ATOM     25  C   LIG    1        4.289  -5.540  -2.269  0.00  0.00    +0.040 A 
ATOM     26  C   LIG    1        5.672  -5.830  -2.185  0.00  0.00    +0.000 A 
ATOM     27  C   LIG    1        6.502  -6.756  -2.831  0.00  0.00    +0.010 A 
ATOM     28  C   LIG    1        7.832  -6.800  -2.531  0.00  0.00    +0.001 A 
ATOM     29  C   LIG    1        8.374  -5.934  -1.590  0.00  0.00    +0.002 A 
ATOM     30  C   LIG    1        7.580  -5.015  -0.942  0.00  0.00    +0.026 A 
ATOM     31  C   LIG    1        6.220  -4.950  -1.231  0.00  0.00    +0.047 A 
ATOM     32  N   LIG    1        5.196  -4.159  -0.767  0.00  0.00    -0.351 N 
ATOM     33  H   LIG    1        5.281  -3.457  -0.103  0.00  0.00    +0.166 HD
ENDBRANCH  22  24
ENDBRANCH  11  20
TORSDOF 3
