REMARK  Name = ZINC02025902
REMARK                            x       y       z     vdW  Elec       q    Type
REMARK                         _______ _______ _______ _____ _____    ______ ____
ROOT
ATOM      1  N   LIG    1       -0.675  -4.736  -1.452  0.00  0.00    -0.308 N 
ATOM      2  H   LIG    1       -0.911  -5.166  -0.615  0.00  0.00    +0.149 HD
ATOM      3  C   LIG    1       -1.186  -5.195  -2.612  0.00  0.00    +0.285 C 
ATOM      4  O   LIG    1       -0.891  -4.657  -3.659  0.00  0.00    -0.267 OA
ENDROOT
BRANCH   3   5
ATOM      5  C   LIG    1       -2.113  -6.363  -2.609  0.00  0.00    +0.249 C 
ATOM      6  O   LIG    1       -2.409  -6.901  -1.560  0.00  0.00    -0.282 OA
BRANCH   5   7
ATOM      7  C   LIG    1       -2.667  -6.860  -3.867  0.00  0.00    +0.052 A 
ATOM      8  C   LIG    1       -2.425  -6.364  -5.134  0.00  0.00    +0.095 A 
ATOM      9  N   LIG    1       -3.114  -7.084  -6.039  0.00  0.00    -0.360 N 
ATOM     10  C   LIG    1       -3.839  -8.083  -5.420  0.00  0.00    +0.047 A 
ATOM     11  C   LIG    1       -4.691  -9.072  -5.899  0.00  0.00    +0.026 A 
ATOM     12  C   LIG    1       -5.277  -9.960  -5.022  0.00  0.00    +0.002 A 
ATOM     13  C   LIG    1       -5.034  -9.871  -3.660  0.00  0.00    +0.001 A 
ATOM     14  C   LIG    1       -4.196  -8.894  -3.165  0.00  0.00    +0.011 A 
ATOM     15  H   LIG    1       -3.102  -6.923  -6.996  0.00  0.00    +0.165 HD
ATOM     16  C   LIG    1       -3.592  -7.997  -4.041  0.00  0.00    +0.011 A 
ENDBRANCH   5   7
ENDBRANCH   3   5
BRANCH   1  17
ATOM     17  C   LIG    1        0.236  -3.589  -1.455  0.00  0.00    +0.109 C 
BRANCH  17  18
ATOM     18  C   LIG    1        0.666  -3.275  -0.021  0.00  0.00    +0.056 C 
BRANCH  18  24
ATOM     19  C   LIG    1       -0.017   1.362   0.009  0.00  0.00    +0.001 A 
ATOM     20  C   LIG    1        1.170   2.083   0.002  0.00  0.00    +0.002 A 
ATOM     21  C   LIG    1        2.386   1.436  -0.013  0.00  0.00    +0.026 A 
ATOM     22  C   LIG    1        2.428   0.046  -0.021  0.00  0.00    +0.047 A 
ATOM     23  C   LIG    1        1.223  -0.681  -0.013  0.00  0.00    +0.003 A 
ATOM     24  C   LIG    1        1.604  -2.095  -0.025  0.00  0.00    -0.021 A 
ATOM     25  C   LIG    1        2.945  -2.141  -0.038  0.00  0.00    +0.087 A 
ATOM     26  N   LIG    1        3.455  -0.871  -0.036  0.00  0.00    -0.360 N 
ATOM     27  H   LIG    1        4.399  -0.650  -0.044  0.00  0.00    +0.165 HD
ATOM     28  C   LIG    1        0.002  -0.004   0.002  0.00  0.00    +0.010 A 
ENDBRANCH  18  24
ENDBRANCH  17  18
ENDBRANCH   1  17
TORSDOF 5
