REMARK  Name = ZINC01735106
REMARK                            x       y       z     vdW  Elec       q    Type
REMARK                         _______ _______ _______ _____ _____    ______ ____
ROOT
ATOM      1  N   LIG    1        0.738  -1.966  -1.265  0.00  0.00    -0.295 NA
ATOM      2  C   LIG    1       -0.615  -2.509  -1.404  0.00  0.00    +0.089 C 
ATOM      3  C   LIG    1       -0.624  -4.009  -1.162  0.00  0.00    +0.051 C 
ATOM      4  C   LIG    1        0.590  -4.686  -1.731  0.00  0.00    -0.041 A 
ATOM      5  C   LIG    1        0.633  -6.075  -1.714  0.00  0.00    +0.004 A 
ATOM      6  C   LIG    1        1.710  -6.758  -2.242  0.00  0.00    +0.001 A 
ATOM      7  C   LIG    1        2.766  -6.058  -2.791  0.00  0.00    +0.009 A 
ATOM      8  C   LIG    1        2.741  -4.668  -2.794  0.00  0.00    -0.009 A 
ATOM      9  C   LIG    1        3.868  -3.899  -3.374  0.00  0.00    +0.031 A 
ATOM     10  C   LIG    1        4.789  -4.514  -4.221  0.00  0.00    +0.166 A 
ATOM     11  C   LIG    1        5.827  -3.766  -4.765  0.00  0.00    +0.159 A 
ATOM     12  C   LIG    1        5.939  -2.417  -4.465  0.00  0.00    +0.049 A 
ATOM     13  C   LIG    1        5.028  -1.811  -3.618  0.00  0.00    +0.008 A 
ATOM     14  C   LIG    1        3.999  -2.546  -3.066  0.00  0.00    -0.034 A 
ATOM     15  C   LIG    1        3.017  -1.898  -2.128  0.00  0.00    +0.059 C 
ATOM     16  C   LIG    1        1.643  -3.980  -2.271  0.00  0.00    -0.019 A 
ATOM     17  C   LIG    1        1.618  -2.476  -2.328  0.00  0.00    +0.092 C 
ENDROOT
BRANCH  10  18
ATOM     18  O   LIG    1        4.672  -5.837  -4.513  0.00  0.00    -0.503 OA
ATOM     19  H   LIG    1        4.131  -6.021  -5.293  0.00  0.00    +0.292 HD
ENDBRANCH  10  18
BRANCH  11  20
ATOM     20  O   LIG    1        6.732  -4.356  -5.591  0.00  0.00    -0.503 OA
ATOM     21  H   LIG    1        6.486  -4.330  -6.526  0.00  0.00    +0.292 HD
ENDBRANCH  11  20
BRANCH   1  22
ATOM     22  C   LIG    1        0.718  -0.497  -1.257  0.00  0.00    +0.085 C 
BRANCH  22  24
ATOM     23  C   LIG    1       -0.019   1.526   0.010  0.00  0.00    +0.005 C 
ATOM     24  C   LIG    1        0.002  -0.004   0.002  0.00  0.00    +0.012 C 
ENDBRANCH  22  24
ENDBRANCH   1  22
TORSDOF 4
