REMARK  Name = ZINC02349480
REMARK                            x       y       z     vdW  Elec       q    Type
REMARK                         _______ _______ _______ _____ _____    ______ ____
ROOT
ATOM      1  C   LIG    1        1.107  -6.006  -1.843  0.00  0.00    +0.028 C 
ATOM      2  C   LIG    1        1.645  -6.511  -2.982  0.00  0.00    +0.080 C 
ATOM      3  C   LIG    1        2.269  -5.809  -4.120  0.00  0.00    +0.260 C 
ATOM      4  N   LIG    1        2.714  -6.564  -5.111  0.00  0.00    -0.230 N 
ATOM      5  C   LIG    1        2.599  -7.908  -5.078  0.00  0.00    +0.286 C 
ATOM      6  O   LIG    1        2.961  -8.717  -5.912  0.00  0.00    -0.262 OA
ATOM      7  O   LIG    1        2.371  -4.597  -4.146  0.00  0.00    -0.269 OA
ATOM      8  S   LIG    1        1.798  -8.212  -3.512  0.00  0.00    -0.026 S 
ENDROOT
BRANCH   1  12
ATOM      9  C   LIG    1        0.580  -1.819  -1.425  0.00  0.00    +0.121 A 
ATOM     10  C   LIG    1        0.992  -2.577  -0.335  0.00  0.00    +0.046 A 
ATOM     11  C   LIG    1        1.164  -3.937  -0.465  0.00  0.00    +0.011 A 
ATOM     12  C   LIG    1        0.924  -4.556  -1.698  0.00  0.00    -0.024 A 
ATOM     13  C   LIG    1        0.510  -3.787  -2.792  0.00  0.00    +0.011 A 
ATOM     14  C   LIG    1        0.335  -2.429  -2.650  0.00  0.00    +0.046 A 
BRANCH   9  15
ATOM     15  O   LIG    1        0.411  -0.478  -1.291  0.00  0.00    -0.492 OA
BRANCH  15  17
ATOM     16  C   LIG    1        0.437   1.594  -0.048  0.00  0.00    +0.048 C 
ATOM     17  C   LIG    1        0.680   0.084  -0.005  0.00  0.00    +0.225 C 
ENDBRANCH  15  17
ENDBRANCH   9  15
ENDBRANCH   1  12
BRANCH   4  18
ATOM     18  C   LIG    1        3.344  -5.927  -6.269  0.00  0.00    +0.098 C 
BRANCH  18  19
ATOM     19  C   LIG    1        4.849  -5.798  -6.025  0.00  0.00    -0.067 C 
BRANCH  19  20
ATOM     20  N   LIG    1        5.481  -5.160  -7.187  0.00  0.00    +0.379 N 
ATOM     21  H   LIG    1        5.321  -5.722  -8.009  0.00  0.00    -0.090 HD
ATOM     22  H   LIG    1        6.473  -5.075  -7.026  0.00  0.00    -0.090 HD
ATOM     23  H   LIG    1        5.083  -4.243  -7.324  0.00  0.00    -0.090 HD
ENDBRANCH  19  20
ENDBRANCH  18  19
ENDBRANCH   4  18
TORSDOF 6
