REMARK  Name = ZINC02232864
REMARK                            x       y       z     vdW  Elec       q    Type
REMARK                         _______ _______ _______ _____ _____    ______ ____
ROOT
ATOM      1  S   LIG    1        2.123   6.148  -0.237  0.00  0.00    -0.078 S 
ENDROOT
BRANCH   1   7
ATOM      2  C   LIG    1        3.313   9.230  -0.335  0.00  0.00    +0.153 C 
ATOM      3  N   LIG    1        4.168   8.055  -0.150  0.00  0.00    -0.305 N 
ATOM      4  C   LIG    1        5.534   8.037   0.008  0.00  0.00    +0.165 A 
ATOM      5  N   LIG    1        5.891   6.780   0.136  0.00  0.00    -0.128 NA
ATOM      6  N   LIG    1        4.856   6.022   0.074  0.00  0.00    -0.122 NA
ATOM      7  C   LIG    1        3.773   6.748  -0.096  0.00  0.00    +0.192 A 
BRANCH   4   8
ATOM      8  C   LIG    1        6.432   9.211   0.025  0.00  0.00    +0.021 A 
ATOM      9  C   LIG    1        5.913  10.487   0.254  0.00  0.00    +0.011 A 
ATOM     10  C   LIG    1        6.755  11.579   0.269  0.00  0.00    +0.002 A 
ATOM     11  C   LIG    1        8.113  11.413   0.058  0.00  0.00    +0.020 A 
ATOM     12  C   LIG    1        8.634  10.151  -0.169  0.00  0.00    +0.042 A 
ATOM     13 CL   LIG    1       10.339   9.953  -0.433  0.00  0.00    -0.084 Cl
ATOM     14  C   LIG    1        7.802   9.049  -0.181  0.00  0.00    +0.031 A 
ENDBRANCH   4   8
ENDBRANCH   1   7
BRANCH   1  15
ATOM     15  C   LIG    1        2.421   4.369  -0.079  0.00  0.00    +0.157 C 
BRANCH  15  16
ATOM     16  C   LIG    1        1.111   3.630  -0.172  0.00  0.00    +0.173 C 
ATOM     17  O   LIG    1        0.078   4.245  -0.330  0.00  0.00    -0.291 OA
BRANCH  16  18
ATOM     18  C   LIG    1        1.085   2.162  -0.071  0.00  0.00    +0.018 A 
ATOM     19  C   LIG    1       -0.128   1.473  -0.157  0.00  0.00    +0.013 A 
ATOM     20  C   LIG    1       -0.144   0.097  -0.062  0.00  0.00    +0.033 A 
ATOM     21  C   LIG    1        1.037  -0.601   0.119  0.00  0.00    +0.122 A 
ATOM     22  C   LIG    1        2.243   0.074   0.205  0.00  0.00    +0.033 A 
ATOM     23  C   LIG    1        2.275   1.450   0.111  0.00  0.00    +0.013 A 
BRANCH  21  24
ATOM     24  N   LIG    1        1.012  -2.077   0.221  0.00  0.00    +0.006 N 
ATOM     25  O   LIG    1       -0.047  -2.674   0.146  0.00  0.00    -0.130 OA
BRANCH  24  26
ATOM     26  O   LIG    1        2.049  -2.695   0.380  0.00  0.00    -0.396 OA
ATOM     27  H   LIG    1        2.864  -2.235   0.438  0.00  0.00    +0.329 HD
ENDBRANCH  24  26
ENDBRANCH  21  24
ENDBRANCH  16  18
ENDBRANCH  15  16
ENDBRANCH   1  15
TORSDOF 7
