REMARK  Name = ZINC02207044
REMARK                            x       y       z     vdW  Elec       q    Type
REMARK                         _______ _______ _______ _____ _____    ______ ____
ROOT
ATOM      1  C   LIG    1        0.588  -2.807  -3.180  0.00  0.00    +0.074 C 
ATOM      2  C   LIG    1        1.370  -3.802  -2.687  0.00  0.00    +0.050 C 
ATOM      3  N   LIG    1        2.428  -4.293  -3.418  0.00  0.00    -0.308 N 
ATOM      4  H   LIG    1        3.124  -4.806  -2.978  0.00  0.00    +0.153 HD
ATOM      5  C   LIG    1        2.500  -4.056  -4.771  0.00  0.00    +0.080 C 
ATOM      6  C   LIG    1        1.760  -3.070  -5.344  0.00  0.00    +0.072 C 
ATOM      7  C   LIG    1        0.844  -2.203  -4.531  0.00  0.00    +0.136 C 
ENDROOT
BRANCH   2   8
ATOM      8  C   LIG    1        1.082  -4.363  -1.351  0.00  0.00    -0.003 A 
ATOM      9  C   LIG    1        0.679  -5.694  -1.222  0.00  0.00    +0.010 A 
ATOM     10  C   LIG    1        0.412  -6.212   0.028  0.00  0.00    +0.001 A 
ATOM     11  C   LIG    1        0.542  -5.416   1.153  0.00  0.00    +0.000 A 
ATOM     12  C   LIG    1        0.941  -4.097   1.032  0.00  0.00    +0.001 A 
ATOM     13  C   LIG    1        1.217  -3.567  -0.212  0.00  0.00    +0.010 A 
ENDBRANCH   2   8
BRANCH   7  14
ATOM     14  C   LIG    1        1.481  -0.848  -4.355  0.00  0.00    +0.118 A 
ATOM     15  C   LIG    1        0.973   0.322  -4.784  0.00  0.00    +0.045 A 
ATOM     16  C   LIG    1        1.892   1.329  -4.409  0.00  0.00    +0.041 A 
ATOM     17  C   LIG    1        2.906   0.715  -3.773  0.00  0.00    +0.195 A 
ATOM     18  O   LIG    1        2.649  -0.603  -3.739  0.00  0.00    -0.467 OA
ENDBRANCH   7  14
BRANCH   1  19
ATOM     19  C   LIG    1       -0.492  -2.335  -2.410  0.00  0.00    +0.338 C 
ATOM     20  O   LIG    1       -0.791  -2.897  -1.372  0.00  0.00    -0.245 OA
BRANCH  19  21
ATOM     21  O   LIG    1       -1.196  -1.258  -2.822  0.00  0.00    -0.462 OA
BRANCH  21  23
ATOM     22  C   LIG    1       -2.951   0.390  -2.615  0.00  0.00    +0.048 C 
ATOM     23  C   LIG    1       -2.278  -0.834  -1.991  0.00  0.00    +0.229 C 
ENDBRANCH  21  23
ENDBRANCH  19  21
ENDBRANCH   1  19
BRANCH   6  24
ATOM     24  C   LIG    1        1.852  -2.857  -6.757  0.00  0.00    +0.098 C 
ATOM     25  N   LIG    1        1.925  -2.688  -7.878  0.00  0.00    -0.191 NA
ENDBRANCH   6  24
BRANCH   5  26
ATOM     26  S   LIG    1        3.564  -5.040  -5.773  0.00  0.00    -0.100 S 
BRANCH  26  27
ATOM     27  C   LIG    1        4.327  -6.194  -4.601  0.00  0.00    +0.171 C 
BRANCH  27  28
ATOM     28  C   LIG    1        5.274  -7.107  -5.338  0.00  0.00    +0.227 C 
ATOM     29  N   LIG    1        5.959  -8.053  -4.665  0.00  0.00    -0.285 N 
ATOM     30  H   LIG    1        5.782  -8.201  -3.723  0.00  0.00    +0.155 HD
ATOM     31  O   LIG    1        5.418  -6.990  -6.536  0.00  0.00    -0.275 OA
BRANCH  29  32
ATOM     32  C   LIG    1        6.925  -8.820  -5.325  0.00  0.00    +0.033 A 
ATOM     33  C   LIG    1        7.017 -10.184  -5.081  0.00  0.00    +0.023 A 
ATOM     34  C   LIG    1        7.972 -10.938  -5.734  0.00  0.00    +0.005 A 
ATOM     35  C   LIG    1        8.835 -10.336  -6.631  0.00  0.00    -0.050 A 
ATOM     36  C   LIG    1        9.876 -11.162  -7.343  0.00  0.00    +0.044 C 
ATOM     37  C   LIG    1        8.746  -8.978  -6.877  0.00  0.00    +0.005 A 
ATOM     38  C   LIG    1        7.790  -8.220  -6.231  0.00  0.00    +0.023 A 
ENDBRANCH  29  32
ENDBRANCH  27  28
ENDBRANCH  26  27
ENDBRANCH   5  26
TORSDOF 10
