REMARK  Name = ZINC02034880
REMARK                            x       y       z     vdW  Elec       q    Type
REMARK                         _______ _______ _______ _____ _____    ______ ____
ROOT
ATOM      1  C   LIG    1        1.106   3.179   0.008  0.00  0.00    -0.030 A 
ATOM      2  C   LIG    1        1.173   1.794   0.001  0.00  0.00    +0.006 A 
ATOM      3  C   LIG    1       -0.013   1.076   0.008  0.00  0.00    +0.020 A 
ATOM      4  C   LIG    1       -1.214   1.759   0.017  0.00  0.00    +0.111 A 
ATOM      5  N   LIG    1       -1.240   3.078   0.030  0.00  0.00    -0.263 NA
ATOM      6  C   LIG    1       -0.132   3.793   0.023  0.00  0.00    +0.114 A 
ENDROOT
BRANCH   1   8
ATOM      7  C   LIG    1        2.781   4.291  -1.444  0.00  0.00    +0.009 C 
ATOM      8  C   LIG    1        2.367   4.004   0.001  0.00  0.00    +0.033 C 
ENDBRANCH   1   8
TORSDOF 1
