REMARK  Name = ZINC02379635
REMARK                            x       y       z     vdW  Elec       q    Type
REMARK                         _______ _______ _______ _____ _____    ______ ____
ROOT
ATOM      1  C   LIG    1        0.002  -0.004   0.002  0.00  0.00    +0.401 C 
ATOM      2  N   LIG    1       -1.156  -0.694   0.009  0.00  0.00    -0.274 N 
ATOM      3  H   LIG    1       -2.002  -0.220   0.020  0.00  0.00    +0.152 HD
ATOM      4  O   LIG    1        1.062  -0.597  -0.011  0.00  0.00    -0.226 OA
ENDROOT
BRANCH   1   5
ATOM      5  O   LIG    1       -0.016   1.342   0.009  0.00  0.00    -0.445 OA
BRANCH   5   7
ATOM      6  C   LIG    1        2.044   1.625  -1.258  0.00  0.00    +0.055 C 
ATOM      7  C   LIG    1        1.268   2.019   0.001  0.00  0.00    +0.107 C 
ATOM      8  C   LIG    1        2.068   1.612   1.240  0.00  0.00    +0.055 C 
ATOM      9  C   LIG    1        1.047   3.533   0.011  0.00  0.00    +0.055 C 
ENDBRANCH   5   7
ENDBRANCH   1   5
BRANCH   2  10
ATOM     10  C   LIG    1       -1.136  -2.159   0.001  0.00  0.00    +0.178 C 
BRANCH  10  11
ATOM     11  C   LIG    1       -2.550  -2.680   0.012  0.00  0.00    +0.242 C 
ATOM     12  O   LIG    1       -2.917  -3.447  -0.845  0.00  0.00    -0.299 OA
ENDBRANCH  10  11
ENDBRANCH   2  10
TORSDOF 4
