REMARK  Name = ZINC01910570
REMARK                            x       y       z     vdW  Elec       q    Type
REMARK                         _______ _______ _______ _____ _____    ______ ____
ROOT
ATOM      1  C   LIG    1       -3.293   0.216   6.722  0.00  0.00    +0.110 A 
ATOM      2  C   LIG    1       -3.355   1.199   7.647  0.00  0.00    +0.046 A 
ATOM      3  C   LIG    1       -2.958   2.387   7.014  0.00  0.00    +0.055 A 
ATOM      4  C   LIG    1       -2.670   2.065   5.718  0.00  0.00    +0.190 A 
ATOM      5  O   LIG    1       -2.886   0.743   5.559  0.00  0.00    -0.455 OA
ENDROOT
BRANCH   4   6
ATOM      6  C   LIG    1       -2.213   2.994   4.680  0.00  0.00    +0.284 C 
ATOM      7  N   LIG    1       -1.964   2.543   3.434  0.00  0.00    -0.273 N 
ATOM      8  H   LIG    1       -2.154   1.620   3.206  0.00  0.00    +0.155 HD
ATOM      9  O   LIG    1       -2.060   4.173   4.943  0.00  0.00    -0.266 OA
BRANCH   7  10
ATOM     10  C   LIG    1       -1.428   3.411   2.468  0.00  0.00    +0.118 A 
ATOM     11  C   LIG    1       -2.276   4.130   1.631  0.00  0.00    +0.148 A 
ATOM     12  C   LIG    1       -1.745   4.985   0.678  0.00  0.00    +0.093 A 
ATOM     13  C   LIG    1       -0.371   5.123   0.558  0.00  0.00    +0.127 A 
ATOM     14  C   LIG    1        0.476   4.412   1.394  0.00  0.00    +0.093 A 
ATOM     15  C   LIG    1       -0.050   3.551   2.345  0.00  0.00    +0.148 A 
BRANCH  11  16
ATOM     16  O   LIG    1       -3.624   3.994   1.748  0.00  0.00    -0.493 OA
ATOM     17  C   LIG    1       -4.433   4.763   0.856  0.00  0.00    +0.277 C 
ENDBRANCH  11  16
BRANCH  13  18
ATOM     18  O   LIG    1        0.147   5.962  -0.379  0.00  0.00    -0.495 OA
ATOM     19  C   LIG    1        1.572   6.057  -0.448  0.00  0.00    +0.277 C 
ENDBRANCH  13  18
BRANCH  15  20
ATOM     20  O   LIG    1        0.781   2.850   3.162  0.00  0.00    -0.493 OA
ATOM     21  C   LIG    1        2.185   3.044   2.980  0.00  0.00    +0.277 C 
ENDBRANCH  15  20
ENDBRANCH   7  10
ENDBRANCH   4   6
BRANCH   1  22
ATOM     22  C   LIG    1       -3.632  -1.233   6.957  0.00  0.00    +0.109 C 
BRANCH  22  37
ATOM     23  C   LIG    1       -4.521  -1.756   4.253  0.00  0.00    +0.044 C 
ATOM     24  C   LIG    1       -5.519  -1.708   5.381  0.00  0.00    -0.047 A 
ATOM     25  C   LIG    1       -6.860  -1.911   5.127  0.00  0.00    +0.008 A 
ATOM     26  C   LIG    1       -7.788  -1.868   6.160  0.00  0.00    -0.038 A 
ATOM     27  C   LIG    1       -7.365  -1.625   7.447  0.00  0.00    -0.038 A 
ATOM     28  C   LIG    1       -8.313  -1.574   8.617  0.00  0.00    -0.010 C 
ATOM     29  C   LIG    1       -7.925  -0.410   9.530  0.00  0.00    +0.016 C 
ATOM     30  C   LIG    1       -8.217  -2.884   9.401  0.00  0.00    +0.016 C 
ATOM     31  C   LIG    1       -9.749  -1.379   8.135  0.00  0.00    +0.012 C 
ATOM     32  C   LIG    1      -10.045  -2.431   7.059  0.00  0.00    +0.012 C 
ATOM     33  C   LIG    1       -6.014  -1.424   7.701  0.00  0.00    +0.008 A 
ATOM     34  C   LIG    1       -9.237  -2.084   5.810  0.00  0.00    -0.010 C 
ATOM     35  C   LIG    1       -9.348  -3.231   4.803  0.00  0.00    +0.016 C 
ATOM     36  C   LIG    1       -9.801  -0.808   5.183  0.00  0.00    +0.016 C 
ATOM     37  C   LIG    1       -5.095  -1.459   6.672  0.00  0.00    -0.037 A 
ENDBRANCH  22  37
ENDBRANCH   1  22
TORSDOF 7
