REMARK  Name = ZINC01697899
REMARK                            x       y       z     vdW  Elec       q    Type
REMARK                         _______ _______ _______ _____ _____    ______ ____
ROOT
ATOM      1  C   LIG    1        3.487   6.053   0.003  0.00  0.00    +0.128 A 
ATOM      2  C   LIG    1        3.407   7.413   0.012  0.00  0.00    +0.050 A 
ATOM      3  C   LIG    1        2.181   8.075   0.026  0.00  0.00    +0.050 A 
ATOM      4  C   LIG    1        1.000   7.395   0.033  0.00  0.00    +0.128 A 
ATOM      5  C   LIG    1        1.009   5.980   0.024  0.00  0.00    +0.028 A 
ATOM      6  C   LIG    1       -0.180   5.254   0.031  0.00  0.00    +0.020 A 
ATOM      7  C   LIG    1       -0.135   3.861   0.023  0.00  0.00    -0.017 A 
ATOM      8  C   LIG    1       -1.320   3.094   0.030  0.00  0.00    +0.008 A 
ATOM      9  C   LIG    1       -1.240   1.739   0.018  0.00  0.00    +0.001 A 
ATOM     10  C   LIG    1       -0.013   1.076   0.008  0.00  0.00    +0.001 A 
ATOM     11  C   LIG    1        1.164   1.753   0.000  0.00  0.00    +0.008 A 
ATOM     12  C   LIG    1        1.155   3.164   0.008  0.00  0.00    -0.017 A 
ATOM     13  C   LIG    1        2.344   3.892   0.001  0.00  0.00    +0.020 A 
ATOM     14  C   LIG    1        2.299   5.284   0.009  0.00  0.00    +0.028 A 
ENDROOT
BRANCH   1  16
ATOM     15  C   LIG    1        5.853   6.282  -0.016  0.00  0.00    +0.277 C 
ATOM     16  O   LIG    1        4.699   5.439  -0.011  0.00  0.00    -0.494 OA
ENDBRANCH   1  16
BRANCH   4  17
ATOM     17  O   LIG    1       -0.179   8.072   0.047  0.00  0.00    -0.494 OA
ATOM     18  C   LIG    1       -0.108   9.499   0.055  0.00  0.00    +0.277 C 
ENDBRANCH   4  17
TORSDOF 2
