REMARK  Name = ZINC02059632
REMARK                            x       y       z     vdW  Elec       q    Type
REMARK                         _______ _______ _______ _____ _____    ______ ____
ROOT
ATOM      1  N   LIG    1       -4.958   3.250   5.697  0.00  0.00    -0.244 N 
ATOM      2  C   LIG    1       -4.536   2.909   7.056  0.00  0.00    +0.198 C 
ATOM      3  N   LIG    1       -5.695   2.873   7.955  0.00  0.00    -0.321 N 
ATOM      4  H   LIG    1       -5.794   2.159   8.605  0.00  0.00    +0.148 HD
ATOM      5  C   LIG    1       -6.650   3.879   7.858  0.00  0.00    +0.041 A 
ATOM      6  C   LIG    1       -7.411   4.270   8.947  0.00  0.00    +0.024 A 
ATOM      7  C   LIG    1       -8.354   5.269   8.800  0.00  0.00    +0.002 A 
ATOM      8  C   LIG    1       -8.544   5.882   7.572  0.00  0.00    +0.001 A 
ATOM      9  C   LIG    1       -7.793   5.507   6.478  0.00  0.00    +0.015 A 
ATOM     10  C   LIG    1       -6.835   4.504   6.612  0.00  0.00    +0.058 A 
ATOM     11  C   LIG    1       -5.995   4.082   5.478  0.00  0.00    +0.254 C 
ATOM     12  O   LIG    1       -6.237   4.478   4.353  0.00  0.00    -0.270 OA
ENDROOT
BRANCH   1  16
ATOM     13  C   LIG    1       -2.908   1.633   2.451  0.00  0.00    -0.044 A 
ATOM     14  C   LIG    1       -2.994   3.006   2.599  0.00  0.00    +0.006 A 
ATOM     15  C   LIG    1       -3.677   3.545   3.671  0.00  0.00    +0.024 A 
ATOM     16  C   LIG    1       -4.269   2.707   4.608  0.00  0.00    +0.039 A 
ATOM     17  C   LIG    1       -4.176   1.329   4.460  0.00  0.00    +0.024 A 
ATOM     18  C   LIG    1       -3.496   0.796   3.382  0.00  0.00    +0.006 A 
BRANCH  13  19
ATOM     19  C   LIG    1       -2.166   1.048   1.277  0.00  0.00    +0.016 C 
ATOM     20  C   LIG    1       -0.709   1.515   1.310  0.00  0.00    +0.012 C 
BRANCH  19  22
ATOM     21  C   LIG    1       -2.148   0.824  -1.211  0.00  0.00    +0.004 C 
ATOM     22  C   LIG    1       -2.822   1.516  -0.024  0.00  0.00    +0.004 C 
ENDBRANCH  19  22
ENDBRANCH  13  19
ENDBRANCH   1  16
BRANCH   2  23
ATOM     23  C   LIG    1       -3.556   3.943   7.548  0.00  0.00    -0.009 A 
ATOM     24  C   LIG    1       -2.730   4.594   6.650  0.00  0.00    +0.010 A 
ATOM     25  C   LIG    1       -1.835   5.545   7.098  0.00  0.00    +0.046 A 
ATOM     26  C   LIG    1       -1.756   5.840   8.451  0.00  0.00    +0.120 A 
ATOM     27  C   LIG    1       -2.582   5.181   9.351  0.00  0.00    +0.046 A 
ATOM     28  C   LIG    1       -3.479   4.234   8.898  0.00  0.00    +0.010 A 
BRANCH  26  29
ATOM     29  O   LIG    1       -0.872   6.772   8.895  0.00  0.00    -0.495 OA
ATOM     30  C   LIG    1       -0.054   7.410   7.912  0.00  0.00    +0.277 C 
ENDBRANCH  26  29
ENDBRANCH   2  23
TORSDOF 5
