REMARK  Name = ZINC01669786
REMARK                            x       y       z     vdW  Elec       q    Type
REMARK                         _______ _______ _______ _____ _____    ______ ____
ROOT
ATOM      1  S   LIG    1        1.342  -1.730  -0.225  0.00  0.00    -0.027 S 
ENDROOT
BRANCH   1   2
ATOM      2  C   LIG    1        1.698  -0.006  -0.160  0.00  0.00    +0.124 C 
ATOM      3  S   LIG    1        3.320   0.537  -0.230  0.00  0.00    -0.027 S 
BRANCH   2   5
ATOM      4  C   LIG    1       -0.686   0.419   0.116  0.00  0.00    +0.136 C 
ATOM      5  N   LIG    1        0.692   0.886  -0.056  0.00  0.00    -0.291 N 
BRANCH   5   6
ATOM      6  C   LIG    1        0.965   2.256  -0.111  0.00  0.00    +0.034 A 
ATOM      7  C   LIG    1        1.598   2.883   0.955  0.00  0.00    +0.023 A 
ATOM      8  C   LIG    1        1.871   4.236   0.895  0.00  0.00    +0.002 A 
ATOM      9  C   LIG    1        1.504   4.968  -0.219  0.00  0.00    +0.000 A 
ATOM     10  C   LIG    1        0.868   4.348  -1.279  0.00  0.00    +0.002 A 
ATOM     11  C   LIG    1        0.598   2.995  -1.228  0.00  0.00    +0.023 A 
ENDBRANCH   5   6
ENDBRANCH   2   5
ENDBRANCH   1   2
BRANCH   1  12
ATOM     12  S   LIG    1        3.254  -2.484  -0.377  0.00  0.00    -0.027 S 
BRANCH  12  13
ATOM     13  C   LIG    1        3.696  -2.541   1.328  0.00  0.00    +0.124 C 
ATOM     14  S   LIG    1        2.580  -2.027   2.520  0.00  0.00    -0.027 S 
BRANCH  13  15
ATOM     15  N   LIG    1        4.913  -2.990   1.693  0.00  0.00    -0.291 N 
ATOM     16  C   LIG    1        5.904  -3.336   0.671  0.00  0.00    +0.136 C 
BRANCH  15  17
ATOM     17  C   LIG    1        5.231  -3.126   3.049  0.00  0.00    +0.034 A 
ATOM     18  C   LIG    1        6.191  -2.304   3.624  0.00  0.00    +0.023 A 
ATOM     19  C   LIG    1        6.499  -2.437   4.964  0.00  0.00    +0.002 A 
ATOM     20  C   LIG    1        5.859  -3.394   5.730  0.00  0.00    +0.000 A 
ATOM     21  C   LIG    1        4.906  -4.218   5.159  0.00  0.00    +0.002 A 
ATOM     22  C   LIG    1        4.590  -4.086   3.821  0.00  0.00    +0.023 A 
ENDBRANCH  15  17
ENDBRANCH  13  15
ENDBRANCH  12  13
ENDBRANCH   1  12
TORSDOF 7
