REMARK  Name = ZINC01847743
REMARK                            x       y       z     vdW  Elec       q    Type
REMARK                         _______ _______ _______ _____ _____    ______ ____
ROOT
ATOM      1  C   LIG    1       -1.110  -1.638   3.622  0.00  0.00    +0.318 C 
ATOM      2  O   LIG    1       -0.107  -2.285   3.810  0.00  0.00    -0.250 OA
ENDROOT
BRANCH   1   3
ATOM      3  C   LIG    1       -1.837  -1.020   4.789  0.00  0.00    +0.093 C 
ATOM      4  C   LIG    1       -1.829   0.513   4.663  0.00  0.00    +0.023 C 
ATOM      5  C   LIG    1       -1.095   1.054   5.907  0.00  0.00    +0.001 C 
ATOM      6  C   LIG    1       -0.204  -0.127   6.365  0.00  0.00    +0.001 C 
ATOM      7  C   LIG    1       -1.107  -1.358   6.105  0.00  0.00    +0.023 C 
BRANCH   3   8
ATOM      8  C   LIG    1       -3.255  -1.528   4.840  0.00  0.00    -0.031 A 
ATOM      9  C   LIG    1       -3.661  -2.532   3.981  0.00  0.00    +0.005 A 
ATOM     10  C   LIG    1       -4.962  -2.998   4.027  0.00  0.00    +0.000 A 
ATOM     11  C   LIG    1       -5.856  -2.460   4.934  0.00  0.00    +0.000 A 
ATOM     12  C   LIG    1       -5.450  -1.457   5.794  0.00  0.00    +0.000 A 
ATOM     13  C   LIG    1       -4.148  -0.994   5.750  0.00  0.00    +0.005 A 
ENDBRANCH   3   8
ENDBRANCH   1   3
BRANCH   1  14
ATOM     14  O   LIG    1       -1.576  -1.468   2.375  0.00  0.00    -0.466 OA
BRANCH  14  15
ATOM     15  C   LIG    1       -0.836  -2.081   1.317  0.00  0.00    +0.214 C 
BRANCH  15  16
ATOM     16  C   LIG    1       -1.515  -1.780  -0.021  0.00  0.00    -0.037 C 
BRANCH  16  17
ATOM     17  N   LIG    1       -1.452  -0.337  -0.288  0.00  0.00    +0.382 N 
ATOM     18  H   LIG    1       -1.853   0.167   0.489  0.00  0.00    -0.082 HD
BRANCH  17  20
ATOM     19  C   LIG    1        0.027   1.589  -0.602  0.00  0.00    -0.017 C 
ATOM     20  C   LIG    1       -0.051   0.068  -0.463  0.00  0.00    -0.082 C 
ENDBRANCH  17  20
BRANCH  17  21
ATOM     21  C   LIG    1       -2.206  -0.032  -1.511  0.00  0.00    -0.082 C 
ATOM     22  C   LIG    1       -3.691  -0.319  -1.279  0.00  0.00    -0.017 C 
ENDBRANCH  17  21
ENDBRANCH  16  17
ENDBRANCH  15  16
ENDBRANCH  14  15
ENDBRANCH   1  14
TORSDOF 8
