REMARK  Name = ZINC02084106
REMARK                            x       y       z     vdW  Elec       q    Type
REMARK                         _______ _______ _______ _____ _____    ______ ____
ROOT
ATOM      1  N   LIG    1        3.604   1.509   1.324  0.00  0.00    -0.275 N 
ATOM      2  H   LIG    1        3.803   2.437   1.524  0.00  0.00    +0.156 HD
ATOM      3  C   LIG    1        4.599   0.601   1.278  0.00  0.00    +0.249 C 
ATOM      4  O   LIG    1        4.350  -0.562   1.028  0.00  0.00    -0.270 OA
ENDROOT
BRANCH   3   5
ATOM      5  C   LIG    1        5.994   1.020   1.533  0.00  0.00    +0.048 A 
ATOM      6  C   LIG    1        6.326   2.357   1.704  0.00  0.00    +0.042 A 
ATOM      7  C   LIG    1        7.663   2.708   1.944  0.00  0.00    +0.072 A 
ATOM      8  N   LIG    1        8.624   1.812   2.014  0.00  0.00    -0.247 NA
ATOM      9  C   LIG    1        8.395   0.507   1.862  0.00  0.00    +0.072 A 
ATOM     10  C   LIG    1        9.444  -0.429   1.943  0.00  0.00    +0.028 A 
ATOM     11  C   LIG    1        9.177  -1.755   1.799  0.00  0.00    +0.002 A 
ATOM     12  C   LIG    1        7.880  -2.206   1.557  0.00  0.00    +0.001 A 
ATOM     13  C   LIG    1        6.841  -1.329   1.467  0.00  0.00    +0.011 A 
ATOM     14  C   LIG    1        7.078   0.042   1.620  0.00  0.00    +0.013 A 
BRANCH   7  15
ATOM     15  C   LIG    1        8.005   4.140   2.125  0.00  0.00    +0.001 A 
ATOM     16  C   LIG    1        6.996   5.101   2.161  0.00  0.00    +0.010 A 
ATOM     17  C   LIG    1        7.319   6.432   2.330  0.00  0.00    +0.001 A 
ATOM     18  C   LIG    1        8.643   6.812   2.465  0.00  0.00    +0.003 A 
ATOM     19  C   LIG    1        9.648   5.863   2.431  0.00  0.00    -0.050 A 
ATOM     20  C   LIG    1       11.087   6.286   2.580  0.00  0.00    +0.044 C 
ATOM     21  C   LIG    1        9.336   4.529   2.267  0.00  0.00    +0.013 A 
ENDBRANCH   7  15
ENDBRANCH   3   5
BRANCH   1  26
ATOM     22  C   LIG    1       -0.033  -0.075   0.568  0.00  0.00    +0.079 A 
ATOM     23  C   LIG    1       -0.062   1.270   0.817  0.00  0.00    -0.015 A 
ATOM     24  C   LIG    1       -1.358   2.040   0.792  0.00  0.00    +0.046 C 
ATOM     25  C   LIG    1        1.142   1.901   1.087  0.00  0.00    +0.091 A 
ATOM     26  C   LIG    1        2.302   1.118   1.086  0.00  0.00    +0.087 A 
ATOM     27  S   LIG    1        1.700  -0.464   0.713  0.00  0.00    -0.068 S 
BRANCH  22  29
ATOM     28  N   LIG    1       -0.907  -2.246  -0.111  0.00  0.00    -0.298 N 
ATOM     29  C   LIG    1       -1.149  -0.972   0.258  0.00  0.00    +0.254 C 
ATOM     30  O   LIG    1       -2.294  -0.567   0.334  0.00  0.00    -0.269 OA
BRANCH  28  32
ATOM     31  C   LIG    1       -2.271  -3.005  -1.994  0.00  0.00    +0.024 C 
ATOM     32  C   LIG    1       -2.018  -3.122  -0.489  0.00  0.00    +0.105 C 
ENDBRANCH  28  32
BRANCH  28  33
ATOM     33  C   LIG    1        0.467  -2.754  -0.133  0.00  0.00    +0.105 C 
ATOM     34  C   LIG    1        0.874  -3.187   1.277  0.00  0.00    +0.024 C 
ENDBRANCH  28  33
ENDBRANCH  22  29
BRANCH  25  35
ATOM     35  C   LIG    1        1.199   3.341   1.364  0.00  0.00    +0.342 C 
ATOM     36  O   LIG    1        1.093   3.745   2.506  0.00  0.00    -0.245 OA
BRANCH  35  37
ATOM     37  O   LIG    1        1.369   4.216   0.353  0.00  0.00    -0.464 OA
ATOM     38  C   LIG    1        1.416   5.625   0.701  0.00  0.00    +0.280 C 
ENDBRANCH  35  37
ENDBRANCH  25  35
ENDBRANCH   1  26
TORSDOF 8
