REMARK  Name = ZINC02162241
REMARK                            x       y       z     vdW  Elec       q    Type
REMARK                         _______ _______ _______ _____ _____    ______ ____
ROOT
ATOM      1  C   LIG    1        1.910   6.920   0.204  0.00  0.00    +0.162 A 
ATOM      2  C   LIG    1        2.540   5.696   0.104  0.00  0.00    +0.057 A 
ATOM      3  C   LIG    1        1.780   4.519   0.107  0.00  0.00    -0.020 A 
ATOM      4  C   LIG    1        0.386   4.592   0.222  0.00  0.00    +0.012 A 
ATOM      5  C   LIG    1       -0.233   5.818   0.326  0.00  0.00    +0.050 A 
ATOM      6  C   LIG    1        0.521   6.984   0.318  0.00  0.00    +0.162 A 
ENDROOT
BRANCH   3   7
ATOM      7  C   LIG    1        2.443   3.214  -0.004  0.00  0.00    +0.028 C 
ATOM      8  C   LIG    1        3.769   3.148  -0.288  0.00  0.00    +0.080 C 
ATOM      9  C   LIG    1        4.672   1.980  -0.299  0.00  0.00    +0.261 C 
ATOM     10  N   LIG    1        5.935   2.211  -0.616  0.00  0.00    -0.224 N 
ATOM     11  C   LIG    1        6.371   3.451  -0.916  0.00  0.00    +0.286 C 
ATOM     12  O   LIG    1        7.494   3.804  -1.223  0.00  0.00    -0.262 OA
ATOM     13  O   LIG    1        4.275   0.862  -0.029  0.00  0.00    -0.269 OA
ATOM     14  S   LIG    1        4.901   4.452  -0.752  0.00  0.00    -0.026 S 
BRANCH  10  15
ATOM     15  C   LIG    1        6.882   1.093  -0.644  0.00  0.00    +0.152 C 
BRANCH  15  16
ATOM     16  C   LIG    1        7.510   0.933   0.716  0.00  0.00    -0.029 A 
ATOM     17  C   LIG    1        8.679   1.606   1.020  0.00  0.00    +0.008 A 
ATOM     18  C   LIG    1        9.253   1.464   2.269  0.00  0.00    +0.038 A 
ATOM     19  C   LIG    1        8.663   0.639   3.212  0.00  0.00    +0.123 A 
ATOM     20  F   LIG    1        9.227   0.496   4.432  0.00  0.00    -0.205 F 
ATOM     21  C   LIG    1        7.496  -0.039   2.904  0.00  0.00    +0.038 A 
ATOM     22  C   LIG    1        6.921   0.108   1.656  0.00  0.00    +0.008 A 
ENDBRANCH  15  16
ENDBRANCH  10  15
ENDBRANCH   3   7
BRANCH   1  24
ATOM     23  C   LIG    1        4.061   7.926   0.077  0.00  0.00    +0.277 C 
ATOM     24  O   LIG    1        2.644   8.065   0.197  0.00  0.00    -0.491 OA
ENDBRANCH   1  24
BRANCH   6  25
ATOM     25  O   LIG    1       -0.095   8.190   0.421  0.00  0.00    -0.484 OA
BRANCH  25  26
ATOM     26  C   LIG    1       -1.520   8.182   0.534  0.00  0.00    +0.264 C 
BRANCH  26  27
ATOM     27  C   LIG    1       -2.023   9.599   0.638  0.00  0.00    -0.010 A 
ATOM     28  C   LIG    1       -2.164  10.194   1.878  0.00  0.00    +0.007 A 
ATOM     29  C   LIG    1       -2.620  11.495   1.972  0.00  0.00    +0.000 A 
ATOM     30  C   LIG    1       -2.946  12.198   0.827  0.00  0.00    +0.000 A 
ATOM     31  C   LIG    1       -2.810  11.602  -0.412  0.00  0.00    +0.000 A 
ATOM     32  C   LIG    1       -2.349  10.302  -0.507  0.00  0.00    +0.007 A 
ENDBRANCH  26  27
ENDBRANCH  25  26
ENDBRANCH   6  25
TORSDOF 7
