REMARK  Name = ZINC02033971
REMARK                            x       y       z     vdW  Elec       q    Type
REMARK                         _______ _______ _______ _____ _____    ______ ____
ROOT
ATOM      1  C   LIG    1       -0.018   1.465   0.010  0.00  0.00    +0.105 C 
ATOM      2  N   LIG    1        0.002  -0.004   0.002  0.00  0.00    -0.298 NA
ATOM      3  C   LIG    1       -1.355  -0.547  -0.077  0.00  0.00    +0.089 C 
ATOM      4  C   LIG    1       -1.325  -2.044  -0.336  0.00  0.00    +0.051 C 
ATOM      5  C   LIG    1       -0.214  -2.730   0.405  0.00  0.00    -0.041 A 
ATOM      6  C   LIG    1       -0.168  -4.119   0.376  0.00  0.00    +0.004 A 
ATOM      7  C   LIG    1        0.816  -4.808   1.056  0.00  0.00    +0.001 A 
ATOM      8  C   LIG    1        1.773  -4.117   1.771  0.00  0.00    +0.009 A 
ATOM      9  C   LIG    1        1.747  -2.727   1.788  0.00  0.00    -0.009 A 
ATOM     10  C   LIG    1        2.769  -1.967   2.545  0.00  0.00    +0.031 A 
ATOM     11  C   LIG    1        3.548  -2.594   3.517  0.00  0.00    +0.167 A 
ATOM     12  C   LIG    1        4.490  -1.853   4.225  0.00  0.00    +0.162 A 
ATOM     13  C   LIG    1        4.646  -0.501   3.963  0.00  0.00    +0.050 A 
ATOM     14  C   LIG    1        3.876   0.117   2.992  0.00  0.00    +0.008 A 
ATOM     15  C   LIG    1        2.945  -0.610   2.279  0.00  0.00    -0.034 A 
ATOM     16  C   LIG    1        2.120   0.051   1.208  0.00  0.00    +0.059 C 
ATOM     17  C   LIG    1        0.742  -2.032   1.110  0.00  0.00    -0.019 A 
ATOM     18  C   LIG    1        0.707  -0.528   1.182  0.00  0.00    +0.092 C 
ENDROOT
BRANCH  11  19
ATOM     19  O   LIG    1        3.390  -3.920   3.770  0.00  0.00    -0.503 OA
ATOM     20  H   LIG    1        3.953  -4.493   3.232  0.00  0.00    +0.292 HD
ENDBRANCH  11  19
BRANCH  12  21
ATOM     21  O   LIG    1        5.256  -2.455   5.173  0.00  0.00    -0.491 OA
ATOM     22  C   LIG    1        6.202  -1.634   5.861  0.00  0.00    +0.277 C 
ENDBRANCH  12  21
TORSDOF 2
