REMARK  Name = ZINC01846130
REMARK                            x       y       z     vdW  Elec       q    Type
REMARK                         _______ _______ _______ _____ _____    ______ ____
ROOT
ATOM      1  C   LIG    1       -1.412  -0.526   0.013  0.00  0.00    -0.034 A 
ATOM      2  C   LIG    1       -2.259  -0.204   1.056  0.00  0.00    +0.005 A 
ATOM      3  C   LIG    1       -3.556  -0.683   1.066  0.00  0.00    +0.004 A 
ATOM      4  C   LIG    1       -4.006  -1.482   0.032  0.00  0.00    -0.047 A 
ATOM      5  C   LIG    1       -3.159  -1.803  -1.012  0.00  0.00    +0.004 A 
ATOM      6  C   LIG    1       -1.863  -1.321  -1.024  0.00  0.00    +0.005 A 
ENDROOT
BRANCH   1   8
ATOM      7  C   LIG    1       -0.019   1.526   0.010  0.00  0.00    +0.024 C 
ATOM      8  C   LIG    1        0.002  -0.004   0.002  0.00  0.00    +0.124 C 
BRANCH   8   9
ATOM      9  C   LIG    1        0.731  -0.503   1.223  0.00  0.00    +0.312 C 
ATOM     10  O   LIG    1        0.156  -1.216   2.027  0.00  0.00    -0.250 OA
BRANCH   9  11
ATOM     11  O   LIG    1        1.896  -0.194   1.406  0.00  0.00    -0.480 OA
ATOM     12  H   LIG    1        2.338   0.354   0.788  0.00  0.00    +0.295 HD
ENDBRANCH   9  11
ENDBRANCH   8   9
ENDBRANCH   1   8
BRANCH   4  13
ATOM     13  C   LIG    1       -5.419  -2.005   0.043  0.00  0.00    +0.046 C 
BRANCH  13  14
ATOM     14  C   LIG    1       -6.337  -1.009  -0.669  0.00  0.00    +0.060 C 
ATOM     15  C   LIG    1       -7.803  -1.477  -0.568  0.00  0.00    +0.012 C 
ATOM     16  C   LIG    1       -8.406  -1.100  -1.945  0.00  0.00    +0.008 C 
ATOM     17  C   LIG    1       -7.230  -1.388  -2.911  0.00  0.00    +0.074 C 
ATOM     18  C   LIG    1       -5.994  -0.951  -2.143  0.00  0.00    +0.137 C 
ATOM     19  O   LIG    1       -4.934  -0.620  -2.619  0.00  0.00    -0.297 OA
ENDBRANCH  13  14
ENDBRANCH   4  13
TORSDOF 5
