REMARK  Name = ZINC01701218
REMARK                            x       y       z     vdW  Elec       q    Type
REMARK                         _______ _______ _______ _____ _____    ______ ____
ROOT
ATOM      1  C   LIG    1        1.168   3.570   0.010  0.00  0.00    -0.016 A 
ATOM      2  C   LIG    1        2.365   4.275   0.002  0.00  0.00    +0.027 A 
ATOM      3  C   LIG    1        2.348   5.671   0.009  0.00  0.00    +0.102 A 
ATOM      4  C   LIG    1        1.122   6.351   0.023  0.00  0.00    +0.145 A 
ATOM      5  C   LIG    1       -0.068   5.635   0.031  0.00  0.00    +0.061 A 
ATOM      6 BR   LIG    1       -1.721   6.554   0.050  0.00  0.00    -0.046 Br
ATOM      7  C   LIG    1       -0.048   4.256   0.019  0.00  0.00    +0.027 A 
ENDROOT
BRANCH   1  11
ATOM      8  C   LIG    1        1.208  -0.682  -0.013  0.00  0.00    +0.000 A 
ATOM      9  C   LIG    1        0.002  -0.004   0.002  0.00  0.00    +0.001 A 
ATOM     10  C   LIG    1       -0.017   1.376   0.010  0.00  0.00    +0.008 A 
ATOM     11  C   LIG    1        1.182   2.086   0.002  0.00  0.00    -0.018 A 
ATOM     12  C   LIG    1        2.394   1.399  -0.013  0.00  0.00    +0.008 A 
ATOM     13  C   LIG    1        2.401   0.018  -0.020  0.00  0.00    +0.001 A 
ENDBRANCH   1  11
BRANCH   3  14
ATOM     14  C   LIG    1        3.614   6.426   0.001  0.00  0.00    +0.340 C 
ATOM     15  O   LIG    1        3.596   7.641   0.007  0.00  0.00    -0.245 OA
BRANCH  14  16
ATOM     16  O   LIG    1        4.791   5.770  -0.012  0.00  0.00    -0.477 OA
ATOM     17  H   LIG    1        4.804   4.833  -0.017  0.00  0.00    +0.295 HD
ENDBRANCH  14  16
ENDBRANCH   3  14
BRANCH   4  18
ATOM     18  O   LIG    1        1.098   7.707   0.030  0.00  0.00    -0.505 OA
ATOM     19  H   LIG    1        1.083   8.105  -0.851  0.00  0.00    +0.292 HD
ENDBRANCH   4  18
TORSDOF 4
