REMARK  Name = ZINC02235791
REMARK                            x       y       z     vdW  Elec       q    Type
REMARK                         _______ _______ _______ _____ _____    ______ ____
ROOT
ATOM      1  N   LIG    1       -0.603  -2.456  -3.925  0.00  0.00    -0.262 N 
ATOM      2  H   LIG    1       -1.180  -2.102  -3.230  0.00  0.00    +0.157 HD
ENDROOT
BRANCH   1  11
ATOM      3  C   LIG    1        1.448  -2.344  -2.516  0.00  0.00    +0.091 A 
ATOM      4  C   LIG    1        2.876  -2.619  -2.515  0.00  0.00    -0.021 A 
ATOM      5  C   LIG    1        3.342  -3.117  -3.680  0.00  0.00    -0.004 A 
ATOM      6  C   LIG    1        4.757  -3.498  -3.993  0.00  0.00    +0.043 C 
ATOM      7  C   LIG    1        5.670  -2.888  -2.919  0.00  0.00    +0.005 C 
ATOM      8  C   LIG    1        5.082  -3.191  -1.538  0.00  0.00    +0.005 C 
ATOM      9  S   LIG    1        1.922  -3.212  -4.730  0.00  0.00    -0.077 S 
ATOM     10  C   LIG    1        3.799  -2.383  -1.329  0.00  0.00    +0.037 C 
ATOM     11  C   LIG    1        0.750  -2.624  -3.681  0.00  0.00    +0.088 A 
BRANCH   3  12
ATOM     12  C   LIG    1        0.776  -1.800  -1.335  0.00  0.00    +0.342 C 
ATOM     13  O   LIG    1        0.312  -2.552  -0.499  0.00  0.00    -0.245 OA
BRANCH  12  14
ATOM     14  O   LIG    1        0.671  -0.465  -1.174  0.00  0.00    -0.461 OA
BRANCH  14  16
ATOM     15  C   LIG    1       -0.019   1.526   0.010  0.00  0.00    +0.048 C 
ATOM     16  C   LIG    1        0.002  -0.004   0.002  0.00  0.00    +0.229 C 
ENDBRANCH  14  16
ENDBRANCH  12  14
ENDBRANCH   3  12
ENDBRANCH   1  11
BRANCH   1  17
ATOM     17  C   LIG    1       -1.128  -2.790  -5.152  0.00  0.00    +0.303 C 
ATOM     18  N   LIG    1       -2.399  -2.632  -5.381  0.00  0.00    -0.076 NA
BRANCH  18  19
ATOM     19  S   LIG    1       -3.031  -3.034  -6.857  0.00  0.00    +0.103 S 
ATOM     20  O   LIG    1       -2.903  -4.444  -6.983  0.00  0.00    -0.146 OA
ATOM     21  O   LIG    1       -2.469  -2.131  -7.800  0.00  0.00    -0.146 OA
BRANCH  19  22
ATOM     22  C   LIG    1       -4.757  -2.688  -6.797  0.00  0.00    +0.113 A 
ATOM     23  C   LIG    1       -5.643  -3.663  -6.375  0.00  0.00    +0.029 A 
ATOM     24  C   LIG    1       -6.998  -3.391  -6.328  0.00  0.00    +0.005 A 
ATOM     25  C   LIG    1       -7.467  -2.146  -6.701  0.00  0.00    -0.050 A 
ATOM     26  C   LIG    1       -8.944  -1.850  -6.651  0.00  0.00    +0.044 C 
ATOM     27  C   LIG    1       -6.581  -1.171  -7.122  0.00  0.00    +0.005 A 
ATOM     28  C   LIG    1       -5.226  -1.441  -7.165  0.00  0.00    +0.029 A 
ENDBRANCH  19  22
ENDBRANCH  18  19
BRANCH  17  29
ATOM     29  O   LIG    1       -0.324  -3.283  -6.120  0.00  0.00    -0.480 OA
ATOM     30  H   LIG    1        0.591  -3.397  -5.955  0.00  0.00    +0.295 HD
ENDBRANCH  17  29
ENDBRANCH   1  17
TORSDOF 8
