REMARK  Name = ZINC02017910
REMARK                            x       y       z     vdW  Elec       q    Type
REMARK                         _______ _______ _______ _____ _____    ______ ____
ROOT
ATOM      1  N   LIG    1        0.002  -0.004   0.002  0.00  0.00    -0.206 N 
ATOM      2  C   LIG    1        0.320   1.306  -0.005  0.00  0.00    +0.412 C 
ATOM      3  O   LIG    1       -0.536   2.137  -0.235  0.00  0.00    -0.225 OA
ENDROOT
BRANCH   1   7
ATOM      4  C   LIG    1        2.988  -2.869   0.490  0.00  0.00    +0.000 A 
ATOM      5  C   LIG    1        2.036  -2.691   1.477  0.00  0.00    +0.002 A 
ATOM      6  C   LIG    1        1.045  -1.742   1.318  0.00  0.00    +0.024 A 
ATOM      7  C   LIG    1        1.006  -0.967   0.166  0.00  0.00    +0.044 A 
ATOM      8  C   LIG    1        1.960  -1.153  -0.825  0.00  0.00    +0.024 A 
ATOM      9  C   LIG    1        2.952  -2.099  -0.657  0.00  0.00    +0.002 A 
ENDBRANCH   1   7
BRANCH   1  10
ATOM     10  C   LIG    1       -1.331  -0.402  -0.155  0.00  0.00    +0.044 A 
ATOM     11  C   LIG    1       -2.260  -0.133   0.843  0.00  0.00    +0.024 A 
ATOM     12  C   LIG    1       -3.575  -0.522   0.682  0.00  0.00    +0.002 A 
ATOM     13  C   LIG    1       -3.966  -1.188  -0.464  0.00  0.00    +0.000 A 
ATOM     14  C   LIG    1       -3.043  -1.463  -1.457  0.00  0.00    +0.002 A 
ATOM     15  C   LIG    1       -1.727  -1.071  -1.305  0.00  0.00    +0.024 A 
ENDBRANCH   1  10
BRANCH   2  16
ATOM     16  O   LIG    1        1.586   1.693   0.237  0.00  0.00    -0.448 OA
BRANCH  16  17
ATOM     17  C   LIG    1        1.856   3.119   0.214  0.00  0.00    +0.165 C 
ATOM     18  C   LIG    1        1.673   3.699   1.619  0.00  0.00    -0.033 C 
ATOM     19  N   LIG    1        2.935   4.306   2.096  0.00  0.00    +0.382 N 
ATOM     20  H   LIG    1        2.786   4.687   3.038  0.00  0.00    -0.082 HD
ATOM     21  C   LIG    1        3.998   3.280   2.155  0.00  0.00    -0.078 C 
ATOM     22  C   LIG    1        4.247   2.688   0.765  0.00  0.00    -0.012 C 
ATOM     23  C   LIG    1        3.341   5.403   1.192  0.00  0.00    -0.078 C 
ATOM     24  C   LIG    1        3.571   4.872  -0.225  0.00  0.00    -0.012 C 
ATOM     25  C   LIG    1        3.302   3.362  -0.238  0.00  0.00    +0.025 C 
ENDBRANCH  16  17
ENDBRANCH   2  16
TORSDOF 4
