REMARK  Name = ZINC02008850
REMARK                            x       y       z     vdW  Elec       q    Type
REMARK                         _______ _______ _______ _____ _____    ______ ____
ROOT
ATOM      1  C   LIG    1        4.863   1.452   1.041  0.00  0.00    +0.037 A 
ATOM      2  C   LIG    1        6.015   2.057   0.554  0.00  0.00    +0.127 A 
ATOM      3  C   LIG    1        5.945   2.995  -0.469  0.00  0.00    +0.092 A 
ATOM      4  C   LIG    1        4.720   3.339  -1.011  0.00  0.00    +0.134 A 
ATOM      5  C   LIG    1        3.552   2.736  -0.518  0.00  0.00    +0.101 A 
ATOM      6  C   LIG    1        2.238   3.091  -1.066  0.00  0.00    +0.174 C 
ATOM      7  O   LIG    1        2.088   4.053  -1.790  0.00  0.00    -0.292 OA
ATOM      8  C   LIG    1        1.076   2.193  -0.680  0.00  0.00    +0.129 C 
ATOM      9  C   LIG    1        1.253   1.833   0.802  0.00  0.00    +0.215 C 
ATOM     10  O   LIG    1        2.510   1.180   0.983  0.00  0.00    -0.482 OA
ATOM     11  C   LIG    1        3.628   1.780   0.512  0.00  0.00    +0.142 A 
ENDROOT
BRANCH   9  12
ATOM     12  C   LIG    1        0.141   0.911   1.232  0.00  0.00    +0.035 A 
ATOM     13  C   LIG    1        0.334  -0.457   1.217  0.00  0.00    +0.014 A 
ATOM     14  C   LIG    1       -0.684  -1.304   1.610  0.00  0.00    +0.046 A 
ATOM     15  C   LIG    1       -1.903  -0.783   2.022  0.00  0.00    +0.120 A 
ATOM     16  C   LIG    1       -2.098   0.589   2.038  0.00  0.00    +0.091 A 
ATOM     17  C   LIG    1       -1.075   1.438   1.642  0.00  0.00    +0.127 A 
BRANCH  15  18
ATOM     18  O   LIG    1       -2.904  -1.617   2.408  0.00  0.00    -0.507 OA
ATOM     19  H   LIG    1       -3.488  -1.891   1.688  0.00  0.00    +0.292 HD
ENDBRANCH  15  18
BRANCH  17  20
ATOM     20  O   LIG    1       -1.264   2.783   1.657  0.00  0.00    -0.506 OA
ATOM     21  H   LIG    1       -1.024   3.205   2.493  0.00  0.00    +0.292 HD
ENDBRANCH  17  20
ENDBRANCH   9  12
BRANCH   2  22
ATOM     22  O   LIG    1        7.221   1.727   1.081  0.00  0.00    -0.506 OA
ATOM     23  H   LIG    1        7.521   2.324   1.780  0.00  0.00    +0.292 HD
ENDBRANCH   2  22
BRANCH   4  24
ATOM     24  O   LIG    1        4.648   4.253  -2.010  0.00  0.00    -0.506 OA
ATOM     25  H   LIG    1        4.544   5.164  -1.704  0.00  0.00    +0.292 HD
ENDBRANCH   4  24
BRANCH   1  26
ATOM     26  C   LIG    1        4.960   0.435   2.148  0.00  0.00    +0.050 C 
BRANCH  26  27
ATOM     27  C   LIG    1        4.992   1.153   3.499  0.00  0.00    +0.022 C 
BRANCH  27  28
ATOM     28  C   LIG    1        5.247   0.150   4.595  0.00  0.00    -0.076 C 
ATOM     29  C   LIG    1        4.274  -0.977   4.826  0.00  0.00    +0.039 C 
ATOM     30  C   LIG    1        6.314   0.259   5.347  0.00  0.00    +0.007 C 
ENDBRANCH  27  28
BRANCH  27  31
ATOM     31  C   LIG    1        3.649   1.844   3.742  0.00  0.00    +0.035 C 
BRANCH  31  35
ATOM     32  C   LIG    1        3.344   4.647   3.656  0.00  0.00    +0.038 C 
ATOM     33  C   LIG    1        3.514   3.945   4.979  0.00  0.00    -0.080 C 
ATOM     34  C   LIG    1        3.444   4.730   6.263  0.00  0.00    +0.038 C 
ATOM     35  C   LIG    1        3.722   2.652   5.012  0.00  0.00    -0.028 C 
ENDBRANCH  31  35
ENDBRANCH  27  31
ENDBRANCH  26  27
ENDBRANCH   1  26
TORSDOF 10
