REMARK  Name = ZINC02012436
REMARK                            x       y       z     vdW  Elec       q    Type
REMARK                         _______ _______ _______ _____ _____    ______ ____
ROOT
ATOM      1  C   LIG    1       -4.655   0.354  -0.560  0.00  0.00    +0.034 C 
ENDROOT
BRANCH   1   2
ATOM      2  C   LIG    1       -3.561  -0.687  -0.318  0.00  0.00    +0.104 C 
BRANCH   2   3
ATOM      3  N   LIG    1       -2.260  -0.018  -0.236  0.00  0.00    -0.330 N 
ATOM      4  H   LIG    1       -2.210   0.950  -0.253  0.00  0.00    +0.147 HD
BRANCH   3   7
ATOM      5  C   LIG    1       -0.298   0.297  -2.245  0.00  0.00    +0.053 C 
ATOM      6  C   LIG    1       -0.131  -0.647  -1.082  0.00  0.00    +0.052 A 
ATOM      7  C   LIG    1       -1.111  -0.762  -0.137  0.00  0.00    +0.111 A 
ATOM      8  N   LIG    1       -0.936  -1.629   0.915  0.00  0.00    -0.285 N 
ATOM      9  C   LIG    1       -1.982  -1.759   1.933  0.00  0.00    +0.155 C 
ATOM     10  C   LIG    1        0.190  -2.359   1.014  0.00  0.00    +0.333 A 
ATOM     11  N   LIG    1        1.165  -2.258   0.093  0.00  0.00    -0.264 N 
ATOM     12  C   LIG    1        2.379  -3.066   0.229  0.00  0.00    +0.157 C 
ATOM     13  O   LIG    1        0.328  -3.121   1.952  0.00  0.00    -0.246 OA
ATOM     14  C   LIG    1        1.031  -1.424  -0.957  0.00  0.00    +0.261 A 
ATOM     15  O   LIG    1        1.917  -1.341  -1.791  0.00  0.00    -0.267 OA
ENDBRANCH   3   7
ENDBRANCH   2   3
ENDBRANCH   1   2
BRANCH   1  16
ATOM     16  C   LIG    1       -6.013  -0.344  -0.646  0.00  0.00    +0.086 C 
BRANCH  16  17
ATOM     17  N   LIG    1       -7.064   0.656  -0.878  0.00  0.00    -0.299 NA
ATOM     18  C   LIG    1       -6.906   1.290  -2.194  0.00  0.00    +0.103 C 
ATOM     19  C   LIG    1       -7.904   2.446  -2.324  0.00  0.00    +0.120 C 
ATOM     20  N   LIG    1       -9.252   1.933  -2.039  0.00  0.00    -0.325 N 
ATOM     21  C   LIG    1       -9.458   1.166  -0.800  0.00  0.00    +0.120 C 
ATOM     22  C   LIG    1       -8.399   0.061  -0.731  0.00  0.00    +0.103 C 
BRANCH  20  23
ATOM     23  C   LIG    1      -10.312   2.168  -2.922  0.00  0.00    +0.072 A 
ATOM     24  C   LIG    1      -10.580   1.268  -3.943  0.00  0.00    +0.027 A 
ATOM     25  C   LIG    1      -11.627   1.503  -4.814  0.00  0.00    +0.002 A 
ATOM     26  C   LIG    1      -12.409   2.634  -4.671  0.00  0.00    +0.004 A 
ATOM     27  C   LIG    1      -12.149   3.536  -3.656  0.00  0.00    +0.047 A 
ATOM     28  C   LIG    1      -11.104   3.305  -2.776  0.00  0.00    +0.141 A 
BRANCH  28  29
ATOM     29  O   LIG    1      -10.850   4.189  -1.774  0.00  0.00    -0.493 OA
ATOM     30  C   LIG    1      -11.703   5.332  -1.684  0.00  0.00    +0.277 C 
ENDBRANCH  28  29
ENDBRANCH  20  23
ENDBRANCH  16  17
ENDBRANCH   1  16
TORSDOF 7
