REMARK  Name = ZINC02033979
REMARK                            x       y       z     vdW  Elec       q    Type
REMARK                         _______ _______ _______ _____ _____    ______ ____
ROOT
ATOM      1  C   LIG    1        1.170   2.086   0.002  0.00  0.00    -0.034 A 
ATOM      2  C   LIG    1       -0.017   1.376   0.010  0.00  0.00    +0.005 A 
ATOM      3  C   LIG    1        0.002  -0.004   0.002  0.00  0.00    +0.009 A 
ATOM      4  C   LIG    1        1.220  -0.682  -0.013  0.00  0.00    -0.018 A 
ATOM      5  C   LIG    1        2.412   0.039  -0.021  0.00  0.00    +0.009 A 
ATOM      6  C   LIG    1        2.382   1.419  -0.013  0.00  0.00    +0.005 A 
ENDROOT
BRANCH   4   7
ATOM      7  C   LIG    1        1.246  -2.165  -0.021  0.00  0.00    -0.018 A 
ATOM      8  C   LIG    1        0.053  -2.886  -0.007  0.00  0.00    +0.008 A 
ATOM      9  C   LIG    1        0.084  -4.266  -0.020  0.00  0.00    +0.001 A 
ATOM     10  C   LIG    1        1.295  -4.933  -0.035  0.00  0.00    +0.000 A 
ATOM     11  C   LIG    1        2.482  -4.223  -0.043  0.00  0.00    +0.001 A 
ATOM     12  C   LIG    1        2.463  -2.843  -0.036  0.00  0.00    +0.008 A 
ENDBRANCH   4   7
BRANCH   1  14
ATOM     13  C   LIG    1        1.867   4.109   1.255  0.00  0.00    +0.024 C 
ATOM     14  C   LIG    1        1.143   3.593   0.010  0.00  0.00    +0.124 C 
BRANCH  14  15
ATOM     15  C   LIG    1        1.833   4.114  -1.224  0.00  0.00    +0.312 C 
ATOM     16  O   LIG    1        2.299   3.341  -2.028  0.00  0.00    -0.250 OA
BRANCH  15  17
ATOM     17  O   LIG    1        1.930   5.437  -1.431  0.00  0.00    -0.480 OA
ATOM     18  H   LIG    1        1.569   6.036  -0.808  0.00  0.00    +0.295 HD
ENDBRANCH  15  17
ENDBRANCH  14  15
ENDBRANCH   1  14
TORSDOF 4
