REMARK  Name = ZINC02003646
REMARK                            x       y       z     vdW  Elec       q    Type
REMARK                         _______ _______ _______ _____ _____    ______ ____
ROOT
ATOM      1  N   LIG    1        1.464  -6.184  -0.962  0.00  0.00    -0.281 N 
ATOM      2  H   LIG    1        2.144  -6.515  -1.569  0.00  0.00    +0.155 HD
ATOM      3  C   LIG    1        0.669  -7.050  -0.303  0.00  0.00    +0.253 C 
ATOM      4  O   LIG    1       -0.116  -6.642   0.532  0.00  0.00    -0.270 OA
ENDROOT
BRANCH   1   8
ATOM      5  C   LIG    1        1.000  -2.081  -0.390  0.00  0.00    -0.016 A 
ATOM      6  C   LIG    1        2.266  -2.614  -0.631  0.00  0.00    +0.010 A 
ATOM      7  C   LIG    1        2.417  -3.971  -0.820  0.00  0.00    +0.024 A 
ATOM      8  C   LIG    1        1.309  -4.808  -0.770  0.00  0.00    +0.034 A 
ATOM      9  C   LIG    1        0.046  -4.279  -0.531  0.00  0.00    +0.024 A 
ATOM     10  C   LIG    1       -0.109  -2.924  -0.335  0.00  0.00    +0.010 A 
BRANCH   5  15
ATOM     11  C   LIG    1        1.247   1.358   1.108  0.00  0.00    +0.001 A 
ATOM     12  C   LIG    1        0.526   2.104   0.193  0.00  0.00    +0.002 A 
ATOM     13  C   LIG    1       -0.041   1.493  -0.911  0.00  0.00    +0.029 A 
ATOM     14  C   LIG    1        0.110   0.135  -1.105  0.00  0.00    +0.113 A 
ATOM     15  C   LIG    1        0.835  -0.621  -0.187  0.00  0.00    +0.008 A 
ATOM     16  C   LIG    1        1.405  -0.001   0.924  0.00  0.00    +0.010 A 
BRANCH  14  17
ATOM     17  S   LIG    1       -0.614  -0.641  -2.512  0.00  0.00    +0.057 S 
ATOM     18  O   LIG    1       -1.189   0.395  -3.296  0.00  0.00    -0.153 OA
ATOM     19  O   LIG    1       -1.375  -1.738  -2.024  0.00  0.00    -0.153 OA
BRANCH  17  20
ATOM     20  N   LIG    1        0.622  -1.283  -3.407  0.00  0.00    -0.203 NA
ATOM     21  H   LIG    1        0.428  -1.757  -4.231  0.00  0.00    +0.144 HD
ATOM     22  H   LIG    1        1.539  -1.184  -3.108  0.00  0.00    +0.144 HD
ENDBRANCH  17  20
ENDBRANCH  14  17
ENDBRANCH   5  15
ENDBRANCH   1   8
BRANCH   3  23
ATOM     23  C   LIG    1        0.750  -8.492  -0.594  0.00  0.00    +0.103 A 
ATOM     24  C   LIG    1        1.650  -9.107  -1.414  0.00  0.00    +0.243 A 
ATOM     25  O   LIG    1        1.392 -10.417  -1.411  0.00  0.00    -0.362 OA
ATOM     26  N   LIG    1        0.290 -10.678  -0.565  0.00  0.00    -0.078 NA
ATOM     27  C   LIG    1       -0.119  -9.547  -0.051  0.00  0.00    +0.125 A 
BRANCH  27  28
ATOM     28  C   LIG    1       -1.246  -9.362   0.896  0.00  0.00    +0.005 A 
ATOM     29  C   LIG    1       -2.151  -8.318   0.709  0.00  0.00    +0.010 A 
ATOM     30  C   LIG    1       -3.201  -8.145   1.589  0.00  0.00    +0.001 A 
ATOM     31  C   LIG    1       -3.363  -9.003   2.658  0.00  0.00    +0.016 A 
ATOM     32  C   LIG    1       -2.463 -10.052   2.856  0.00  0.00    +0.061 A 
ATOM     33  C   LIG    1       -1.405 -10.234   1.968  0.00  0.00    +0.026 A 
BRANCH  32  34
ATOM     34  C   LIG    1       -2.636 -10.971   4.003  0.00  0.00    +0.266 C 
ATOM     35  N   LIG    1       -3.196 -10.533   5.128  0.00  0.00    -0.288 N 
ATOM     36  H   LIG    1       -3.309 -11.136   5.880  0.00  0.00    +0.301 HD
ATOM     37  H   LIG    1       -3.490  -9.612   5.197  0.00  0.00    +0.301 HD
BRANCH  34  38
ATOM     38  N   LIG    1       -2.232 -12.236   3.908  0.00  0.00    -0.250 N 
ATOM     39  H   LIG    1       -2.345 -12.839   4.660  0.00  0.00    +0.288 HD
ATOM     40  H   LIG    1       -1.824 -12.555   3.088  0.00  0.00    +0.288 HD
ENDBRANCH  34  38
ENDBRANCH  32  34
ENDBRANCH  27  28
ENDBRANCH   3  23
TORSDOF 8
