REMARK  Name = ZINC01681687
REMARK                            x       y       z     vdW  Elec       q    Type
REMARK                         _______ _______ _______ _____ _____    ______ ____
ROOT
ATOM      1  C   LIG    1       -0.414  -1.778  -0.767  0.00  0.00    +0.225 A 
ATOM      2  N   LIG    1        0.852  -2.155  -0.784  0.00  0.00    -0.219 NA
ATOM      3  C   LIG    1        1.834  -1.273  -0.628  0.00  0.00    +0.147 A 
ATOM      4  C   LIG    1        1.498   0.079  -0.444  0.00  0.00    +0.147 A 
ATOM      5  C   LIG    1        0.137   0.428  -0.433  0.00  0.00    +0.168 A 
ATOM      6  N   LIG    1        0.097   1.786  -0.239  0.00  0.00    -0.282 N 
ATOM      7  C   LIG    1        1.384   2.223  -0.139  0.00  0.00    +0.204 A 
ATOM      8  N   LIG    1        2.204   1.220  -0.259  0.00  0.00    -0.231 NA
ATOM      9  N   LIG    1       -0.776  -0.524  -0.597  0.00  0.00    -0.216 NA
ENDROOT
BRANCH   3  10
ATOM     10  N   LIG    1        3.158  -1.677  -0.647  0.00  0.00    -0.341 N 
ATOM     11  H   LIG    1        3.866  -1.025  -0.533  0.00  0.00    +0.144 HD
ATOM     12  H   LIG    1        3.316  -2.337   0.087  0.00  0.00    +0.144 HD
ENDBRANCH   3  10
BRANCH   6  13
ATOM     13  C   LIG    1       -1.109   2.615  -0.161  0.00  0.00    +0.286 C 
BRANCH  13  14
ATOM     14  C   LIG    1       -1.545   3.000  -1.551  0.00  0.00    +0.277 C 
ATOM     15  O   LIG    1       -1.696   4.164  -1.835  0.00  0.00    -0.296 OA
ENDBRANCH  13  14
BRANCH  13  16
ATOM     16  O   LIG    1       -0.827   3.795   0.594  0.00  0.00    -0.337 OA
BRANCH  16  17
ATOM     17  C   LIG    1       -0.980   3.632   2.006  0.00  0.00    +0.209 C 
BRANCH  17  18
ATOM     18  C   LIG    1       -2.409   3.915   2.392  0.00  0.00    +0.257 C 
ATOM     19  O   LIG    1       -3.233   4.134   1.538  0.00  0.00    -0.298 OA
ENDBRANCH  17  18
BRANCH  17  20
ATOM     20  C   LIG    1       -0.052   4.606   2.735  0.00  0.00    +0.195 C 
BRANCH  20  21
ATOM     21  O   LIG    1       -0.461   5.948   2.463  0.00  0.00    -0.392 OA
ATOM     22  H   LIG    1        0.084   6.620   2.894  0.00  0.00    +0.210 HD
ENDBRANCH  20  21
ENDBRANCH  17  20
ENDBRANCH  16  17
ENDBRANCH  13  16
ENDBRANCH   6  13
TORSDOF 8
