REMARK  Name = ZINC02163639
REMARK                            x       y       z     vdW  Elec       q    Type
REMARK                         _______ _______ _______ _____ _____    ______ ____
ROOT
ATOM      1  C   LIG    1        2.918  -6.560  -5.040  0.00  0.00    +0.163 C 
ATOM      2  O   LIG    1        3.361  -5.761  -5.838  0.00  0.00    -0.292 OA
ENDROOT
BRANCH   1   3
ATOM      3  C   LIG    1        3.070  -8.001  -5.281  0.00  0.00    +0.018 A 
ATOM      4  C   LIG    1        2.554  -8.925  -4.364  0.00  0.00    +0.015 A 
ATOM      5  C   LIG    1        2.698 -10.269  -4.594  0.00  0.00    +0.046 A 
ATOM      6  C   LIG    1        3.355 -10.714  -5.737  0.00  0.00    +0.117 A 
ATOM      7  C   LIG    1        3.869  -9.801  -6.651  0.00  0.00    +0.046 A 
ATOM      8  C   LIG    1        3.725  -8.455  -6.433  0.00  0.00    +0.015 A 
BRANCH   6   9
ATOM      9  O   LIG    1        3.495 -12.045  -5.960  0.00  0.00    -0.507 OA
ATOM     10  H   LIG    1        2.768 -12.438  -6.463  0.00  0.00    +0.292 HD
ENDBRANCH   6   9
ENDBRANCH   1   3
BRANCH   1  11
ATOM     11  C   LIG    1        2.213  -6.074  -3.800  0.00  0.00    +0.079 C 
BRANCH  11  12
ATOM     12  C   LIG    1        2.192  -4.544  -3.791  0.00  0.00    +0.008 C 
BRANCH  12  13
ATOM     13  C   LIG    1        1.476  -4.051  -2.532  0.00  0.00    +0.000 C 
BRANCH  13  14
ATOM     14  C   LIG    1        1.455  -2.521  -2.524  0.00  0.00    +0.000 C 
BRANCH  14  15
ATOM     15  C   LIG    1        0.739  -2.027  -1.265  0.00  0.00    -0.000 C 
BRANCH  15  16
ATOM     16  C   LIG    1        0.718  -0.497  -1.257  0.00  0.00    -0.000 C 
BRANCH  16  18
ATOM     17  C   LIG    1       -0.019   1.526   0.010  0.00  0.00    +0.004 C 
ATOM     18  C   LIG    1        0.002  -0.004   0.002  0.00  0.00    -0.003 C 
ENDBRANCH  16  18
ENDBRANCH  15  16
ENDBRANCH  14  15
ENDBRANCH  13  14
ENDBRANCH  12  13
ENDBRANCH  11  12
ENDBRANCH   1  11
TORSDOF 9
