REMARK  Name = ZINC02212042
REMARK                            x       y       z     vdW  Elec       q    Type
REMARK                         _______ _______ _______ _____ _____    ______ ____
ROOT
ATOM      1  C   LIG    1        0.199   0.875   0.638  0.00  0.00    +0.015 A 
ATOM      2  C   LIG    1        1.284   1.710   0.497  0.00  0.00    +0.024 A 
ATOM      3  C   LIG    1        2.564   1.177   0.387  0.00  0.00    +0.035 A 
ATOM      4  C   LIG    1        2.752  -0.201   0.418  0.00  0.00    +0.024 A 
ATOM      5  C   LIG    1        1.671  -1.042   0.559  0.00  0.00    +0.015 A 
ATOM      6  C   LIG    1        0.384  -0.510   0.670  0.00  0.00    +0.037 A 
ENDROOT
BRANCH   6   7
ATOM      7  C   LIG    1       -0.777  -1.408   0.822  0.00  0.00    +0.247 C 
ATOM      8  N   LIG    1       -1.950  -1.099   0.234  0.00  0.00    -0.293 N 
ATOM      9  C   LIG    1       -2.061   0.053  -0.675  0.00  0.00    +0.136 C 
ATOM     10  C   LIG    1       -2.732  -0.417  -1.970  0.00  0.00    +0.179 C 
ATOM     11  O   LIG    1       -3.950  -1.093  -1.651  0.00  0.00    -0.377 OA
ATOM     12  C   LIG    1       -3.775  -2.277  -0.869  0.00  0.00    +0.179 C 
ATOM     13  C   LIG    1       -3.156  -1.906   0.478  0.00  0.00    +0.136 C 
ATOM     14  O   LIG    1       -0.676  -2.427   1.478  0.00  0.00    -0.270 OA
ENDBRANCH   6   7
BRANCH   3  15
ATOM     15  N   LIG    1        3.661   2.026   0.244  0.00  0.00    -0.269 N 
ATOM     16  H   LIG    1        4.513   1.789   0.644  0.00  0.00    +0.156 HD
ATOM     17  C   LIG    1        3.539   3.174  -0.451  0.00  0.00    +0.308 C 
ATOM     18  N   LIG    1        4.564   4.048  -0.494  0.00  0.00    -0.269 N 
ATOM     19  H   LIG    1        5.417   3.815  -0.095  0.00  0.00    +0.156 HD
ATOM     20  O   LIG    1        2.503   3.422  -1.038  0.00  0.00    -0.252 OA
BRANCH  18  21
ATOM     21  C   LIG    1        4.398   5.291  -1.116  0.00  0.00    +0.035 A 
ATOM     22  C   LIG    1        5.456   5.872  -1.802  0.00  0.00    +0.025 A 
ATOM     23  C   LIG    1        5.290   7.099  -2.414  0.00  0.00    +0.022 A 
ATOM     24  C   LIG    1        4.071   7.749  -2.344  0.00  0.00    +0.041 A 
ATOM     25 CL   LIG    1        3.865   9.291  -3.114  0.00  0.00    -0.084 Cl
ATOM     26  C   LIG    1        3.014   7.172  -1.661  0.00  0.00    +0.022 A 
ATOM     27  C   LIG    1        3.174   5.943  -1.052  0.00  0.00    +0.025 A 
ENDBRANCH  18  21
ENDBRANCH   3  15
TORSDOF 3
