REMARK  Name = ZINC02272106
REMARK                            x       y       z     vdW  Elec       q    Type
REMARK                         _______ _______ _______ _____ _____    ______ ____
ROOT
ATOM      1  N   LIG    1        0.028   0.044  -0.015  0.00  0.00    -0.299 N 
ATOM      2  H   LIG    1       -0.809  -0.435   0.088  0.00  0.00    +0.154 HD
ENDROOT
BRANCH   1   7
ATOM      3  C   LIG    1       -1.108   3.432  -0.060  0.00  0.00    +0.320 A 
ATOM      4  N   LIG    1        0.018   4.125  -0.117  0.00  0.00    -0.203 NA
ATOM      5  C   LIG    1        1.193   3.514  -0.143  0.00  0.00    +0.119 A 
ATOM      6  C   LIG    1        1.238   2.134  -0.110  0.00  0.00    +0.064 A 
ATOM      7  C   LIG    1        0.033   1.431  -0.050  0.00  0.00    +0.130 A 
ATOM      8  N   LIG    1       -1.110   2.110  -0.033  0.00  0.00    -0.180 NA
BRANCH   3   9
ATOM      9  O   LIG    1       -2.290   4.094  -0.036  0.00  0.00    -0.462 OA
BRANCH   9  10
ATOM     10  C   LIG    1       -2.235   5.522  -0.074  0.00  0.00    +0.232 C 
BRANCH  10  11
ATOM     11  C   LIG    1       -3.655   6.088  -0.040  0.00  0.00    +0.041 C 
BRANCH  11  13
ATOM     12  C   LIG    1       -5.017   8.183  -0.046  0.00  0.00    +0.004 C 
ATOM     13  C   LIG    1       -3.596   7.616  -0.081  0.00  0.00    -0.000 C 
ENDBRANCH  11  13
ENDBRANCH  10  11
ENDBRANCH   9  10
ENDBRANCH   3   9
ENDBRANCH   1   7
BRANCH   1  14
ATOM     14  C   LIG    1        1.223  -0.658  -0.127  0.00  0.00    +0.046 A 
ATOM     15  C   LIG    1        1.566  -1.265  -1.328  0.00  0.00    +0.024 A 
ATOM     16  C   LIG    1        2.754  -1.958  -1.438  0.00  0.00    +0.002 A 
ATOM     17  C   LIG    1        3.609  -2.062  -0.351  0.00  0.00    +0.001 A 
ATOM     18  C   LIG    1        3.284  -1.472   0.850  0.00  0.00    +0.017 A 
ATOM     19  C   LIG    1        2.086  -0.762   0.976  0.00  0.00    +0.080 A 
BRANCH  19  20
ATOM     20  C   LIG    1        1.732  -0.127   2.257  0.00  0.00    +0.339 C 
ATOM     21  O   LIG    1        0.641   0.389   2.398  0.00  0.00    -0.245 OA
BRANCH  20  22
ATOM     22  O   LIG    1        2.618  -0.119   3.273  0.00  0.00    -0.477 OA
ATOM     23  H   LIG    1        3.459  -0.517   3.164  0.00  0.00    +0.295 HD
ENDBRANCH  20  22
ENDBRANCH  19  20
ENDBRANCH   1  14
TORSDOF 8
