REMARK  Name = ZINC01747039
REMARK                            x       y       z     vdW  Elec       q    Type
REMARK                         _______ _______ _______ _____ _____    ______ ____
ROOT
ATOM      1  C   LIG    1       -2.550   3.703   0.045  0.00  0.00    +0.252 C 
ATOM      2  O   LIG    1       -2.616   4.915   0.052  0.00  0.00    -0.281 OA
ENDROOT
BRANCH   1   7
ATOM      3  C   LIG    1        1.162   3.162   0.007  0.00  0.00    +0.004 A 
ATOM      4  C   LIG    1        1.185   1.776   0.000  0.00  0.00    +0.020 A 
ATOM      5  C   LIG    1       -0.013   1.076   0.008  0.00  0.00    +0.111 A 
ATOM      6  N   LIG    1       -1.165   1.708   0.017  0.00  0.00    -0.252 NA
ATOM      7  C   LIG    1       -1.231   3.035   0.029  0.00  0.00    +0.114 A 
ATOM      8  C   LIG    1       -0.066   3.804   0.022  0.00  0.00    +0.032 A 
ENDBRANCH   1   7
BRANCH   1   9
ATOM      9  C   LIG    1       -3.798   2.889   0.053  0.00  0.00    +0.252 C 
ATOM     10  O   LIG    1       -3.732   1.677   0.046  0.00  0.00    -0.281 OA
BRANCH   9  11
ATOM     11  C   LIG    1       -5.117   3.557   0.069  0.00  0.00    +0.114 A 
ATOM     12  C   LIG    1       -6.282   2.788   0.070  0.00  0.00    +0.032 A 
ATOM     13  C   LIG    1       -7.510   3.429   0.090  0.00  0.00    +0.004 A 
ATOM     14  C   LIG    1       -7.533   4.816   0.098  0.00  0.00    +0.020 A 
ATOM     15  C   LIG    1       -6.335   5.516   0.091  0.00  0.00    +0.111 A 
ATOM     16  N   LIG    1       -5.183   4.884   0.077  0.00  0.00    -0.252 NA
ENDBRANCH   9  11
ENDBRANCH   1   9
TORSDOF 3
