REMARK  Name = ZINC01845036
REMARK                            x       y       z     vdW  Elec       q    Type
REMARK                         _______ _______ _______ _____ _____    ______ ____
ROOT
ATOM      1  C   LIG    1        1.177   1.782   0.000  0.00  0.00    +0.002 A 
ATOM      2  C   LIG    1       -0.013   1.076   0.008  0.00  0.00    +0.012 A 
ATOM      3  C   LIG    1       -1.220   1.749   0.017  0.00  0.00    +0.057 A 
ATOM      4  C   LIG    1       -1.243   3.130   0.030  0.00  0.00    +0.039 A 
ATOM      5  C   LIG    1       -0.050   3.843   0.022  0.00  0.00    +0.074 A 
ATOM      6  C   LIG    1        1.162   3.162   0.007  0.00  0.00    +0.027 A 
ENDROOT
BRANCH   5   7
ATOM      7  N   LIG    1       -0.069   5.237   0.028  0.00  0.00    -0.132 N 
ATOM      8  C   LIG    1        1.116   6.110   0.020  0.00  0.00    +0.169 C 
ATOM      9  C   LIG    1        0.516   7.530   0.032  0.00  0.00    +0.153 C 
ATOM     10  C   LIG    1       -0.977   7.294   0.045  0.00  0.00    +0.310 C 
ATOM     11  N   LIG    1       -1.213   6.032   0.037  0.00  0.00    +0.042 NA
BRANCH  10  12
ATOM     12  N   LIG    1       -1.943   8.288   0.058  0.00  0.00    -0.249 N 
ATOM     13  H   LIG    1       -2.884   8.050   0.066  0.00  0.00    +0.288 HD
ATOM     14  H   LIG    1       -1.679   9.221   0.060  0.00  0.00    +0.288 HD
ENDBRANCH  10  12
ENDBRANCH   5   7
BRANCH   3  15
ATOM     15  C   LIG    1       -2.514   0.975   0.019  0.00  0.00    +0.417 C 
ATOM     16  F   LIG    1       -3.258   1.308  -1.118  0.00  0.00    -0.166 F 
ATOM     17  F   LIG    1       -3.247   1.295   1.167  0.00  0.00    -0.166 F 
ATOM     18  F   LIG    1       -2.236  -0.396   0.011  0.00  0.00    -0.166 F 
ENDBRANCH   3  15
TORSDOF 3
