REMARK  Name = ZINC01672534
REMARK                            x       y       z     vdW  Elec       q    Type
REMARK                         _______ _______ _______ _____ _____    ______ ____
ROOT
ATOM      1  C   LIG    1       -2.416   1.337   0.023  0.00  0.00    +0.000 A 
ATOM      2  C   LIG    1       -2.397  -0.046   0.012  0.00  0.00    +0.002 A 
ATOM      3  C   LIG    1       -1.191  -0.718   0.002  0.00  0.00    +0.023 A 
ATOM      4  C   LIG    1        0.002  -0.004   0.002  0.00  0.00    +0.035 A 
ATOM      5  C   LIG    1       -0.017   1.383   0.010  0.00  0.00    -0.022 A 
ATOM      6  C   LIG    1        1.256   2.181   0.002  0.00  0.00    +0.074 C 
ATOM      7  C   LIG    1        2.441   1.349   0.401  0.00  0.00    -0.022 A 
ATOM      8  C   LIG    1        3.609   1.981   0.793  0.00  0.00    +0.006 A 
ATOM      9  C   LIG    1        4.715   1.238   1.158  0.00  0.00    +0.000 A 
ATOM     10  C   LIG    1        4.664  -0.144   1.135  0.00  0.00    +0.002 A 
ATOM     11  C   LIG    1        3.503  -0.782   0.749  0.00  0.00    +0.023 A 
ATOM     12  C   LIG    1        2.388  -0.037   0.382  0.00  0.00    +0.035 A 
ATOM     13  N   LIG    1        1.217  -0.692  -0.004  0.00  0.00    -0.314 N 
ATOM     14  H   LIG    1        1.248  -1.623  -0.276  0.00  0.00    +0.152 HD
ATOM     15  C   LIG    1       -1.232   2.048   0.019  0.00  0.00    +0.006 A 
ENDROOT
TORSDOF 0
