REMARK  Name = ZINC02020233
REMARK                            x       y       z     vdW  Elec       q    Type
REMARK                         _______ _______ _______ _____ _____    ______ ____
ROOT
ATOM      1  C   LIG    1       -0.017   1.379   0.010  0.00  0.00    +0.022 A 
ATOM      2  C   LIG    1        1.169   2.090   0.002  0.00  0.00    +0.025 A 
ATOM      3  C   LIG    1        2.377   1.411  -0.009  0.00  0.00    +0.045 A 
ATOM      4  C   LIG    1        2.393   0.021  -0.033  0.00  0.00    +0.040 A 
ATOM      5  C   LIG    1        3.718  -0.697  -0.091  0.00  0.00    +0.296 C 
ATOM      6  O   LIG    1        4.720   0.121   0.519  0.00  0.00    -0.417 OA
ATOM      7  C   LIG    1        4.743   1.426   0.189  0.00  0.00    +0.407 C 
ATOM      8  O   LIG    1        5.808   1.998   0.068  0.00  0.00    -0.226 OA
ATOM      9  C   LIG    1        1.209  -0.684  -0.020  0.00  0.00    +0.030 A 
ATOM     10  N   LIG    1        3.594   2.104  -0.009  0.00  0.00    -0.251 N 
ATOM     11  H   LIG    1        3.611   3.063  -0.149  0.00  0.00    +0.158 HD
ATOM     12  C   LIG    1        0.002  -0.004   0.002  0.00  0.00    +0.042 A 
ATOM     13 CL   LIG    1       -1.491  -0.890   0.021  0.00  0.00    -0.084 Cl
ENDROOT
BRANCH   5  14
ATOM     14  C   LIG    1        4.093  -0.961  -1.551  0.00  0.00    +0.446 C 
ATOM     15  F   LIG    1        3.107  -1.754  -2.149  0.00  0.00    -0.165 F 
ATOM     16  F   LIG    1        5.322  -1.627  -1.603  0.00  0.00    -0.165 F 
ATOM     17  F   LIG    1        4.192   0.255  -2.235  0.00  0.00    -0.165 F 
ENDBRANCH   5  14
BRANCH   5  18
ATOM     18  C   LIG    1        3.618  -1.975   0.633  0.00  0.00    -0.041 C 
ATOM     19  C   LIG    1        3.539  -2.994   1.210  0.00  0.00    -0.094 C 
BRANCH  19  20
ATOM     20  C   LIG    1        3.439  -4.272   1.933  0.00  0.00    +0.064 C 
ATOM     21  C   LIG    1        4.223  -4.407   3.240  0.00  0.00    +0.017 C 
ATOM     22  C   LIG    1        4.689  -5.152   1.988  0.00  0.00    +0.017 C 
ENDBRANCH  19  20
ENDBRANCH   5  18
TORSDOF 3
