REMARK  Name = ZINC01701869
REMARK                            x       y       z     vdW  Elec       q    Type
REMARK                         _______ _______ _______ _____ _____    ______ ____
ROOT
ATOM      1  C   LIG    1        1.468  -2.353  -2.550  0.00  0.00    +0.186 C 
ENDROOT
BRANCH   1   2
ATOM      2  N   LIG    1        1.450  -3.817  -2.491  0.00  0.00    -0.298 N 
ATOM      3  H   LIG    1        0.751  -4.312  -2.947  0.00  0.00    +0.150 HD
ATOM      4  C   LIG    1        2.404  -4.476  -1.804  0.00  0.00    +0.245 C 
ATOM      5  O   LIG    1        3.280  -3.855  -1.233  0.00  0.00    -0.270 OA
BRANCH   4   6
ATOM      6  C   LIG    1        2.386  -5.953  -1.745  0.00  0.00    +0.037 A 
ATOM      7  C   LIG    1        1.386  -6.669  -2.404  0.00  0.00    +0.013 A 
ATOM      8  C   LIG    1        1.375  -8.047  -2.345  0.00  0.00    +0.001 A 
ATOM      9  C   LIG    1        2.353  -8.720  -1.634  0.00  0.00    +0.000 A 
ATOM     10  C   LIG    1        3.347  -8.016  -0.978  0.00  0.00    +0.001 A 
ATOM     11  C   LIG    1        3.373  -6.638  -1.034  0.00  0.00    +0.013 A 
ENDBRANCH   4   6
ENDBRANCH   1   2
BRANCH   1  12
ATOM     12  C   LIG    1        0.775  -1.794  -1.334  0.00  0.00    +0.328 C 
ATOM     13  O   LIG    1        0.314  -2.540  -0.504  0.00  0.00    -0.249 OA
BRANCH  12  14
ATOM     14  O   LIG    1        0.671  -0.465  -1.174  0.00  0.00    -0.464 OA
BRANCH  14  16
ATOM     15  C   LIG    1       -0.019   1.526   0.010  0.00  0.00    +0.048 C 
ATOM     16  C   LIG    1        0.002  -0.004   0.002  0.00  0.00    +0.229 C 
ENDBRANCH  14  16
ENDBRANCH  12  14
ENDBRANCH   1  12
BRANCH   1  17
ATOM     17  C   LIG    1        0.741  -1.885  -3.812  0.00  0.00    +0.069 C 
BRANCH  17  18
ATOM     18  C   LIG    1        1.503  -2.342  -5.029  0.00  0.00    -0.045 A 
ATOM     19  C   LIG    1        2.488  -1.536  -5.570  0.00  0.00    +0.007 A 
ATOM     20  C   LIG    1        3.187  -1.953  -6.686  0.00  0.00    +0.045 A 
ATOM     21  C   LIG    1        2.901  -3.181  -7.264  0.00  0.00    +0.117 A 
ATOM     22  C   LIG    1        1.912  -3.988  -6.720  0.00  0.00    +0.045 A 
ATOM     23  C   LIG    1        1.219  -3.569  -5.600  0.00  0.00    +0.007 A 
BRANCH  21  24
ATOM     24  O   LIG    1        3.587  -3.593  -8.363  0.00  0.00    -0.507 OA
ATOM     25  H   LIG    1        4.387  -4.097  -8.160  0.00  0.00    +0.292 HD
ENDBRANCH  21  24
ENDBRANCH  17  18
ENDBRANCH   1  17
TORSDOF 8
