REMARK  Name = ZINC02013186
REMARK                            x       y       z     vdW  Elec       q    Type
REMARK                         _______ _______ _______ _____ _____    ______ ____
ROOT
ATOM      1  C   LIG    1        4.142  -0.948  -1.488  0.00  0.00    +0.128 C 
ENDROOT
BRANCH   1   2
ATOM      2  C   LIG    1        5.457  -1.683  -1.505  0.00  0.00    +0.239 C 
ATOM      3  N   LIG    1        6.073  -2.022  -0.430  0.00  0.00    -0.276 N 
ATOM      4  H   LIG    1        5.745  -1.830   0.524  0.00  0.00    +0.304 HD
ATOM      5  C   LIG    1        7.321  -2.727  -0.769  0.00  0.00    +0.276 C 
ATOM      6  C   LIG    1        7.337  -2.735  -2.312  0.00  0.00    +0.268 C 
ATOM      7  N   LIG    1        6.088  -2.036  -2.660  0.00  0.00    -0.237 N 
ATOM      8  H   LIG    1        5.769  -1.858  -3.559  0.00  0.00    +0.291 HD
ENDBRANCH   1   2
BRANCH   1   9
ATOM      9  C   LIG    1        3.711  -0.707  -0.039  0.00  0.00    +0.047 C 
BRANCH   9  13
ATOM     10  C   LIG    1       -0.017   1.378   0.010  0.00  0.00    +0.000 A 
ATOM     11  C   LIG    1        1.171   2.086   0.002  0.00  0.00    +0.000 A 
ATOM     12  C   LIG    1        2.377   1.411  -0.014  0.00  0.00    +0.003 A 
ATOM     13  C   LIG    1        2.396   0.029  -0.022  0.00  0.00    -0.047 A 
ATOM     14  C   LIG    1        1.208  -0.679  -0.014  0.00  0.00    +0.003 A 
ATOM     15  C   LIG    1        0.002  -0.004   0.002  0.00  0.00    +0.000 A 
ENDBRANCH   9  13
ENDBRANCH   1   9
TORSDOF 3
