REMARK  Name = ZINC01912926
REMARK                            x       y       z     vdW  Elec       q    Type
REMARK                         _______ _______ _______ _____ _____    ______ ____
ROOT
ATOM      1  C   LIG    1        3.267  -1.519   4.569  0.00  0.00    +0.243 A 
ATOM      2  N   LIG    1        4.540  -1.272   4.854  0.00  0.00    -0.178 NA
ATOM      3  C   LIG    1        5.192  -0.311   4.206  0.00  0.00    +0.224 A 
ATOM      4  N   LIG    1        4.569   0.402   3.273  0.00  0.00    -0.181 NA
ATOM      5  C   LIG    1        3.294   0.153   2.988  0.00  0.00    +0.224 A 
ATOM      6  N   LIG    1        2.642  -0.804   3.641  0.00  0.00    -0.178 NA
ENDROOT
BRANCH   1  14
ATOM      7  C   LIG    1       -1.065  -2.864   7.144  0.00  0.00    +0.002 A 
ATOM      8  C   LIG    1       -0.794  -1.624   6.583  0.00  0.00    +0.002 A 
ATOM      9  C   LIG    1        0.397  -1.401   5.925  0.00  0.00    +0.028 A 
ATOM     10  C   LIG    1        1.331  -2.421   5.823  0.00  0.00    +0.077 A 
ATOM     11  C   LIG    1        1.060  -3.679   6.386  0.00  0.00    +0.090 A 
ATOM     12  N   LIG    1        2.140  -4.466   6.140  0.00  0.00    -0.226 NA
ATOM     13  C   LIG    1        3.032  -3.793   5.475  0.00  0.00    +0.184 A 
ATOM     14  N   LIG    1        2.586  -2.523   5.247  0.00  0.00    -0.260 N 
ATOM     15  C   LIG    1       -0.153  -3.890   7.045  0.00  0.00    +0.030 A 
BRANCH  13  16
ATOM     16  C   LIG    1        4.363  -4.336   5.022  0.00  0.00    +0.407 C 
ATOM     17  F   LIG    1        4.679  -3.808   3.765  0.00  0.00    -0.201 F 
ATOM     18  F   LIG    1        4.294  -5.731   4.937  0.00  0.00    -0.201 F 
ENDBRANCH  13  16
ENDBRANCH   1  14
BRANCH   3  19
ATOM     19  N   LIG    1        6.515  -0.054   4.502  0.00  0.00    -0.295 N 
ATOM     20  C   LIG    1        7.354  -0.158   3.299  0.00  0.00    +0.136 C 
ATOM     21  C   LIG    1        8.800   0.192   3.660  0.00  0.00    +0.179 C 
ATOM     22  O   LIG    1        9.247  -0.671   4.709  0.00  0.00    -0.377 OA
ATOM     23  C   LIG    1        8.452  -0.595   5.896  0.00  0.00    +0.179 C 
ATOM     24  C   LIG    1        7.003  -0.953   5.557  0.00  0.00    +0.136 C 
ENDBRANCH   3  19
BRANCH   5  25
ATOM     25  N   LIG    1        2.646   0.893   2.020  0.00  0.00    -0.295 N 
ATOM     26  C   LIG    1        1.251   0.455   1.867  0.00  0.00    +0.136 C 
ATOM     27  C   LIG    1        0.589   1.259   0.745  0.00  0.00    +0.179 C 
ATOM     28  O   LIG    1        0.689   2.654   1.043  0.00  0.00    -0.377 OA
ATOM     29  C   LIG    1        2.034   3.115   1.197  0.00  0.00    +0.179 C 
ATOM     30  C   LIG    1        2.710   2.330   2.324  0.00  0.00    +0.136 C 
ENDBRANCH   5  25
TORSDOF 4
