REMARK  Name = ZINC02013702
REMARK                            x       y       z     vdW  Elec       q    Type
REMARK                         _______ _______ _______ _____ _____    ______ ____
ROOT
ATOM      1  N   LIG    1       -4.175  -4.387  -1.322  0.00  0.00    -0.264 N 
ATOM      2  C   LIG    1       -4.273  -5.624  -1.881  0.00  0.00    +0.118 A 
ATOM      3  N   LIG    1       -5.386  -6.288  -1.952  0.00  0.00    -0.233 NA
ATOM      4  C   LIG    1       -6.548  -5.784  -1.466  0.00  0.00    +0.078 A 
ATOM      5  C   LIG    1       -7.745  -6.498  -1.542  0.00  0.00    +0.028 A 
ATOM      6  C   LIG    1       -8.901  -5.948  -1.035  0.00  0.00    +0.002 A 
ATOM      7  C   LIG    1       -8.892  -4.689  -0.448  0.00  0.00    +0.001 A 
ATOM      8  C   LIG    1       -7.723  -3.965  -0.360  0.00  0.00    +0.015 A 
ATOM      9  C   LIG    1       -6.542  -4.504  -0.867  0.00  0.00    +0.065 A 
ATOM     10  C   LIG    1       -5.265  -3.780  -0.797  0.00  0.00    +0.266 A 
ATOM     11  O   LIG    1       -5.191  -2.676  -0.290  0.00  0.00    -0.267 OA
ENDROOT
BRANCH   1  16
ATOM     12  C   LIG    1       -1.161  -2.572  -2.408  0.00  0.00    +0.123 A 
ATOM     13  C   LIG    1       -0.479  -2.458  -1.205  0.00  0.00    +0.046 A 
ATOM     14  C   LIG    1       -1.022  -2.982  -0.048  0.00  0.00    +0.006 A 
ATOM     15  C   LIG    1       -2.246  -3.621  -0.084  0.00  0.00    +0.026 A 
ATOM     16  C   LIG    1       -2.934  -3.739  -1.285  0.00  0.00    +0.055 A 
ATOM     17  C   LIG    1       -2.392  -3.207  -2.448  0.00  0.00    +0.072 A 
BRANCH  12  18
ATOM     18  O   LIG    1       -0.626  -2.056  -3.546  0.00  0.00    -0.489 OA
BRANCH  18  20
ATOM     19  C   LIG    1        1.359  -1.556  -4.831  0.00  0.00    +0.051 C 
ATOM     20  C   LIG    1        0.694  -1.515  -3.454  0.00  0.00    +0.167 C 
ATOM     21  C   LIG    1        0.619  -0.067  -2.967  0.00  0.00    +0.051 C 
ENDBRANCH  18  20
ENDBRANCH  12  18
ENDBRANCH   1  16
BRANCH   2  22
ATOM     22  C   LIG    1       -3.026  -6.255  -2.445  0.00  0.00    +0.079 C 
BRANCH  22  23
ATOM     23  C   LIG    1       -3.341  -7.677  -2.912  0.00  0.00    +0.045 C 
BRANCH  23  24
ATOM     24  C   LIG    1       -2.094  -8.308  -3.477  0.00  0.00    -0.022 A 
ATOM     25  C   LIG    1       -1.731  -8.340  -4.768  0.00  0.00    +0.087 A 
ATOM     26  N   LIG    1       -0.538  -8.998  -4.901  0.00  0.00    -0.360 N 
ATOM     27  C   LIG    1       -0.093  -9.415  -3.666  0.00  0.00    +0.047 A 
ATOM     28  C   LIG    1        1.033 -10.111  -3.240  0.00  0.00    +0.027 A 
ATOM     29  C   LIG    1        1.212 -10.376  -1.900  0.00  0.00    +0.017 A 
ATOM     30  C   LIG    1        0.270  -9.966  -0.966  0.00  0.00    +0.019 A 
ATOM     31 BR   LIG    1        0.534 -10.352   0.867  0.00  0.00    -0.050 Br
ATOM     32  C   LIG    1       -0.855  -9.280  -1.365  0.00  0.00    +0.025 A 
ATOM     33  H   LIG    1       -0.074  -9.147  -5.740  0.00  0.00    +0.165 HD
ATOM     34  C   LIG    1       -1.046  -8.996  -2.719  0.00  0.00    +0.004 A 
ENDBRANCH  23  24
ENDBRANCH  22  23
ENDBRANCH   2  22
TORSDOF 6
