REMARK  Name = ZINC01788203
REMARK                            x       y       z     vdW  Elec       q    Type
REMARK                         _______ _______ _______ _____ _____    ______ ____
ROOT
ATOM      1  N   LIG    1        3.831   6.094   0.305  0.00  0.00    -0.241 N 
ATOM      2  C   LIG    1        2.572   5.698   0.230  0.00  0.00    +0.259 C 
ATOM      3  C   LIG    1        2.343   4.243   0.104  0.00  0.00    +0.077 C 
ATOM      4  S   LIG    1        4.024   3.637   0.120  0.00  0.00    -0.061 S 
ATOM      5  C   LIG    1        1.177   3.556   0.009  0.00  0.00    +0.028 C 
ATOM      6  O   LIG    1        1.649   6.490   0.263  0.00  0.00    -0.269 OA
ATOM      7  C   LIG    1        4.851   5.212   0.267  0.00  0.00    +0.121 C 
ATOM      8  S   LIG    1        6.532   5.527   0.348  0.00  0.00    -0.027 S 
ENDROOT
BRANCH   5   9
ATOM      9  C   LIG    1        1.193   2.119  -0.297  0.00  0.00    -0.024 A 
ATOM     10  C   LIG    1        0.014   1.369  -0.218  0.00  0.00    +0.009 A 
ATOM     11  C   LIG    1        0.037   0.022  -0.507  0.00  0.00    +0.016 A 
ATOM     12  C   LIG    1        1.224  -0.590  -0.876  0.00  0.00    +0.018 A 
ATOM     13 BR   LIG    1        1.245  -2.440  -1.270  0.00  0.00    -0.050 Br
ATOM     14  C   LIG    1        2.395   0.145  -0.956  0.00  0.00    +0.016 A 
ATOM     15  C   LIG    1        2.388   1.493  -0.670  0.00  0.00    +0.009 A 
ENDBRANCH   5   9
BRANCH   1  16
ATOM     16  C   LIG    1        4.126   7.524   0.431  0.00  0.00    +0.195 C 
BRANCH  16  17
ATOM     17  C   LIG    1        4.963   7.969  -0.740  0.00  0.00    +0.326 C 
ATOM     18  O   LIG    1        5.282   7.174  -1.593  0.00  0.00    -0.249 OA
BRANCH  17  19
ATOM     19  O   LIG    1        5.356   9.249  -0.837  0.00  0.00    -0.479 OA
ATOM     20  H   LIG    1        5.109   9.866  -0.176  0.00  0.00    +0.295 HD
ENDBRANCH  17  19
ENDBRANCH  16  17
BRANCH  16  21
ATOM     21  C   LIG    1        4.892   7.774   1.731  0.00  0.00    +0.069 C 
BRANCH  21  25
ATOM     22  C   LIG    1        2.390   6.838   5.063  0.00  0.00    +0.000 A 
ATOM     23  C   LIG    1        3.193   5.861   4.506  0.00  0.00    +0.000 A 
ATOM     24  C   LIG    1        4.003   6.163   3.428  0.00  0.00    +0.004 A 
ATOM     25  C   LIG    1        4.009   7.444   2.906  0.00  0.00    -0.045 A 
ATOM     26  C   LIG    1        3.210   8.422   3.467  0.00  0.00    +0.004 A 
ATOM     27  C   LIG    1        2.396   8.118   4.542  0.00  0.00    +0.000 A 
ENDBRANCH  21  25
ENDBRANCH  16  21
ENDBRANCH   1  16
TORSDOF 6
