REMARK  Name = ZINC02022139
REMARK                            x       y       z     vdW  Elec       q    Type
REMARK                         _______ _______ _______ _____ _____    ______ ____
ROOT
ATOM      1  C   LIG    1       -0.753   1.593  -1.232  0.00  0.00    +0.000 C 
ENDROOT
BRANCH   1   2
ATOM      2  C   LIG    1       -0.013   1.086   0.008  0.00  0.00    +0.005 C 
BRANCH   2   3
ATOM      3  C   LIG    1       -0.729   1.579   1.267  0.00  0.00    +0.035 C 
BRANCH   3   9
ATOM      4  C   LIG    1       -0.351  -0.137   3.051  0.00  0.00    +0.007 A 
ATOM      5  C   LIG    1        0.312  -0.609   4.166  0.00  0.00    +0.046 A 
ATOM      6  C   LIG    1        1.330   0.138   4.739  0.00  0.00    +0.127 A 
ATOM      7  C   LIG    1        1.685   1.375   4.176  0.00  0.00    +0.056 A 
ATOM      8  C   LIG    1        1.008   1.838   3.042  0.00  0.00    +0.018 A 
ATOM      9  C   LIG    1        0.000   1.080   2.488  0.00  0.00    -0.046 A 
BRANCH   6  10
ATOM     10  O   LIG    1        1.978  -0.322   5.837  0.00  0.00    -0.506 OA
ATOM     11  H   LIG    1        1.577  -0.050   6.674  0.00  0.00    +0.292 HD
ENDBRANCH   6  10
BRANCH   7  12
ATOM     12  C   LIG    1        2.760   2.177   4.772  0.00  0.00    +0.262 C 
ATOM     13  O   LIG    1        3.345   1.772   5.755  0.00  0.00    -0.296 OA
ENDBRANCH   7  12
ENDBRANCH   3   9
ENDBRANCH   2   3
ENDBRANCH   1   2
BRANCH   1  14
ATOM     14  C   LIG    1       -0.037   1.099  -2.490  0.00  0.00    +0.000 C 
BRANCH  14  15
ATOM     15  C   LIG    1       -0.777   1.606  -3.730  0.00  0.00    +0.005 C 
BRANCH  15  16
ATOM     16  C   LIG    1       -0.060   1.113  -4.989  0.00  0.00    +0.035 C 
BRANCH  16  17
ATOM     17  C   LIG    1       -0.789   1.612  -6.210  0.00  0.00    -0.046 A 
ATOM     18  C   LIG    1       -1.800   0.847  -6.770  0.00  0.00    +0.007 A 
ATOM     19  C   LIG    1       -2.480   1.294  -7.886  0.00  0.00    +0.046 A 
ATOM     20  C   LIG    1       -2.148   2.511  -8.461  0.00  0.00    +0.127 A 
ATOM     21  C   LIG    1       -1.121   3.288  -7.900  0.00  0.00    +0.056 A 
ATOM     22  C   LIG    1       -0.444   2.823  -6.766  0.00  0.00    +0.018 A 
BRANCH  20  23
ATOM     23  O   LIG    1       -2.811   2.950  -9.559  0.00  0.00    -0.506 OA
ATOM     24  H   LIG    1       -2.414   2.671 -10.396  0.00  0.00    +0.292 HD
ENDBRANCH  20  23
BRANCH  21  25
ATOM     25  C   LIG    1       -0.759   4.578  -8.499  0.00  0.00    +0.262 C 
ATOM     26  O   LIG    1       -1.347   4.977  -9.482  0.00  0.00    -0.296 OA
ENDBRANCH  21  25
ENDBRANCH  16  17
ENDBRANCH  15  16
ENDBRANCH  14  15
ENDBRANCH   1  14
TORSDOF 11
