REMARK  Name = ZINC02040457
REMARK                            x       y       z     vdW  Elec       q    Type
REMARK                         _______ _______ _______ _____ _____    ______ ____
ROOT
ATOM      1  C   LIG    1        1.446  -3.970  -2.482  0.00  0.00    +0.219 C 
ENDROOT
BRANCH   1   2
ATOM      2  C   LIG    1        1.426  -2.440  -2.474  0.00  0.00    -0.039 C 
ATOM      3  C   LIG    1        2.861  -1.911  -2.484  0.00  0.00    -0.007 C 
ATOM      4  C   LIG    1        0.686  -1.933  -3.713  0.00  0.00    -0.007 C 
BRANCH   2   5
ATOM      5  N   LIG    1        0.738  -1.966  -1.265  0.00  0.00    +0.385 N 
ATOM      6  H   LIG    1       -0.208  -2.316  -1.258  0.00  0.00    -0.085 HD
ATOM      7  H   LIG    1        1.226  -2.301  -0.447  0.00  0.00    -0.085 HD
BRANCH   5   8
ATOM      8  C   LIG    1        0.718  -0.497  -1.257  0.00  0.00    -0.082 C 
BRANCH   8  10
ATOM      9  C   LIG    1       -0.019   1.526   0.010  0.00  0.00    +0.002 C 
ATOM     10  C   LIG    1        0.002  -0.004   0.002  0.00  0.00    -0.022 C 
ENDBRANCH   8  10
ENDBRANCH   5   8
ENDBRANCH   2   5
ENDBRANCH   1   2
BRANCH   1  11
ATOM     11  O   LIG    1        2.115  -4.431  -3.658  0.00  0.00    -0.463 OA
BRANCH  11  12
ATOM     12  C   LIG    1        2.220  -5.764  -3.819  0.00  0.00    +0.339 C 
ATOM     13  O   LIG    1        1.757  -6.515  -2.984  0.00  0.00    -0.245 OA
BRANCH  12  14
ATOM     14  C   LIG    1        2.899  -6.313  -5.010  0.00  0.00    +0.059 A 
ATOM     15  C   LIG    1        3.438  -5.453  -5.969  0.00  0.00    +0.015 A 
ATOM     16  C   LIG    1        4.071  -5.972  -7.079  0.00  0.00    +0.001 A 
ATOM     17  C   LIG    1        4.171  -7.342  -7.244  0.00  0.00    +0.000 A 
ATOM     18  C   LIG    1        3.639  -8.200  -6.299  0.00  0.00    +0.001 A 
ATOM     19  C   LIG    1        3.010  -7.694  -5.180  0.00  0.00    +0.015 A 
ENDBRANCH  12  14
ENDBRANCH  11  12
ENDBRANCH   1  11
TORSDOF 7
