REMARK  Name = ZINC01999400
REMARK                            x       y       z     vdW  Elec       q    Type
REMARK                         _______ _______ _______ _____ _____    ______ ____
ROOT
ATOM      1  C   LIG    1       -3.310   0.817   2.418  0.00  0.00    +0.007 C 
ATOM      2  C   LIG    1       -2.413   0.566   1.204  0.00  0.00    -0.010 C 
ATOM      3  C   LIG    1       -3.069   1.156  -0.050  0.00  0.00    +0.008 C 
ATOM      4  N   LIG    1       -2.201   0.936  -1.226  0.00  0.00    +0.387 N 
ATOM      5  H   LIG    1       -2.051  -0.073  -1.341  0.00  0.00    -0.081 HD
ATOM      6  C   LIG    1       -0.886   1.594  -1.036  0.00  0.00    -0.077 C 
ATOM      7  C   LIG    1       -0.187   0.976   0.179  0.00  0.00    -0.007 C 
ATOM      8  C   LIG    1       -3.313   2.624   0.209  0.00  0.00    +0.150 C 
ATOM      9  C   LIG    1       -2.311   3.390   0.952  0.00  0.00    +0.020 A 
ATOM     10  C   LIG    1       -2.444   4.779   1.074  0.00  0.00    +0.015 A 
ATOM     11  C   LIG    1       -1.524   5.491   1.790  0.00  0.00    +0.046 A 
ATOM     12  C   LIG    1       -0.456   4.839   2.397  0.00  0.00    +0.117 A 
ATOM     13  C   LIG    1       -0.313   3.462   2.276  0.00  0.00    +0.050 A 
ATOM     14  C   LIG    1       -1.233   2.734   1.551  0.00  0.00    -0.027 A 
ATOM     15  O   LIG    1       -4.320   3.167  -0.193  0.00  0.00    -0.294 OA
ATOM     16  C   LIG    1       -1.056   1.242   1.420  0.00  0.00    -0.006 C 
ATOM     17  C   LIG    1       -0.377   0.671   2.666  0.00  0.00    +0.016 C 
ENDROOT
BRANCH  12  18
ATOM     18  O   LIG    1        0.452   5.552   3.111  0.00  0.00    -0.507 OA
ATOM     19  H   LIG    1        1.200   5.872   2.588  0.00  0.00    +0.292 HD
ENDBRANCH  12  18
BRANCH   4  20
ATOM     20  C   LIG    1       -2.855   1.461  -2.436  0.00  0.00    -0.074 C 
BRANCH  20  21
ATOM     21  C   LIG    1       -2.059   0.997  -3.658  0.00  0.00    -0.028 C 
ATOM     22  C   LIG    1       -1.423   2.075  -4.538  0.00  0.00    +0.002 C 
ATOM     23  C   LIG    1       -2.644   1.301  -5.039  0.00  0.00    +0.002 C 
ENDBRANCH  20  21
ENDBRANCH   4  20
TORSDOF 3
