REMARK  Name = ZINC02015833
REMARK                            x       y       z     vdW  Elec       q    Type
REMARK                         _______ _______ _______ _____ _____    ______ ____
ROOT
ATOM      1  C   LIG    1        0.787   0.168  -2.366  0.00  0.00    +0.007 C 
ATOM      2  C   LIG    1        1.029  -0.504  -1.014  0.00  0.00    -0.017 C 
ATOM      3  C   LIG    1        0.002  -0.004   0.002  0.00  0.00    -0.060 C 
ATOM      4  N   LIG    1        0.230  -0.608   1.333  0.00  0.00    +0.384 N 
ATOM      5  H   LIG    1        0.141  -1.627   1.251  0.00  0.00    -0.081 HD
ATOM      6  C   LIG    1        1.589  -0.289   1.832  0.00  0.00    -0.077 C 
ATOM      7  C   LIG    1        2.628  -0.849   0.854  0.00  0.00    -0.007 C 
ATOM      8  C   LIG    1       -0.018   1.514   0.010  0.00  0.00    +0.020 C 
ATOM      9  C   LIG    1        1.369   2.098   0.000  0.00  0.00    -0.045 A 
ATOM     10  C   LIG    1        1.496   3.461   0.248  0.00  0.00    +0.007 A 
ATOM     11  C   LIG    1        2.735   4.063   0.241  0.00  0.00    +0.045 A 
ATOM     12  C   LIG    1        3.869   3.306  -0.017  0.00  0.00    +0.117 A 
ATOM     13  C   LIG    1        3.744   1.948  -0.258  0.00  0.00    +0.049 A 
ATOM     14  C   LIG    1        2.495   1.345  -0.244  0.00  0.00    -0.035 A 
ATOM     15  C   LIG    1        2.426  -0.142  -0.499  0.00  0.00    -0.007 C 
ATOM     16  C   LIG    1        3.506  -0.568  -1.495  0.00  0.00    +0.016 C 
ENDROOT
BRANCH  12  17
ATOM     17  O   LIG    1        5.095   3.893  -0.034  0.00  0.00    -0.507 OA
ATOM     18  H   LIG    1        5.361   4.224  -0.902  0.00  0.00    +0.292 HD
ENDBRANCH  12  17
BRANCH   4  19
ATOM     19  C   LIG    1       -0.781  -0.118   2.280  0.00  0.00    -0.051 C 
BRANCH  19  20
ATOM     20  C   LIG    1       -0.650  -0.900   3.561  0.00  0.00    -0.047 C 
ATOM     21  C   LIG    1       -0.506  -0.272   4.701  0.00  0.00    -0.081 C 
ATOM     22  C   LIG    1       -0.374  -1.054   5.982  0.00  0.00    +0.038 C 
ATOM     23  C   LIG    1       -0.471   1.235   4.731  0.00  0.00    +0.038 C 
ENDBRANCH  19  20
ENDBRANCH   4  19
TORSDOF 3
