REMARK  Name = ZINC01687325
REMARK                            x       y       z     vdW  Elec       q    Type
REMARK                         _______ _______ _______ _____ _____    ______ ____
ROOT
ATOM      1  C   LIG    1       -1.209   3.199   0.025  0.00  0.00    +0.107 C 
ENDROOT
BRANCH   1   2
ATOM      2  N   LIG    1       -1.189   1.734   0.017  0.00  0.00    -0.318 N 
ATOM      3  H   LIG    1       -2.022   1.237   0.018  0.00  0.00    +0.148 HD
ATOM      4  C   LIG    1       -0.013   1.076   0.008  0.00  0.00    +0.325 C 
ATOM      5  O   LIG    1        1.029   1.696   0.001  0.00  0.00    -0.280 OA
ENDBRANCH   1   2
BRANCH   1   7
ATOM      6  C   LIG    1       -3.330   3.268   1.343  0.00  0.00    +0.009 C 
ATOM      7  C   LIG    1       -2.658   3.689   0.035  0.00  0.00    -0.000 C 
ATOM      8  C   LIG    1       -2.681   5.214  -0.083  0.00  0.00    +0.009 C 
ENDBRANCH   1   7
TORSDOF 2
