REMARK  Name = ZINC02146973
REMARK                            x       y       z     vdW  Elec       q    Type
REMARK                         _______ _______ _______ _____ _____    ______ ____
ROOT
ATOM      1  C   LIG    1       -4.981  -2.629   0.035  0.00  0.00    +0.211 C 
ATOM      2  C   LIG    1       -5.364  -2.982   1.479  0.00  0.00    +0.129 C 
ATOM      3  C   LIG    1       -6.693  -3.716   1.425  0.00  0.00    +0.174 C 
ATOM      4  C   LIG    1       -6.867  -4.678   0.332  0.00  0.00    +0.101 A 
ATOM      5  C   LIG    1       -7.941  -5.582   0.338  0.00  0.00    +0.134 A 
ATOM      6  C   LIG    1       -8.089  -6.471  -0.711  0.00  0.00    +0.091 A 
ATOM      7  C   LIG    1       -7.178  -6.467  -1.761  0.00  0.00    +0.124 A 
ATOM      8  C   LIG    1       -6.111  -5.579  -1.770  0.00  0.00    +0.092 A 
ATOM      9  C   LIG    1       -5.943  -4.682  -0.729  0.00  0.00    +0.139 A 
ATOM     10  O   LIG    1       -7.566  -3.515   2.244  0.00  0.00    -0.292 OA
ATOM     11  O   LIG    1       -4.894  -3.826  -0.738  0.00  0.00    -0.483 OA
ENDROOT
BRANCH   1  15
ATOM     12  C   LIG    1       -1.200  -0.637   0.010  0.00  0.00    +0.120 A 
ATOM     13  C   LIG    1       -2.375   0.101   0.019  0.00  0.00    +0.046 A 
ATOM     14  C   LIG    1       -3.596  -0.545   0.027  0.00  0.00    +0.011 A 
ATOM     15  C   LIG    1       -3.648  -1.927   0.026  0.00  0.00    -0.007 A 
ATOM     16  C   LIG    1       -2.479  -2.665   0.017  0.00  0.00    +0.011 A 
ATOM     17  C   LIG    1       -1.255  -2.024   0.003  0.00  0.00    +0.046 A 
BRANCH  12  19
ATOM     18  C   LIG    1       -0.017   1.425   0.010  0.00  0.00    +0.277 C 
ATOM     19  O   LIG    1        0.002  -0.004   0.002  0.00  0.00    -0.495 OA
ENDBRANCH  12  19
ENDBRANCH   1  15
BRANCH   5  20
ATOM     20  O   LIG    1       -8.826  -5.585   1.366  0.00  0.00    -0.506 OA
ATOM     21  H   LIG    1       -9.582  -4.996   1.235  0.00  0.00    +0.292 HD
ENDBRANCH   5  20
BRANCH   7  22
ATOM     22  O   LIG    1       -7.333  -7.341  -2.788  0.00  0.00    -0.507 OA
ATOM     23  H   LIG    1       -7.875  -7.002  -3.514  0.00  0.00    +0.292 HD
ENDBRANCH   7  22
TORSDOF 4
