REMARK  Name = ZINC02379521
REMARK                            x       y       z     vdW  Elec       q    Type
REMARK                         _______ _______ _______ _____ _____    ______ ____
ROOT
ATOM      1  C   LIG    1       -1.324   3.684   0.025  0.00  0.00    -0.020 C 
ATOM      2  C   LIG    1       -1.980   2.413   0.645  0.00  0.00    -0.009 C 
ATOM      3  C   LIG    1       -0.783   1.607   1.242  0.00  0.00    +0.004 C 
ATOM      4  C   LIG    1       -0.013   1.086   0.008  0.00  0.00    +0.002 C 
ATOM      5  C   LIG    1       -0.813   1.625  -1.216  0.00  0.00    -0.025 C 
ATOM      6  C   LIG    1       -2.276   1.578  -0.650  0.00  0.00    +0.005 C 
ATOM      7  C   LIG    1       -0.551   3.162  -1.208  0.00  0.00    -0.068 C 
ENDROOT
BRANCH   7   8
ATOM      8  N   LIG    1        0.890   3.423  -1.047  0.00  0.00    +0.380 N 
ATOM      9  H   LIG    1        1.223   2.964  -0.190  0.00  0.00    -0.090 HD
ATOM     10  H   LIG    1        1.058   4.425  -0.973  0.00  0.00    -0.090 HD
ATOM     11  H   LIG    1        1.404   3.051  -1.844  0.00  0.00    -0.090 HD
ENDBRANCH   7   8
BRANCH   1  13
ATOM     12  C   LIG    1       -3.174   5.159   0.827  0.00  0.00    +0.007 C 
ATOM     13  C   LIG    1       -2.399   4.685  -0.404  0.00  0.00    -0.015 C 
ATOM     14  C   LIG    1       -1.736   5.885  -1.084  0.00  0.00    +0.007 C 
ENDBRANCH   1  13
TORSDOF 2
