REMARK  Name = ZINC02262581
REMARK                            x       y       z     vdW  Elec       q    Type
REMARK                         _______ _______ _______ _____ _____    ______ ____
ROOT
ATOM      1  C   LIG    1        3.240  -4.838   1.419  0.00  0.00    +0.109 A 
ATOM      2  N   LIG    1        3.437  -6.146   1.421  0.00  0.00    -0.239 NA
ATOM      3  C   LIG    1        4.648  -6.658   1.518  0.00  0.00    +0.079 A 
ATOM      4  C   LIG    1        5.728  -5.817   1.618  0.00  0.00    +0.075 A 
ATOM      5  S   LIG    1        4.914  -4.226   1.560  0.00  0.00    -0.075 S 
ENDROOT
BRANCH   3   6
ATOM      6  C   LIG    1        4.842  -8.129   1.518  0.00  0.00    +0.001 A 
ATOM      7  C   LIG    1        6.124  -8.665   1.627  0.00  0.00    +0.010 A 
ATOM      8  C   LIG    1        6.298 -10.034   1.627  0.00  0.00    +0.004 A 
ATOM      9  C   LIG    1        5.204 -10.873   1.518  0.00  0.00    -0.050 A 
ATOM     10  C   LIG    1        5.401 -12.367   1.518  0.00  0.00    +0.044 C 
ATOM     11  C   LIG    1        3.930 -10.346   1.410  0.00  0.00    +0.004 A 
ATOM     12  C   LIG    1        3.743  -8.979   1.416  0.00  0.00    +0.010 A 
ENDBRANCH   3   6
BRANCH   1  15
ATOM     13  C   LIG    1        0.762  -2.018   1.233  0.00  0.00    +0.042 A 
ATOM     14  C   LIG    1        1.968  -2.682   1.328  0.00  0.00    +0.034 A 
ATOM     15  C   LIG    1        1.973  -4.082   1.320  0.00  0.00    +0.010 A 
ATOM     16  C   LIG    1        0.746  -4.746   1.214  0.00  0.00    +0.030 A 
ATOM     17  C   LIG    1       -0.412  -4.002   1.123  0.00  0.00    +0.111 A 
ATOM     18  N   LIG    1       -0.373  -2.683   1.141  0.00  0.00    -0.260 NA
BRANCH  13  19
ATOM     19  C   LIG    1        0.742  -0.511   1.242  0.00  0.00    +0.055 C 
BRANCH  19  21
ATOM     20  C   LIG    1       -0.019   1.526   0.010  0.00  0.00    +0.004 C 
ATOM     21  C   LIG    1        0.002  -0.004   0.002  0.00  0.00    +0.003 C 
ENDBRANCH  19  21
ENDBRANCH  13  19
ENDBRANCH   1  15
TORSDOF 4
