REMARK  Name = ZINC01841595
REMARK                            x       y       z     vdW  Elec       q    Type
REMARK                         _______ _______ _______ _____ _____    ______ ____
ROOT
ATOM      1  C   LIG    1       -1.226   1.747   0.017  0.00  0.00    +0.001 A 
ATOM      2  C   LIG    1       -0.013   1.076   0.008  0.00  0.00    +0.002 A 
ATOM      3  C   LIG    1        1.175   1.775   0.000  0.00  0.00    +0.026 A 
ATOM      4  C   LIG    1        1.164   3.167   0.008  0.00  0.00    +0.050 A 
ATOM      5  C   LIG    1       -0.064   3.844   0.023  0.00  0.00    +0.008 A 
ATOM      6  C   LIG    1        0.251   5.284   0.028  0.00  0.00    +0.008 A 
ATOM      7  C   LIG    1       -0.531   6.436   0.041  0.00  0.00    +0.010 A 
ATOM      8  C   LIG    1        0.074   7.674   0.041  0.00  0.00    +0.001 A 
ATOM      9  C   LIG    1        1.457   7.776   0.028  0.00  0.00    +0.002 A 
ATOM     10  C   LIG    1        2.243   6.644   0.016  0.00  0.00    +0.026 A 
ATOM     11  C   LIG    1        1.650   5.384   0.014  0.00  0.00    +0.050 A 
ATOM     12  N   LIG    1        2.179   4.106   0.003  0.00  0.00    -0.339 N 
ATOM     13  C   LIG    1       -1.257   3.124   0.031  0.00  0.00    +0.010 A 
ENDROOT
BRANCH  12  14
ATOM     14  C   LIG    1        3.611   3.793  -0.012  0.00  0.00    +0.133 C 
BRANCH  14  15
ATOM     15  C   LIG    1        4.095   3.690  -1.460  0.00  0.00    +0.142 C 
BRANCH  15  16
ATOM     16  C   LIG    1        5.567   3.368  -1.475  0.00  0.00    +0.306 C 
ATOM     17  O   LIG    1        6.167   3.233  -0.435  0.00  0.00    -0.251 OA
BRANCH  16  18
ATOM     18  O   LIG    1        6.212   3.229  -2.644  0.00  0.00    -0.481 OA
ATOM     19  H   LIG    1        5.746   3.334  -3.451  0.00  0.00    +0.295 HD
ENDBRANCH  16  18
ENDBRANCH  15  16
ENDBRANCH  14  15
ENDBRANCH  12  14
TORSDOF 4
