REMARK  Name = ZINC01846129
REMARK                            x       y       z     vdW  Elec       q    Type
REMARK                         _______ _______ _______ _____ _____    ______ ____
ROOT
ATOM      1  C   LIG    1        0.731  -0.503   1.223  0.00  0.00    -0.034 A 
ATOM      2  C   LIG    1        0.263  -0.187   2.485  0.00  0.00    +0.005 A 
ATOM      3  C   LIG    1        0.931  -0.645   3.605  0.00  0.00    +0.004 A 
ATOM      4  C   LIG    1        2.068  -1.419   3.463  0.00  0.00    -0.047 A 
ATOM      5  C   LIG    1        2.535  -1.736   2.201  0.00  0.00    +0.004 A 
ATOM      6  C   LIG    1        1.864  -1.282   1.081  0.00  0.00    +0.005 A 
ENDROOT
BRANCH   1   8
ATOM      7  C   LIG    1       -0.019   1.526   0.010  0.00  0.00    +0.024 C 
ATOM      8  C   LIG    1        0.002  -0.004   0.002  0.00  0.00    +0.124 C 
BRANCH   8   9
ATOM      9  C   LIG    1       -1.412  -0.526   0.013  0.00  0.00    +0.312 C 
ATOM     10  O   LIG    1       -1.710  -1.492  -0.668  0.00  0.00    -0.250 OA
BRANCH   9  11
ATOM     11  O   LIG    1       -2.257   0.018   0.703  0.00  0.00    -0.480 OA
ATOM     12  H   LIG    1       -2.028   0.761   1.226  0.00  0.00    +0.295 HD
ENDBRANCH   9  11
ENDBRANCH   8   9
ENDBRANCH   1   8
BRANCH   4  13
ATOM     13  C   LIG    1        2.797  -1.918   4.684  0.00  0.00    +0.046 C 
BRANCH  13  14
ATOM     14  C   LIG    1        2.232  -3.279   5.096  0.00  0.00    +0.060 C 
ATOM     15  C   LIG    1        2.893  -3.749   6.408  0.00  0.00    +0.012 C 
ATOM     16  C   LIG    1        3.053  -5.278   6.212  0.00  0.00    +0.008 C 
ATOM     17  C   LIG    1        3.410  -5.383   4.708  0.00  0.00    +0.074 C 
ATOM     18  C   LIG    1        2.559  -4.316   4.042  0.00  0.00    +0.137 C 
ATOM     19  O   LIG    1        2.208  -4.297   2.886  0.00  0.00    -0.297 OA
ENDBRANCH  13  14
ENDBRANCH   4  13
TORSDOF 5
