REMARK  Name = ZINC01671919
REMARK                            x       y       z     vdW  Elec       q    Type
REMARK                         _______ _______ _______ _____ _____    ______ ____
ROOT
ATOM      1  C   LIG    1        7.974  -3.311  -0.150  0.00  0.00    +0.031 A 
ATOM      2  C   LIG    1        7.429  -2.409  -1.056  0.00  0.00    +0.023 A 
ATOM      3  C   LIG    1        6.063  -2.209  -1.091  0.00  0.00    +0.006 A 
ATOM      4  C   LIG    1        5.238  -2.905  -0.228  0.00  0.00    -0.040 A 
ATOM      5  C   LIG    1        5.777  -3.800   0.678  0.00  0.00    +0.006 A 
ATOM      6  C   LIG    1        7.142  -4.009   0.716  0.00  0.00    +0.023 A 
ENDROOT
BRANCH   1   7
ATOM      7  N   LIG    1        9.355  -3.517  -0.112  0.00  0.00    -0.314 N 
ATOM      8  H   LIG    1        9.885  -3.402  -0.916  0.00  0.00    +0.152 HD
BRANCH   7  12
ATOM      9  C   LIG    1       11.199  -4.623   3.461  0.00  0.00    +0.030 A 
ATOM     10  C   LIG    1       11.719  -5.056   2.248  0.00  0.00    +0.025 A 
ATOM     11  C   LIG    1       11.108  -4.689   1.065  0.00  0.00    +0.025 A 
ATOM     12  C   LIG    1        9.974  -3.888   1.088  0.00  0.00    +0.031 A 
ATOM     13  C   LIG    1        9.458  -3.450   2.301  0.00  0.00    +0.025 A 
ATOM     14  C   LIG    1       10.065  -3.822   3.484  0.00  0.00    +0.025 A 
BRANCH   9  15
ATOM     15  N   LIG    1       11.818  -4.994   4.660  0.00  0.00    -0.330 N 
BRANCH  15  17
ATOM     16  C   LIG    1       10.248  -5.556   6.449  0.00  0.00    +0.024 C 
ATOM     17  C   LIG    1       11.269  -4.537   5.940  0.00  0.00    +0.102 C 
ENDBRANCH  15  17
BRANCH  15  18
ATOM     18  C   LIG    1       13.014  -5.840   4.636  0.00  0.00    +0.102 C 
ATOM     19  C   LIG    1       14.261  -4.957   4.563  0.00  0.00    +0.024 C 
ENDBRANCH  15  18
ENDBRANCH   9  15
ENDBRANCH   7  12
ENDBRANCH   1   7
BRANCH   4  20
ATOM     20  C   LIG    1        3.748  -2.684  -0.269  0.00  0.00    +0.114 C 
BRANCH  20  21
ATOM     21  C   LIG    1        3.123  -3.650  -1.244  0.00  0.00    +0.167 C 
ATOM     22  O   LIG    1        3.820  -4.440  -1.844  0.00  0.00    -0.292 OA
BRANCH  21  23
ATOM     23  C   LIG    1        1.669  -3.634  -1.465  0.00  0.00    +0.018 A 
ATOM     24  C   LIG    1        1.086  -4.528  -2.368  0.00  0.00    +0.011 A 
ATOM     25  C   LIG    1       -0.278  -4.507  -2.571  0.00  0.00    +0.001 A 
ATOM     26  C   LIG    1       -1.069  -3.603  -1.884  0.00  0.00    +0.000 A 
ATOM     27  C   LIG    1       -0.500  -2.714  -0.989  0.00  0.00    +0.001 A 
ATOM     28  C   LIG    1        0.862  -2.724  -0.774  0.00  0.00    +0.011 A 
ENDBRANCH  21  23
ENDBRANCH  20  21
ENDBRANCH   4  20
TORSDOF 8
