REMARK  Name = ZINC01851109
REMARK                            x       y       z     vdW  Elec       q    Type
REMARK                         _______ _______ _______ _____ _____    ______ ____
ROOT
ATOM      1  C   LIG    1       -0.019  -2.658  -2.376  0.00  0.00    +0.129 A 
ATOM      2  C   LIG    1       -0.295  -1.338  -2.071  0.00  0.00    +0.085 A 
ATOM      3  N   LIG    1       -1.430  -0.849  -2.498  0.00  0.00    -0.194 NA
ATOM      4  S   LIG    1       -2.134  -2.034  -3.261  0.00  0.00    +0.117 S 
ATOM      5  N   LIG    1       -0.969  -3.263  -3.067  0.00  0.00    -0.184 NA
ENDROOT
BRANCH   2   6
ATOM      6  C   LIG    1        0.675  -0.496  -1.283  0.00  0.00    +0.027 C 
ATOM      7  C   LIG    1        0.002  -0.004   0.002  0.00  0.00    -0.069 C 
ATOM      8  N   LIG    1       -0.031   1.474   0.035  0.00  0.00    +0.380 N 
ATOM      9  H   LIG    1       -0.485   1.778   0.904  0.00  0.00    -0.082 HD
ATOM     10  C   LIG    1       -0.802   1.988  -1.117  0.00  0.00    -0.079 C 
ATOM     11  C   LIG    1       -0.153   1.553  -2.433  0.00  0.00    -0.015 C 
ATOM     12  C   LIG    1        1.346   2.011   0.000  0.00  0.00    -0.079 C 
ATOM     13  C   LIG    1        2.073   1.566  -1.292  0.00  0.00    -0.015 C 
ATOM     14  C   LIG    1        1.096   0.720  -2.118  0.00  0.00    -0.007 C 
ENDBRANCH   2   6
BRANCH   1  15
ATOM     15  S   LIG    1        1.468  -3.465  -1.882  0.00  0.00    -0.103 S 
BRANCH  15  16
ATOM     16  C   LIG    1        1.295  -5.145  -2.542  0.00  0.00    +0.076 C 
BRANCH  16  17
ATOM     17  C   LIG    1        2.535  -5.965  -2.180  0.00  0.00    +0.011 C 
BRANCH  17  19
ATOM     18  C   LIG    1        3.630  -8.203  -2.375  0.00  0.00    +0.004 C 
ATOM     19  C   LIG    1        2.390  -7.383  -2.737  0.00  0.00    -0.003 C 
ENDBRANCH  17  19
ENDBRANCH  16  17
ENDBRANCH  15  16
ENDBRANCH   1  15
TORSDOF 5
