REMARK  Name = ZINC02004481
REMARK                            x       y       z     vdW  Elec       q    Type
REMARK                         _______ _______ _______ _____ _____    ______ ____
ROOT
ATOM      1  C   TYR A  1       -0.014   1.209   0.009  0.00  0.00    +0.199 C 
ATOM      2  N   TYR A  2       -1.191   1.867   0.018  0.00  0.00    -0.303 N 
ATOM      3  H   TYR A  2       -1.204   2.837   0.023  0.00  0.00    +0.149 HD
ATOM      4  O   TYR A  1        0.002  -0.004   0.002  0.00  0.00    -0.278 OA
ENDROOT
BRANCH   1   5
ATOM      5  CA  TYR A  1        1.280   1.980   0.001  0.00  0.00    +0.017 C 
BRANCH   5   6
ATOM      6  N   TYR A  1        2.363   1.103   0.482  0.00  0.00    +0.386 N 
ATOM      7  H1  TYR A  1        2.129   0.763   1.422  0.00  0.00    -0.089 HD
ATOM      8  H2  TYR A  1        3.239   1.621   0.524  0.00  0.00    -0.089 HD
ATOM      9  H3  TYR A  1        2.470   0.306  -0.142  0.00  0.00    -0.089 HD
ENDBRANCH   5   6
BRANCH   5  10
ATOM     10  CB  TYR A  1        1.577   2.464  -1.420  0.00  0.00    +0.028 C 
BRANCH  10  16
ATOM     11  CD1 TYR A  1        2.679   4.702  -1.223  0.00  0.00    +0.007 A 
ATOM     12  CE1 TYR A  1        3.804   5.504  -1.205  0.00  0.00    +0.045 A 
ATOM     13  CZ  TYR A  1        5.059   4.941  -1.384  0.00  0.00    +0.117 A 
ATOM     14  CE2 TYR A  1        5.182   3.572  -1.575  0.00  0.00    +0.045 A 
ATOM     15  CD2 TYR A  1        4.054   2.773  -1.587  0.00  0.00    +0.007 A 
ATOM     16  CG  TYR A  1        2.805   3.337  -1.408  0.00  0.00    -0.048 A 
BRANCH  13  17
ATOM     17  OH  TYR A  1        6.166   5.728  -1.373  0.00  0.00    -0.507 OA
ATOM     18  HH  TYR A  1        6.414   6.072  -2.242  0.00  0.00    +0.292 HD
ENDBRANCH  13  17
ENDBRANCH  10  16
ENDBRANCH   5  10
ENDBRANCH   1   5
BRANCH   2  19
ATOM     19  CA  TYR A  2       -2.449   1.117   0.020  0.00  0.00    +0.186 C 
BRANCH  19  20
ATOM     20  C   TYR A  2       -2.824   0.761  -1.396  0.00  0.00    +0.326 C 
ATOM     21  O   TYR A  2       -2.113   1.099  -2.312  0.00  0.00    -0.249 OA
BRANCH  20  22
ATOM     22  OXT TYR A  2       -3.948   0.069  -1.639  0.00  0.00    -0.479 OA
ATOM     23  HXT TYR A  2       -4.500  -0.193  -0.928  0.00  0.00    +0.295 HD
ENDBRANCH  20  22
ENDBRANCH  19  20
BRANCH  19  24
ATOM     24  CB  TYR A  2       -3.554   1.976   0.639  0.00  0.00    +0.069 C 
BRANCH  24  25
ATOM     25  CG  TYR A  2       -3.238   2.229   2.091  0.00  0.00    -0.045 A 
ATOM     26  CD2 TYR A  2       -3.699   1.357   3.060  0.00  0.00    +0.007 A 
ATOM     27  CE2 TYR A  2       -3.407   1.584   4.391  0.00  0.00    +0.045 A 
ATOM     28  CZ  TYR A  2       -2.659   2.694   4.756  0.00  0.00    +0.117 A 
ATOM     29  CE1 TYR A  2       -2.202   3.571   3.783  0.00  0.00    +0.045 A 
ATOM     30  CD1 TYR A  2       -2.493   3.336   2.452  0.00  0.00    +0.007 A 
BRANCH  28  31
ATOM     31  OH  TYR A  2       -2.374   2.922   6.065  0.00  0.00    -0.507 OA
ATOM     32  HH  TYR A  2       -3.033   3.462   6.523  0.00  0.00    +0.292 HD
ENDBRANCH  28  31
ENDBRANCH  24  25
ENDBRANCH  19  24
ENDBRANCH   2  19
TORSDOF 11
