REMARK  Name = ZINC01702579
REMARK                            x       y       z     vdW  Elec       q    Type
REMARK                         _______ _______ _______ _____ _____    ______ ____
ROOT
ATOM      1  C   LIG    1        1.166   3.180   0.007  0.00  0.00    +0.046 A 
ATOM      2  C   LIG    1       -0.032   3.869   0.022  0.00  0.00    +0.012 A 
ATOM      3  C   LIG    1       -1.240   3.168   0.030  0.00  0.00    -0.014 A 
ATOM      4  C   LIG    1       -1.222   1.757   0.017  0.00  0.00    +0.036 A 
ATOM      5  C   LIG    1       -2.506   1.025   0.032  0.00  0.00    +0.233 C 
ATOM      6  C   LIG    1       -3.771   1.827   0.047  0.00  0.00    +0.226 C 
ATOM      7  C   LIG    1       -3.698   3.237   0.053  0.00  0.00    +0.055 C 
ATOM      8  O   LIG    1       -4.851   1.268   0.054  0.00  0.00    -0.284 OA
ATOM      9  O   LIG    1       -2.535  -0.188   0.027  0.00  0.00    -0.283 OA
ATOM     10  C   LIG    1       -0.013   1.076   0.008  0.00  0.00    +0.057 A 
ATOM     11  C   LIG    1       -2.517   3.886   0.045  0.00  0.00    +0.012 C 
ATOM     12  C   LIG    1        1.183   1.793   0.000  0.00  0.00    +0.118 A 
ENDROOT
BRANCH  12  13
ATOM     13  O   LIG    1        2.368   1.131  -0.014  0.00  0.00    -0.507 OA
ATOM     14  H   LIG    1        2.703   0.944  -0.901  0.00  0.00    +0.292 HD
ENDBRANCH  12  13
TORSDOF 1
