REMARK  Name = ZINC02139624
REMARK                            x       y       z     vdW  Elec       q    Type
REMARK                         _______ _______ _______ _____ _____    ______ ____
ROOT
ATOM      1  C   LIG    1       -2.798  -4.100   0.004  0.00  0.00    +0.016 A 
ATOM      2  C   LIG    1       -2.930  -4.784  -1.206  0.00  0.00    +0.107 A 
ATOM      3  C   LIG    1       -2.940  -6.188  -1.205  0.00  0.00    +0.135 A 
ATOM      4  C   LIG    1       -2.820  -6.865  -0.008  0.00  0.00    +0.096 A 
ATOM      5  C   LIG    1       -2.688  -6.176   1.201  0.00  0.00    +0.178 A 
ATOM      6  O   LIG    1       -2.581  -6.968   2.303  0.00  0.00    -0.418 OA
ATOM      7  C   LIG    1       -2.661  -6.461   3.541  0.00  0.00    +0.349 C 
ATOM      8  O   LIG    1       -3.537  -6.832   4.298  0.00  0.00    -0.244 OA
ATOM      9  C   LIG    1       -1.683  -5.448   3.968  0.00  0.00    +0.112 A 
ATOM     10  C   LIG    1       -0.789  -5.694   5.029  0.00  0.00    +0.038 A 
ATOM     11  C   LIG    1        0.211  -4.763   5.301  0.00  0.00    +0.058 A 
ATOM     12  C   LIG    1        0.310  -3.601   4.544  0.00  0.00    +0.124 A 
ATOM     13  C   LIG    1       -0.598  -3.342   3.526  0.00  0.00    +0.092 A 
ATOM     14  C   LIG    1       -1.607  -4.251   3.253  0.00  0.00    +0.147 A 
ATOM     15  O   LIG    1       -2.543  -4.020   2.310  0.00  0.00    -0.451 OA
ATOM     16  C   LIG    1       -2.671  -4.791   1.204  0.00  0.00    +0.175 A 
ENDROOT
BRANCH   2  17
ATOM     17  C   LIG    1       -3.057  -4.043  -2.468  0.00  0.00    +0.341 C 
ATOM     18  O   LIG    1       -2.062  -3.798  -3.137  0.00  0.00    -0.245 OA
BRANCH  17  19
ATOM     19  O   LIG    1       -4.159  -3.669  -2.849  0.00  0.00    -0.477 OA
ATOM     20  H   LIG    1       -4.920  -3.856  -2.337  0.00  0.00    +0.295 HD
ENDBRANCH  17  19
ENDBRANCH   2  17
BRANCH   3  21
ATOM     21  O   LIG    1       -3.067  -6.872  -2.369  0.00  0.00    -0.506 OA
ATOM     22  H   LIG    1       -2.225  -7.077  -2.799  0.00  0.00    +0.292 HD
ENDBRANCH   3  21
BRANCH  10  23
ATOM     23  C   LIG    1       -0.910  -6.918   5.838  0.00  0.00    +0.164 C 
ATOM     24  O   LIG    1       -1.784  -7.723   5.593  0.00  0.00    -0.292 OA
BRANCH  23  25
ATOM     25  C   LIG    1        0.052  -7.172   6.970  0.00  0.00    +0.079 C 
BRANCH  25  26
ATOM     26  C   LIG    1       -0.291  -8.502   7.643  0.00  0.00    +0.008 C 
BRANCH  26  27
ATOM     27  C   LIG    1        0.685  -8.759   8.792  0.00  0.00    -0.003 C 
ATOM     28  C   LIG    1        0.342 -10.090   9.464  0.00  0.00    +0.004 C 
ENDBRANCH  26  27
ENDBRANCH  25  26
ENDBRANCH  23  25
ENDBRANCH  10  23
BRANCH  12  29
ATOM     29  O   LIG    1        1.303  -2.712   4.802  0.00  0.00    -0.495 OA
ATOM     30  C   LIG    1        1.350  -1.539   3.988  0.00  0.00    +0.277 C 
ENDBRANCH  12  29
BRANCH   1  31
ATOM     31  C   LIG    1       -2.786  -2.593   0.009  0.00  0.00    +0.040 C 
BRANCH  31  32
ATOM     32  C   LIG    1       -1.355  -2.093  -0.198  0.00  0.00    +0.005 C 
BRANCH  32  33
ATOM     33  C   LIG    1       -1.343  -0.563  -0.193  0.00  0.00    +0.000 C 
BRANCH  33  35
ATOM     34  C   LIG    1        0.099   1.467  -0.394  0.00  0.00    +0.004 C 
ATOM     35  C   LIG    1        0.088  -0.063  -0.400  0.00  0.00    -0.003 C 
ENDBRANCH  33  35
ENDBRANCH  32  33
ENDBRANCH  31  32
ENDBRANCH   1  31
TORSDOF 12
