REMARK  Name = ZINC01683110
REMARK                            x       y       z     vdW  Elec       q    Type
REMARK                         _______ _______ _______ _____ _____    ______ ____
ROOT
ATOM      1  C   LIG    1        0.606  -2.171  -1.026  0.00  0.00    +0.237 C 
ATOM      2  C   LIG    1        1.500  -2.711   0.118  0.00  0.00    +0.185 C 
ATOM      3  C   LIG    1        1.904  -4.107  -0.417  0.00  0.00    +0.196 C 
ATOM      4  C   LIG    1        1.685  -4.006  -1.939  0.00  0.00    +0.254 C 
ATOM      5  O   LIG    1        1.247  -2.664  -2.222  0.00  0.00    -0.339 OA
ENDROOT
BRANCH   4   6
ATOM      6  N   LIG    1        2.939  -4.285  -2.643  0.00  0.00    -0.285 N 
ATOM      7  C   LIG    1        3.844  -3.362  -3.075  0.00  0.00    +0.203 A 
ATOM      8  N   LIG    1        4.842  -3.958  -3.660  0.00  0.00    -0.231 NA
ATOM      9  C   LIG    1        4.642  -5.297  -3.640  0.00  0.00    +0.147 A 
ATOM     10  C   LIG    1        5.360  -6.411  -4.107  0.00  0.00    +0.147 A 
ATOM     11  N   LIG    1        4.857  -7.623  -3.896  0.00  0.00    -0.219 NA
ATOM     12  C   LIG    1        3.703  -7.786  -3.275  0.00  0.00    +0.225 A 
ATOM     13  N   LIG    1        2.994  -6.772  -2.825  0.00  0.00    -0.216 NA
ATOM     14  C   LIG    1        3.421  -5.524  -2.982  0.00  0.00    +0.167 A 
BRANCH  10  15
ATOM     15  N   LIG    1        6.571  -6.250  -4.758  0.00  0.00    -0.341 N 
ATOM     16  H   LIG    1        7.057  -7.027  -5.076  0.00  0.00    +0.144 HD
ATOM     17  H   LIG    1        6.933  -5.361  -4.897  0.00  0.00    +0.144 HD
ENDBRANCH  10  15
ENDBRANCH   4   6
BRANCH   1  21
ATOM     18  C   LIG    1       -0.018   1.461   0.010  0.00  0.00    +0.128 C 
ATOM     19  N   LIG    1        0.002  -0.004   0.002  0.00  0.00    -0.316 N 
ATOM     20  H   LIG    1       -0.404  -0.499   0.731  0.00  0.00    +0.148 HD
ATOM     21  C   LIG    1        0.585  -0.664  -1.018  0.00  0.00    +0.244 C 
ATOM     22  O   LIG    1        1.093  -0.046  -1.929  0.00  0.00    -0.273 OA
ENDBRANCH   1  21
BRANCH   2  23
ATOM     23  O   LIG    1        0.759  -2.826   1.335  0.00  0.00    -0.386 OA
ATOM     24  H   LIG    1        0.408  -1.986   1.661  0.00  0.00    +0.210 HD
ENDBRANCH   2  23
BRANCH   3  25
ATOM     25  O   LIG    1        1.068  -5.120   0.146  0.00  0.00    -0.385 OA
ATOM     26  H   LIG    1        1.125  -5.186   1.109  0.00  0.00    +0.210 HD
ENDBRANCH   3  25
TORSDOF 5
