REMARK  Name = ZINC02059638
REMARK                            x       y       z     vdW  Elec       q    Type
REMARK                         _______ _______ _______ _____ _____    ______ ____
ROOT
ATOM      1  N   LIG    1        2.262   5.208   0.698  0.00  0.00    -0.244 N 
ATOM      2  C   LIG    1        2.602   3.976  -0.014  0.00  0.00    +0.198 C 
ATOM      3  N   LIG    1        3.624   3.227   0.726  0.00  0.00    -0.321 N 
ATOM      4  H   LIG    1        4.374   2.824   0.262  0.00  0.00    +0.148 HD
ATOM      5  C   LIG    1        3.495   3.104   2.105  0.00  0.00    +0.041 A 
ATOM      6  C   LIG    1        4.010   2.017   2.792  0.00  0.00    +0.024 A 
ATOM      7  C   LIG    1        3.882   1.954   4.166  0.00  0.00    +0.002 A 
ATOM      8  C   LIG    1        3.247   2.970   4.862  0.00  0.00    +0.001 A 
ATOM      9  C   LIG    1        2.725   4.058   4.193  0.00  0.00    +0.015 A 
ATOM     10  C   LIG    1        2.836   4.129   2.806  0.00  0.00    +0.058 A 
ATOM     11  C   LIG    1        2.292   5.267   2.044  0.00  0.00    +0.254 C 
ATOM     12  O   LIG    1        1.873   6.250   2.625  0.00  0.00    -0.270 OA
ENDROOT
BRANCH   1  16
ATOM     13  C   LIG    1        1.183   8.595  -1.474  0.00  0.00    -0.044 A 
ATOM     14  C   LIG    1        0.312   8.069  -0.538  0.00  0.00    +0.006 A 
ATOM     15  C   LIG    1        0.666   6.947   0.184  0.00  0.00    +0.024 A 
ATOM     16  C   LIG    1        1.900   6.346  -0.031  0.00  0.00    +0.039 A 
ATOM     17  C   LIG    1        2.776   6.880  -0.968  0.00  0.00    +0.024 A 
ATOM     18  C   LIG    1        2.412   7.999  -1.691  0.00  0.00    +0.006 A 
BRANCH  13  19
ATOM     19  C   LIG    1        0.793   9.820  -2.260  0.00  0.00    +0.016 C 
ATOM     20  C   LIG    1        0.786   9.487  -3.753  0.00  0.00    +0.012 C 
BRANCH  19  22
ATOM     21  C   LIG    1        1.337  12.220  -2.690  0.00  0.00    +0.004 C 
ATOM     22  C   LIG    1        1.801  10.940  -1.992  0.00  0.00    +0.004 C 
ENDBRANCH  19  22
ENDBRANCH  13  19
ENDBRANCH   1  16
BRANCH   2  23
ATOM     23  C   LIG    1        1.366   3.126  -0.159  0.00  0.00    -0.009 A 
ATOM     24  C   LIG    1        1.476   1.749  -0.203  0.00  0.00    +0.007 A 
ATOM     25  C   LIG    1        0.343   0.969  -0.336  0.00  0.00    +0.004 A 
ATOM     26  C   LIG    1       -0.900   1.566  -0.429  0.00  0.00    -0.045 A 
ATOM     27  C   LIG    1       -1.011   2.943  -0.379  0.00  0.00    +0.004 A 
ATOM     28  C   LIG    1        0.123   3.723  -0.246  0.00  0.00    +0.007 A 
BRANCH  26  29
ATOM     29  C   LIG    1       -2.136   0.716  -0.579  0.00  0.00    +0.013 C 
ATOM     30  C   LIG    1       -2.844   1.073  -1.887  0.00  0.00    +0.012 C 
ATOM     31  C   LIG    1       -3.078   0.973   0.598  0.00  0.00    +0.012 C 
ENDBRANCH  26  29
ENDBRANCH   2  23
TORSDOF 5
