REMARK  Name = ZINC01719567
REMARK                            x       y       z     vdW  Elec       q    Type
REMARK                         _______ _______ _______ _____ _____    ______ ____
ROOT
ATOM      1  N   LIG    1       -0.881  -1.818   6.333  0.00  0.00    -0.281 N 
ATOM      2  H   LIG    1       -0.210  -2.194   6.925  0.00  0.00    +0.155 HD
ATOM      3  C   LIG    1       -2.142  -1.637   6.774  0.00  0.00    +0.249 C 
ATOM      4  O   LIG    1       -3.005  -1.256   6.006  0.00  0.00    -0.270 OA
ENDROOT
BRANCH   1  14
ATOM      5  N   LIG    1        0.305  -0.221   1.156  0.00  0.00    -0.340 N 
ATOM      6  C   LIG    1       -0.542   0.863   1.005  0.00  0.00    +0.050 A 
ATOM      7  C   LIG    1       -0.767   1.735  -0.056  0.00  0.00    +0.026 A 
ATOM      8  C   LIG    1       -1.691   2.750   0.069  0.00  0.00    +0.002 A 
ATOM      9  C   LIG    1       -2.402   2.915   1.248  0.00  0.00    +0.001 A 
ATOM     10  C   LIG    1       -2.192   2.063   2.310  0.00  0.00    +0.010 A 
ATOM     11  C   LIG    1       -1.262   1.031   2.197  0.00  0.00    +0.008 A 
ATOM     12  C   LIG    1       -0.807  -0.029   3.115  0.00  0.00    +0.009 A 
ATOM     13  C   LIG    1       -1.147  -0.374   4.420  0.00  0.00    +0.034 A 
ATOM     14  C   LIG    1       -0.539  -1.463   5.023  0.00  0.00    +0.034 A 
ATOM     15  C   LIG    1        0.419  -2.198   4.330  0.00  0.00    +0.025 A 
ATOM     16  C   LIG    1        0.763  -1.859   3.040  0.00  0.00    +0.028 A 
ATOM     17  C   LIG    1        0.155  -0.774   2.417  0.00  0.00    +0.050 A 
BRANCH   5  19
ATOM     18  C   LIG    1        0.509  -1.758  -0.735  0.00  0.00    +0.027 C 
ATOM     19  C   LIG    1        1.223  -0.715   0.128  0.00  0.00    +0.119 C 
ENDBRANCH   5  19
ENDBRANCH   1  14
BRANCH   3  20
ATOM     20  C   LIG    1       -2.476  -1.901   8.187  0.00  0.00    +0.045 A 
ATOM     21  C   LIG    1       -1.488  -2.332   9.073  0.00  0.00    +0.013 A 
ATOM     22  C   LIG    1       -1.805  -2.578  10.393  0.00  0.00    +0.001 A 
ATOM     23  C   LIG    1       -3.101  -2.398  10.848  0.00  0.00    +0.001 A 
ATOM     24  C   LIG    1       -4.092  -1.972   9.987  0.00  0.00    +0.009 A 
ATOM     25  C   LIG    1       -3.791  -1.714   8.652  0.00  0.00    -0.005 A 
BRANCH  25  26
ATOM     26  C   LIG    1       -4.848  -1.251   7.725  0.00  0.00    -0.003 A 
ATOM     27  C   LIG    1       -5.448  -0.008   7.911  0.00  0.00    +0.009 A 
ATOM     28  C   LIG    1       -6.434   0.419   7.045  0.00  0.00    +0.001 A 
ATOM     29  C   LIG    1       -6.835  -0.380   5.987  0.00  0.00    +0.001 A 
ATOM     30  C   LIG    1       -6.254  -1.615   5.785  0.00  0.00    +0.015 A 
ATOM     31  C   LIG    1       -5.251  -2.063   6.647  0.00  0.00    +0.067 A 
BRANCH  31  32
ATOM     32  C   LIG    1       -4.621  -3.377   6.433  0.00  0.00    +0.337 C 
ATOM     33  O   LIG    1       -4.974  -4.079   5.495  0.00  0.00    -0.245 OA
BRANCH  32  34
ATOM     34  O   LIG    1       -3.746  -3.768   7.194  0.00  0.00    -0.477 OA
ATOM     35  H   LIG    1       -3.476  -3.231   7.912  0.00  0.00    +0.295 HD
ENDBRANCH  32  34
ENDBRANCH  31  32
ENDBRANCH  25  26
ENDBRANCH   3  20
TORSDOF 6
