REMARK  Name = ZINC02382036
REMARK                            x       y       z     vdW  Elec       q    Type
REMARK                         _______ _______ _______ _____ _____    ______ ____
ROOT
ATOM      1  CA  LIG    1       -2.513   0.978   0.020  0.00  0.00    +0.067 C 
ENDROOT
BRANCH   1   9
ATOM      2  C   LIG    1       -0.013   1.076   0.008  0.00  0.00    +0.005 A 
ATOM      3  C   LIG    1        1.175   1.783   0.000  0.00  0.00    +0.040 A 
ATOM      4  C   LIG    1        1.157   3.167   0.008  0.00  0.00    +0.142 A 
ATOM      5  F   LIG    1        2.317   3.858   0.001  0.00  0.00    -0.204 F 
ATOM      6  C   LIG    1       -0.053   3.842   0.022  0.00  0.00    +0.076 A 
ATOM      7 CL   LIG    1       -0.079   5.578   0.031  0.00  0.00    -0.081 Cl
ATOM      8  C   LIG    1       -1.240   3.132   0.030  0.00  0.00    +0.025 A 
ATOM      9  C   LIG    1       -1.219   1.750   0.017  0.00  0.00    -0.050 A 
ENDBRANCH   1   9
BRANCH   1  10
ATOM     10  N   LIG    1       -3.502   1.627  -0.859  0.00  0.00    +0.390 N 
ATOM     11  H1  LIG    1       -4.385   1.105  -0.817  0.00  0.00    -0.088 HD
ATOM     12  H2  LIG    1       -3.164   1.633  -1.820  0.00  0.00    -0.088 HD
ATOM     13  H3  LIG    1       -3.667   2.584  -0.552  0.00  0.00    -0.088 HD
ENDBRANCH   1  10
BRANCH   1  14
ATOM     14  C   LIG    1       -3.064   0.925   1.421  0.00  0.00    +0.294 C 
ATOM     15  O   LIG    1       -3.948   1.679   1.752  0.00  0.00    -0.253 OA
BRANCH  14  16
ATOM     16  OXT LIG    1       -2.573   0.040   2.303  0.00  0.00    -0.482 OA
ATOM     17  HXT LIG    1       -1.887  -0.546   2.046  0.00  0.00    +0.295 HD
ENDBRANCH  14  16
ENDBRANCH   1  14
TORSDOF 4
