REMARK  Name = ZINC02140183
REMARK                            x       y       z     vdW  Elec       q    Type
REMARK                         _______ _______ _______ _____ _____    ______ ____
ROOT
ATOM      1  C   LIG    1        2.005   6.133   0.016  0.00  0.00    +0.171 C 
ENDROOT
BRANCH   1   2
ATOM      2  C   LIG    1        3.134   7.131   0.011  0.00  0.00    +0.242 C 
ATOM      3  N   LIG    1        2.867   8.451   0.020  0.00  0.00    -0.206 N 
ATOM      4  H   LIG    1        1.947   8.760   0.030  0.00  0.00    +0.177 HD
ATOM      5  O   LIG    1        4.284   6.745  -0.002  0.00  0.00    -0.273 OA
BRANCH   3   6
ATOM      6  N   LIG    1        3.917   9.379   0.015  0.00  0.00    -0.188 NA
ATOM      7  C   LIG    1        3.659  10.651   0.025  0.00  0.00    +0.142 C 
BRANCH   7   8
ATOM      8  C   LIG    1        4.764  11.627   0.019  0.00  0.00    +0.048 A 
ATOM      9  C   LIG    1        4.490  12.999   0.029  0.00  0.00    +0.133 A 
ATOM     10  F   LIG    1        3.212  13.435   0.042  0.00  0.00    -0.205 F 
ATOM     11  C   LIG    1        5.532  13.907   0.025  0.00  0.00    +0.039 A 
ATOM     12  C   LIG    1        6.842  13.462   0.011  0.00  0.00    +0.004 A 
ATOM     13  C   LIG    1        7.120  12.107   0.001  0.00  0.00    +0.021 A 
ATOM     14  C   LIG    1        6.090  11.186   0.011  0.00  0.00    +0.052 A 
ATOM     15 CL   LIG    1        6.443   9.487   0.006  0.00  0.00    -0.083 Cl
ENDBRANCH   7   8
ENDBRANCH   3   6
ENDBRANCH   1   2
BRANCH   1  16
ATOM     16  S   LIG    1        2.682   4.455   0.001  0.00  0.00    -0.115 S 
BRANCH  16  23
ATOM     17  C   LIG    1       -1.291  -0.778   0.011  0.00  0.00    +0.046 C 
ATOM     18  C   LIG    1        0.002  -0.004   0.002  0.00  0.00    -0.024 A 
ATOM     19  C   LIG    1        1.193  -0.664  -0.013  0.00  0.00    +0.005 A 
ATOM     20  C   LIG    1        2.399   0.032  -0.021  0.00  0.00    +0.001 A 
ATOM     21  C   LIG    1        2.418   1.395  -0.014  0.00  0.00    +0.011 A 
ATOM     22  C   LIG    1        1.211   2.105   0.002  0.00  0.00    +0.014 A 
ATOM     23  C   LIG    1        1.188   3.521   0.009  0.00  0.00    +0.019 A 
ATOM     24  C   LIG    1       -0.048   4.150   0.025  0.00  0.00    +0.038 A 
ATOM     25  C   LIG    1       -1.207   3.387   0.032  0.00  0.00    +0.040 A 
ATOM     26  C   LIG    1       -2.543   4.084   0.048  0.00  0.00    +0.065 C 
ATOM     27  N   LIG    1       -1.173   2.074   0.019  0.00  0.00    -0.252 NA
ATOM     28  C   LIG    1       -0.017   1.401   0.010  0.00  0.00    +0.075 A 
ENDBRANCH  16  23
ENDBRANCH   1  16
TORSDOF 5
