REMARK  Name = ZINC01705144
REMARK                            x       y       z     vdW  Elec       q    Type
REMARK                         _______ _______ _______ _____ _____    ______ ____
ROOT
ATOM      1  C   LIG    1        3.828  -2.166  -0.020  0.00  0.00    +0.233 C 
ATOM      2  O   LIG    1        2.836  -2.865  -0.042  0.00  0.00    -0.283 OA
ENDROOT
BRANCH   1   3
ATOM      3  C   LIG    1        5.162  -2.783   0.031  0.00  0.00    +0.026 A 
ATOM      4  C   LIG    1        6.303  -1.982   0.175  0.00  0.00    +0.015 A 
ATOM      5  C   LIG    1        7.539  -2.560   0.222  0.00  0.00    +0.046 A 
ATOM      6  C   LIG    1        7.668  -3.942   0.128  0.00  0.00    +0.117 A 
ATOM      7  C   LIG    1        6.538  -4.743  -0.016  0.00  0.00    +0.046 A 
ATOM      8  C   LIG    1        5.297  -4.175  -0.058  0.00  0.00    +0.015 A 
BRANCH   6   9
ATOM      9  O   LIG    1        8.898  -4.511   0.175  0.00  0.00    -0.507 OA
ATOM     10  H   LIG    1        9.190  -4.742   1.067  0.00  0.00    +0.292 HD
ENDBRANCH   6   9
ENDBRANCH   1   3
BRANCH   1  11
ATOM     11  C   LIG    1        3.694  -0.681  -0.045  0.00  0.00    +0.233 C 
ATOM     12  O   LIG    1        3.936  -0.067  -1.064  0.00  0.00    -0.283 OA
BRANCH  11  16
ATOM     13  C   LIG    1        2.467   1.399   3.445  0.00  0.00    +0.000 A 
ATOM     14  C   LIG    1        2.843   2.109   2.317  0.00  0.00    +0.001 A 
ATOM     15  C   LIG    1        3.243   1.440   1.180  0.00  0.00    +0.012 A 
ATOM     16  C   LIG    1        3.268   0.042   1.167  0.00  0.00    +0.026 A 
ATOM     17  C   LIG    1        2.886  -0.668   2.311  0.00  0.00    +0.012 A 
ATOM     18  C   LIG    1        2.489   0.015   3.441  0.00  0.00    +0.001 A 
ENDBRANCH  11  16
ENDBRANCH   1  11
TORSDOF 4
