REMARK  Name = ZINC01718862
REMARK                            x       y       z     vdW  Elec       q    Type
REMARK                         _______ _______ _______ _____ _____    ______ ____
ROOT
ATOM      1  N   LIG    1       -4.105   4.967   0.085  0.00  0.00    +0.382 N 
ATOM      2  H   LIG    1       -4.831   4.241   0.090  0.00  0.00    -0.081 HD
ATOM      3  C   LIG    1       -3.256   4.805   1.284  0.00  0.00    -0.076 C 
ATOM      4  C   LIG    1       -2.689   3.384   1.306  0.00  0.00    +0.006 C 
ATOM      5  C   LIG    1       -1.852   3.155   0.045  0.00  0.00    +0.089 C 
ATOM      6  C   LIG    1       -2.723   3.398  -1.190  0.00  0.00    +0.006 C 
ATOM      7  C   LIG    1       -3.288   4.819  -1.139  0.00  0.00    -0.076 C 
ENDROOT
BRANCH   5   8
ATOM      8  N   LIG    1       -1.355   1.776   0.030  0.00  0.00    -0.289 N 
ATOM      9  C   LIG    1       -0.017   1.392   0.010  0.00  0.00    +0.070 A 
ATOM     10  C   LIG    1        1.176   2.099   0.002  0.00  0.00    +0.028 A 
ATOM     11  C   LIG    1        2.378   1.419  -0.012  0.00  0.00    +0.002 A 
ATOM     12  C   LIG    1        2.397   0.035  -0.020  0.00  0.00    +0.002 A 
ATOM     13  C   LIG    1        1.214  -0.678  -0.013  0.00  0.00    +0.028 A 
ATOM     14  C   LIG    1        0.002  -0.004   0.002  0.00  0.00    +0.067 A 
ATOM     15  N   LIG    1       -1.326  -0.425   0.012  0.00  0.00    -0.306 N 
ATOM     16  H   LIG    1       -1.629  -1.346   0.011  0.00  0.00    +0.170 HD
ATOM     17  C   LIG    1       -2.116   0.665   0.026  0.00  0.00    +0.328 A 
ATOM     18  O   LIG    1       -3.333   0.649   0.037  0.00  0.00    -0.247 OA
ENDBRANCH   5   8
BRANCH   1  19
ATOM     19  C   LIG    1       -4.754   6.294   0.101  0.00  0.00    -0.043 C 
BRANCH  19  23
ATOM     20  C   LIG    1       -6.455   6.973   3.960  0.00  0.00    +0.000 A 
ATOM     21  C   LIG    1       -5.162   7.382   3.693  0.00  0.00    +0.000 A 
ATOM     22  C   LIG    1       -4.611   7.162   2.445  0.00  0.00    +0.002 A 
ATOM     23  C   LIG    1       -5.354   6.534   1.463  0.00  0.00    -0.064 A 
ATOM     24  C   LIG    1       -6.649   6.130   1.728  0.00  0.00    +0.002 A 
ATOM     25  C   LIG    1       -7.198   6.345   2.978  0.00  0.00    +0.000 A 
ENDBRANCH  19  23
ENDBRANCH   1  19
TORSDOF 3
