REMARK  Name = ZINC02355982
REMARK                            x       y       z     vdW  Elec       q    Type
REMARK                         _______ _______ _______ _____ _____    ______ ____
ROOT
ATOM      1  C   LIG    1       -1.183   6.725   0.704  0.00  0.00    +0.157 C 
ENDROOT
BRANCH   1   2
ATOM      2  C   LIG    1        0.180   6.127   0.937  0.00  0.00    +0.173 C 
ATOM      3  O   LIG    1        1.160   6.842   0.958  0.00  0.00    -0.291 OA
BRANCH   2   4
ATOM      4  C   LIG    1        0.323   4.678   1.138  0.00  0.00    +0.018 A 
ATOM      5  C   LIG    1        1.590   4.122   1.353  0.00  0.00    +0.012 A 
ATOM      6  C   LIG    1        1.721   2.770   1.540  0.00  0.00    +0.009 A 
ATOM      7  C   LIG    1        0.593   1.948   1.516  0.00  0.00    -0.018 A 
ATOM      8  C   LIG    1       -0.670   2.500   1.295  0.00  0.00    +0.009 A 
ATOM      9  C   LIG    1       -0.807   3.852   1.113  0.00  0.00    +0.012 A 
BRANCH   7  10
ATOM     10  C   LIG    1        0.737   0.487   1.718  0.00  0.00    -0.018 A 
ATOM     11  C   LIG    1        1.998  -0.069   1.927  0.00  0.00    +0.008 A 
ATOM     12  C   LIG    1        2.126  -1.430   2.120  0.00  0.00    +0.001 A 
ATOM     13  C   LIG    1        1.007  -2.243   2.095  0.00  0.00    +0.000 A 
ATOM     14  C   LIG    1       -0.247  -1.697   1.883  0.00  0.00    +0.001 A 
ATOM     15  C   LIG    1       -0.387  -0.337   1.694  0.00  0.00    +0.008 A 
ENDBRANCH   7  10
ENDBRANCH   2   4
ENDBRANCH   1   2
BRANCH   1  16
ATOM     16  S   LIG    1       -1.030   8.516   0.494  0.00  0.00    -0.078 S 
BRANCH  16  22
ATOM     17  C   LIG    1       -2.460  11.446  -0.042  0.00  0.00    +0.153 C 
ATOM     18  N   LIG    1       -3.218  10.194   0.029  0.00  0.00    -0.305 N 
ATOM     19  C   LIG    1       -4.578  10.036  -0.106  0.00  0.00    +0.165 A 
ATOM     20  N   LIG    1       -4.833   8.755   0.027  0.00  0.00    -0.128 NA
ATOM     21  N   LIG    1       -3.741   8.110   0.230  0.00  0.00    -0.122 NA
ATOM     22  C   LIG    1       -2.721   8.941   0.246  0.00  0.00    +0.192 A 
BRANCH  19  23
ATOM     23  C   LIG    1       -5.566  11.107  -0.356  0.00  0.00    +0.022 A 
ATOM     24  C   LIG    1       -6.931  10.893  -0.132  0.00  0.00    +0.031 A 
ATOM     25  C   LIG    1       -7.817  11.922  -0.372  0.00  0.00    +0.111 A 
ATOM     26  N   LIG    1       -7.394  13.090  -0.817  0.00  0.00    -0.263 NA
ATOM     27  C   LIG    1       -6.118  13.332  -1.047  0.00  0.00    +0.111 A 
ATOM     28  C   LIG    1       -5.162  12.362  -0.828  0.00  0.00    +0.031 A 
ENDBRANCH  19  23
ENDBRANCH  16  22
ENDBRANCH   1  16
TORSDOF 6
