REMARK  Name = ZINC02018607
REMARK                            x       y       z     vdW  Elec       q    Type
REMARK                         _______ _______ _______ _____ _____    ______ ____
ROOT
ATOM      1  C   LIG    1       -0.018   1.461   0.010  0.00  0.00    +0.149 C 
ATOM      2  N   LIG    1        0.002  -0.004   0.002  0.00  0.00    -0.347 N 
ATOM      3  C   LIG    1        0.008  -0.788  -1.130  0.00  0.00    +0.049 A 
ATOM      4  C   LIG    1       -0.003  -0.502  -2.492  0.00  0.00    +0.026 A 
ATOM      5  C   LIG    1        0.007  -1.531  -3.408  0.00  0.00    +0.002 A 
ATOM      6  C   LIG    1        0.027  -2.853  -2.986  0.00  0.00    +0.001 A 
ATOM      7  C   LIG    1        0.038  -3.157  -1.654  0.00  0.00    +0.010 A 
ATOM      8  C   LIG    1        0.030  -2.130  -0.708  0.00  0.00    +0.003 A 
ATOM      9  C   LIG    1        0.042  -2.090   0.753  0.00  0.00    -0.021 A 
ATOM     10  C   LIG    1        0.087  -3.261   1.699  0.00  0.00    +0.018 C 
ATOM     11  C   LIG    1       -0.549  -2.857   3.027  0.00  0.00    -0.078 C 
ATOM     12  N   LIG    1        0.468  -2.297   3.920  0.00  0.00    +0.380 N 
ATOM     13  H   LIG    1        0.042  -2.073   4.807  0.00  0.00    -0.086 HD
ATOM     14  H   LIG    1        1.194  -2.982   4.066  0.00  0.00    -0.086 HD
ATOM     15  C   LIG    1        1.059  -1.084   3.352  0.00  0.00    -0.076 C 
ATOM     16  C   LIG    1        0.008  -0.313   2.550  0.00  0.00    +0.034 C 
ATOM     17  C   LIG    1        0.023  -0.795   1.118  0.00  0.00    +0.021 A 
ENDROOT
TORSDOF 0
