REMARK  Name = ZINC02369666
REMARK                            x       y       z     vdW  Elec       q    Type
REMARK                         _______ _______ _______ _____ _____    ______ ____
ROOT
ATOM      1  C   LIG    1        0.074  -1.636   5.170  0.00  0.00    +0.173 C 
ATOM      2  O   LIG    1        0.062  -0.491   5.572  0.00  0.00    -0.291 OA
ENDROOT
BRANCH   1   3
ATOM      3  C   LIG    1        0.099  -2.751   6.128  0.00  0.00    +0.018 A 
ATOM      4  C   LIG    1        0.119  -4.072   5.666  0.00  0.00    +0.012 A 
ATOM      5  C   LIG    1        0.142  -5.110   6.561  0.00  0.00    +0.009 A 
ATOM      6  C   LIG    1        0.145  -4.850   7.932  0.00  0.00    -0.018 A 
ATOM      7  C   LIG    1        0.125  -3.534   8.396  0.00  0.00    +0.009 A 
ATOM      8  C   LIG    1        0.109  -2.493   7.504  0.00  0.00    +0.012 A 
BRANCH   6   9
ATOM      9  C   LIG    1        0.170  -5.974   8.898  0.00  0.00    -0.018 A 
ATOM     10  C   LIG    1        0.196  -7.291   8.439  0.00  0.00    +0.008 A 
ATOM     11  C   LIG    1        0.218  -8.333   9.343  0.00  0.00    +0.001 A 
ATOM     12  C   LIG    1        0.215  -8.074  10.702  0.00  0.00    +0.000 A 
ATOM     13  C   LIG    1        0.190  -6.770  11.163  0.00  0.00    +0.001 A 
ATOM     14  C   LIG    1        0.173  -5.720  10.269  0.00  0.00    +0.008 A 
ENDBRANCH   6   9
ENDBRANCH   1   3
BRANCH   1  15
ATOM     15  C   LIG    1        0.064  -1.915   3.689  0.00  0.00    +0.157 C 
BRANCH  15  16
ATOM     16  S   LIG    1        0.033  -0.346   2.779  0.00  0.00    -0.078 S 
BRANCH  16  22
ATOM     17  C   LIG    1       -0.018   1.461   0.010  0.00  0.00    +0.153 C 
ATOM     18  N   LIG    1        0.002  -0.004   0.002  0.00  0.00    -0.303 N 
ATOM     19  C   LIG    1        0.009  -0.831  -1.100  0.00  0.00    +0.200 A 
ATOM     20  N   LIG    1        0.028  -2.067  -0.653  0.00  0.00    -0.125 NA
ATOM     21  N   LIG    1        0.034  -2.069   0.632  0.00  0.00    -0.122 NA
ATOM     22  C   LIG    1        0.024  -0.836   1.086  0.00  0.00    +0.192 A 
BRANCH  19  23
ATOM     23  C   LIG    1       -0.005  -0.410  -2.510  0.00  0.00    +0.172 A 
ATOM     24  C   LIG    1        0.281  -1.199  -3.583  0.00  0.00    +0.053 A 
ATOM     25  C   LIG    1        0.145  -0.391  -4.728  0.00  0.00    +0.042 A 
ATOM     26  C   LIG    1       -0.213   0.838  -4.305  0.00  0.00    +0.196 A 
ATOM     27  O   LIG    1       -0.308   0.822  -2.965  0.00  0.00    -0.460 OA
ENDBRANCH  19  23
ENDBRANCH  16  22
ENDBRANCH  15  16
ENDBRANCH   1  15
TORSDOF 6
