REMARK  Name = ZINC02028582
REMARK                            x       y       z     vdW  Elec       q    Type
REMARK                         _______ _______ _______ _____ _____    ______ ____
ROOT
ATOM      1  C   LIG    1       -2.334   7.620  -5.383  0.00  0.00    +0.070 C 
ENDROOT
BRANCH   1   5
ATOM      2  C   LIG    1       -1.272   6.609  -1.371  0.00  0.00    -0.030 A 
ATOM      3  C   LIG    1       -0.617   7.639  -2.021  0.00  0.00    +0.005 A 
ATOM      4  C   LIG    1       -0.958   7.963  -3.321  0.00  0.00    +0.004 A 
ATOM      5  C   LIG    1       -1.960   7.264  -3.968  0.00  0.00    -0.043 A 
ATOM      6  C   LIG    1       -2.618   6.239  -3.316  0.00  0.00    +0.004 A 
ATOM      7  C   LIG    1       -2.275   5.911  -2.018  0.00  0.00    +0.005 A 
BRANCH   2   8
ATOM      8  C   LIG    1       -0.897   6.253   0.044  0.00  0.00    +0.149 C 
BRANCH   8  18
ATOM      9  C   LIG    1       -0.013   1.076   0.008  0.00  0.00    +0.001 A 
ATOM     10  C   LIG    1       -1.222   1.751   0.017  0.00  0.00    +0.002 A 
ATOM     11  C   LIG    1       -1.258   3.133   0.031  0.00  0.00    +0.024 A 
ATOM     12  C   LIG    1       -0.076   3.863   0.024  0.00  0.00    +0.048 A 
ATOM     13  C   LIG    1        1.148   3.176   0.008  0.00  0.00    +0.048 A 
ATOM     14  C   LIG    1        2.207   4.202   0.004  0.00  0.00    +0.250 C 
ATOM     15  C   LIG    1        1.474   5.510   0.018  0.00  0.00    +0.292 C 
ATOM     16  O   LIG    1        1.976   6.614   0.019  0.00  0.00    -0.266 OA
ATOM     17  O   LIG    1        3.408   4.027  -0.009  0.00  0.00    -0.282 OA
ATOM     18  N   LIG    1        0.158   5.236   0.029  0.00  0.00    -0.260 N 
ATOM     19  C   LIG    1        1.173   1.781   0.000  0.00  0.00    +0.014 A 
ENDBRANCH   8  18
ENDBRANCH   2   8
ENDBRANCH   1   5
BRANCH   1  20
ATOM     20  C   LIG    1       -3.419   8.665  -5.369  0.00  0.00    -0.043 A 
ATOM     21  C   LIG    1       -4.747   8.282  -5.365  0.00  0.00    +0.004 A 
ATOM     22  C   LIG    1       -5.743   9.241  -5.347  0.00  0.00    +0.005 A 
ATOM     23  C   LIG    1       -5.411  10.583  -5.341  0.00  0.00    -0.030 A 
ATOM     24  C   LIG    1       -4.083  10.966  -5.350  0.00  0.00    +0.005 A 
ATOM     25  C   LIG    1       -3.087  10.007  -5.364  0.00  0.00    +0.004 A 
BRANCH  23  26
ATOM     26  C   LIG    1       -6.496  11.628  -5.325  0.00  0.00    +0.149 C 
BRANCH  26  27
ATOM     27  N   LIG    1       -6.860  11.975  -6.702  0.00  0.00    -0.260 N 
ATOM     28  C   LIG    1       -6.260  12.994  -7.438  0.00  0.00    +0.048 A 
ATOM     29  C   LIG    1       -5.237  13.878  -7.119  0.00  0.00    +0.024 A 
ATOM     30  C   LIG    1       -4.810  14.810  -8.046  0.00  0.00    +0.002 A 
ATOM     31  C   LIG    1       -5.387  14.874  -9.303  0.00  0.00    +0.001 A 
ATOM     32  C   LIG    1       -6.401  14.001  -9.643  0.00  0.00    +0.014 A 
ATOM     33  C   LIG    1       -6.840  13.057  -8.716  0.00  0.00    +0.048 A 
ATOM     34  C   LIG    1       -7.875  12.007  -8.761  0.00  0.00    +0.250 C 
ATOM     35  O   LIG    1       -8.611  11.732  -9.686  0.00  0.00    -0.282 OA
ATOM     36  C   LIG    1       -7.819  11.355  -7.411  0.00  0.00    +0.292 C 
ATOM     37  O   LIG    1       -8.512  10.436  -7.029  0.00  0.00    -0.266 OA
ENDBRANCH  26  27
ENDBRANCH  23  26
ENDBRANCH   1  20
TORSDOF 6
