REMARK  Name = ZINC01710914
REMARK                            x       y       z     vdW  Elec       q    Type
REMARK                         _______ _______ _______ _____ _____    ______ ____
ROOT
ATOM      1  C   LIG    1       -1.356   6.037   0.045  0.00  0.00    +0.043 C 
ATOM      2  C   LIG    1       -2.513   5.356   0.053  0.00  0.00    +0.096 C 
ATOM      3 CL   LIG    1       -4.016   6.223   0.072  0.00  0.00    -0.079 Cl
ATOM      4  C   LIG    1       -2.523   3.879   0.046  0.00  0.00    +0.205 C 
ATOM      5  C   LIG    1       -1.244   3.138   0.031  0.00  0.00    +0.034 A 
ATOM      6  C   LIG    1       -1.225   1.748   0.017  0.00  0.00    +0.012 A 
ATOM      7  C   LIG    1       -0.013   1.076   0.008  0.00  0.00    +0.001 A 
ATOM      8  C   LIG    1        1.177   1.778   0.000  0.00  0.00    +0.001 A 
ATOM      9  C   LIG    1        1.175   3.165   0.007  0.00  0.00    +0.012 A 
ATOM     10  C   LIG    1       -0.033   3.853   0.023  0.00  0.00    +0.033 A 
ATOM     11  O   LIG    1       -3.577   3.276   0.053  0.00  0.00    -0.286 OA
ATOM     12  C   LIG    1       -0.063   5.331   0.030  0.00  0.00    +0.193 C 
ATOM     13  O   LIG    1        0.975   5.963   0.023  0.00  0.00    -0.287 OA
ENDROOT
BRANCH   1  14
ATOM     14  C   LIG    1       -1.381   7.543   0.051  0.00  0.00    +0.198 C 
BRANCH  14  15
ATOM     15  C   LIG    1       -0.667   8.052   1.277  0.00  0.00    +0.149 C 
ATOM     16  C   LIG    1       -1.409   8.179   2.583  0.00  0.00    +0.087 C 
ATOM     17  O   LIG    1        0.499   8.359   1.213  0.00  0.00    -0.296 OA
ENDBRANCH  14  15
BRANCH  14  18
ATOM     18  C   LIG    1       -0.690   8.062  -1.184  0.00  0.00    +0.322 C 
ATOM     19  O   LIG    1       -0.226   7.288  -1.987  0.00  0.00    -0.250 OA
BRANCH  18  20
ATOM     20  O   LIG    1       -0.591   9.385  -1.392  0.00  0.00    -0.464 OA
BRANCH  20  22
ATOM     21  C   LIG    1        0.102  11.341  -2.666  0.00  0.00    +0.048 C 
ATOM     22  C   LIG    1        0.087   9.812  -2.603  0.00  0.00    +0.229 C 
ENDBRANCH  20  22
ENDBRANCH  18  20
ENDBRANCH  14  18
ENDBRANCH   1  14
TORSDOF 5
