REMARK  Name = ZINC01684357
REMARK                            x       y       z     vdW  Elec       q    Type
REMARK                         _______ _______ _______ _____ _____    ______ ____
ROOT
ATOM      1  C   LIG    1       -0.013   1.076   0.008  0.00  0.00    +0.014 C 
ATOM      2  C   LIG    1        1.137   1.761   0.001  0.00  0.00    +0.041 C 
ENDROOT
BRANCH   1   6
ATOM      3  C   LIG    1       -3.717   3.148   0.038  0.00  0.00    +0.000 A 
ATOM      4  C   LIG    1       -3.702   1.764   0.030  0.00  0.00    +0.001 A 
ATOM      5  C   LIG    1       -2.502   1.084   0.020  0.00  0.00    +0.008 A 
ATOM      6  C   LIG    1       -1.300   1.796   0.018  0.00  0.00    -0.025 A 
ATOM      7  C   LIG    1       -1.322   3.192   0.032  0.00  0.00    +0.008 A 
ATOM      8  C   LIG    1       -2.530   3.859   0.036  0.00  0.00    +0.001 A 
ENDBRANCH   1   6
BRANCH   2   9
ATOM      9  S   LIG    1        2.675   0.901  -0.019  0.00  0.00    -0.122 S 
BRANCH   9  10
ATOM     10  C   LIG    1        3.820   2.303  -0.022  0.00  0.00    +0.194 C 
BRANCH  10  11
ATOM     11  C   LIG    1        5.238   1.794  -0.038  0.00  0.00    +0.315 C 
ATOM     12  O   LIG    1        5.453   0.605  -0.047  0.00  0.00    -0.250 OA
BRANCH  11  13
ATOM     13  O   LIG    1        6.262   2.661  -0.043  0.00  0.00    -0.480 OA
ATOM     14  H   LIG    1        6.095   3.583  -0.037  0.00  0.00    +0.295 HD
ENDBRANCH  11  13
ENDBRANCH  10  11
ENDBRANCH   9  10
ENDBRANCH   2   9
TORSDOF 5
