REMARK  Name = ZINC01803337
REMARK                            x       y       z     vdW  Elec       q    Type
REMARK                         _______ _______ _______ _____ _____    ______ ____
ROOT
ATOM      1  C   LIG    1       -1.344  -0.654  -0.033  0.00  0.00    +0.041 A 
ATOM      2  C   LIG    1       -1.876  -1.496  -1.113  0.00  0.00    +0.088 A 
ATOM      3  C   LIG    1       -1.526  -1.742  -2.447  0.00  0.00    +0.134 A 
ATOM      4  N   LIG    1       -2.267  -2.599  -3.146  0.00  0.00    -0.220 NA
ATOM      5  C   LIG    1       -3.305  -3.202  -2.596  0.00  0.00    +0.227 A 
ATOM      6  N   LIG    1       -3.667  -2.998  -1.347  0.00  0.00    -0.200 NA
ATOM      7  C   LIG    1       -2.988  -2.159  -0.569  0.00  0.00    +0.233 A 
ATOM      8  O   LIG    1       -3.118  -1.762   0.709  0.00  0.00    -0.436 OA
ATOM      9  C   LIG    1       -2.155  -0.880   1.046  0.00  0.00    +0.146 A 
ENDROOT
BRANCH   1  13
ATOM     10  C   LIG    1        2.025   1.929  -0.215  0.00  0.00    +0.000 A 
ATOM     11  C   LIG    1        0.756   2.461  -0.068  0.00  0.00    +0.001 A 
ATOM     12  C   LIG    1       -0.342   1.627  -0.009  0.00  0.00    +0.008 A 
ATOM     13  C   LIG    1       -0.170   0.245  -0.096  0.00  0.00    -0.014 A 
ATOM     14  C   LIG    1        1.112  -0.285  -0.244  0.00  0.00    +0.008 A 
ATOM     15  C   LIG    1        2.202   0.559  -0.302  0.00  0.00    +0.001 A 
ENDBRANCH   1  13
BRANCH   9  16
ATOM     16  C   LIG    1       -2.003  -0.251   2.372  0.00  0.00    +0.018 A 
ATOM     17  C   LIG    1       -0.750  -0.212   2.990  0.00  0.00    +0.011 A 
ATOM     18  C   LIG    1       -0.614   0.382   4.227  0.00  0.00    +0.001 A 
ATOM     19  C   LIG    1       -1.717   0.928   4.861  0.00  0.00    +0.000 A 
ATOM     20  C   LIG    1       -2.961   0.888   4.257  0.00  0.00    +0.001 A 
ATOM     21  C   LIG    1       -3.111   0.303   3.018  0.00  0.00    +0.011 A 
ENDBRANCH   9  16
BRANCH   3  22
ATOM     22  N   LIG    1       -0.439  -1.110  -3.023  0.00  0.00    -0.326 N 
ATOM     23  H   LIG    1        0.092  -0.488  -2.503  0.00  0.00    +0.148 HD
BRANCH  22  24
ATOM     24  C   LIG    1       -0.090  -1.381  -4.420  0.00  0.00    +0.130 C 
BRANCH  24  25
ATOM     25  C   LIG    1        1.143  -0.561  -4.806  0.00  0.00    +0.174 C 
BRANCH  25  26
ATOM     26  O   LIG    1        2.267  -1.002  -4.043  0.00  0.00    -0.393 OA
ATOM     27  H   LIG    1        3.085  -0.525  -4.236  0.00  0.00    +0.209 HD
ENDBRANCH  25  26
ENDBRANCH  24  25
ENDBRANCH  22  24
ENDBRANCH   3  22
TORSDOF 6
