REMARK  Name = ZINC01717014
REMARK                            x       y       z     vdW  Elec       q    Type
REMARK                         _______ _______ _______ _____ _____    ______ ____
ROOT
ATOM      1  C   LIG    1        3.717  -0.662  -0.036  0.00  0.00    +0.249 C 
ATOM      2  N   LIG    1        4.868   0.040  -0.047  0.00  0.00    -0.281 N 
ATOM      3  H   LIG    1        4.845   1.007  -0.116  0.00  0.00    +0.155 HD
ATOM      4  O   LIG    1        3.747  -1.878  -0.034  0.00  0.00    -0.270 OA
ENDROOT
BRANCH   2   5
ATOM      5  C   LIG    1        6.093  -0.626   0.043  0.00  0.00    +0.034 A 
ATOM      6  C   LIG    1        7.150  -0.048   0.737  0.00  0.00    +0.024 A 
ATOM      7  C   LIG    1        8.359  -0.701   0.827  0.00  0.00    +0.010 A 
ATOM      8  C   LIG    1        8.528  -1.948   0.220  0.00  0.00    -0.014 A 
ATOM      9  C   LIG    1        7.465  -2.522  -0.474  0.00  0.00    -0.034 A 
ATOM     10  C   LIG    1        7.938  -3.850  -1.014  0.00  0.00    +0.071 C 
ATOM     11  C   LIG    1        9.373  -3.993  -0.569  0.00  0.00    -0.033 A 
ATOM     12  C   LIG    1       10.306  -4.989  -0.763  0.00  0.00    +0.043 A 
ATOM     13  C   LIG    1       11.580  -4.858  -0.231  0.00  0.00    +0.124 A 
ATOM     14  F   LIG    1       12.494  -5.834  -0.422  0.00  0.00    -0.205 F 
ATOM     15  C   LIG    1       11.915  -3.729   0.497  0.00  0.00    +0.039 A 
ATOM     16  C   LIG    1       10.986  -2.729   0.695  0.00  0.00    +0.011 A 
ATOM     17  C   LIG    1        9.702  -2.854   0.162  0.00  0.00    -0.014 A 
ATOM     18  C   LIG    1        6.255  -1.869  -0.558  0.00  0.00    +0.028 A 
ENDBRANCH   2   5
BRANCH   1  22
ATOM     19  C   LIG    1       -0.017   1.377  -0.012  0.00  0.00    +0.001 A 
ATOM     20  C   LIG    1        1.168   2.095  -0.022  0.00  0.00    +0.001 A 
ATOM     21  C   LIG    1        2.382   1.439  -0.030  0.00  0.00    +0.013 A 
ATOM     22  C   LIG    1        2.421   0.045  -0.028  0.00  0.00    +0.045 A 
ATOM     23  C   LIG    1        1.217  -0.684  -0.017  0.00  0.00    -0.005 A 
ATOM     24  C   LIG    1        0.002  -0.003  -0.010  0.00  0.00    +0.009 A 
BRANCH  23  25
ATOM     25  C   LIG    1        1.242  -2.164  -0.015  0.00  0.00    -0.003 A 
ATOM     26  C   LIG    1        0.743  -2.874  -1.103  0.00  0.00    +0.009 A 
ATOM     27  C   LIG    1        0.768  -4.255  -1.097  0.00  0.00    +0.001 A 
ATOM     28  C   LIG    1        1.288  -4.943  -0.013  0.00  0.00    +0.001 A 
ATOM     29  C   LIG    1        1.789  -4.258   1.074  0.00  0.00    +0.015 A 
ATOM     30  C   LIG    1        1.777  -2.862   1.085  0.00  0.00    +0.067 A 
BRANCH  30  31
ATOM     31  C   LIG    1        2.315  -2.124   2.241  0.00  0.00    +0.337 C 
ATOM     32  O   LIG    1        2.779  -2.735   3.194  0.00  0.00    -0.245 OA
BRANCH  31  33
ATOM     33  O   LIG    1        2.298  -0.901   2.248  0.00  0.00    -0.477 OA
ATOM     34  H   LIG    1        1.943  -0.433   1.518  0.00  0.00    +0.295 HD
ENDBRANCH  31  33
ENDBRANCH  30  31
ENDBRANCH  23  25
ENDBRANCH   1  22
TORSDOF 5
