REMARK  Name = ZINC01908051
REMARK                            x       y       z     vdW  Elec       q    Type
REMARK                         _______ _______ _______ _____ _____    ______ ____
ROOT
ATOM      1  C   LIG    1       -1.955   3.514   1.469  0.00  0.00    +0.084 C 
ATOM      2  C   LIG    1       -3.116   2.788   0.788  0.00  0.00    +0.028 C 
ENDROOT
BRANCH   1   3
ATOM      3  N   LIG    1       -2.319   3.826   2.854  0.00  0.00    -0.308 N 
ATOM      4  H   LIG    1       -2.060   3.225   3.570  0.00  0.00    +0.149 HD
ATOM      5  C   LIG    1       -3.014   4.947   3.132  0.00  0.00    +0.244 C 
ATOM      6  O   LIG    1       -3.339   5.699   2.234  0.00  0.00    -0.270 OA
BRANCH   5   7
ATOM      7  C   LIG    1       -3.381   5.261   4.528  0.00  0.00    +0.037 A 
ATOM      8  C   LIG    1       -3.013   4.394   5.560  0.00  0.00    +0.013 A 
ATOM      9  C   LIG    1       -3.352   4.690   6.861  0.00  0.00    +0.004 A 
ATOM     10  C   LIG    1       -4.071   5.850   7.148  0.00  0.00    -0.044 A 
ATOM     11  C   LIG    1       -4.444   6.714   6.118  0.00  0.00    +0.004 A 
ATOM     12  C   LIG    1       -4.101   6.422   4.817  0.00  0.00    +0.013 A 
BRANCH  10  13
ATOM     13  C   LIG    1       -4.440   6.165   8.550  0.00  0.00    +0.022 C 
ATOM     14  C   LIG    1       -5.156   7.325   8.860  0.00  0.00    +0.026 C 
ATOM     15  C   LIG    1       -5.483   7.578  10.176  0.00  0.00    +0.115 C 
ATOM     16  N   LIG    1       -5.120   6.747  11.136  0.00  0.00    -0.191 NA
ATOM     17  C   LIG    1       -4.439   5.644  10.886  0.00  0.00    +0.115 C 
ATOM     18  C   LIG    1       -4.076   5.313   9.597  0.00  0.00    +0.026 C 
BRANCH  16  19
ATOM     19  O   LIG    1       -5.473   7.047  12.474  0.00  0.00    -0.312 OA
ATOM     20  H   LIG    1       -5.967   7.882  12.499  0.00  0.00    +0.237 HD
ENDBRANCH  16  19
ENDBRANCH  10  13
ENDBRANCH   5   7
ENDBRANCH   1   3
BRANCH   1  21
ATOM     21  C   LIG    1       -0.715   2.618   1.457  0.00  0.00    +0.122 C 
BRANCH  21  22
ATOM     22  C   LIG    1        0.429   3.334   2.129  0.00  0.00    +0.312 C 
ATOM     23  O   LIG    1        1.444   3.560   1.514  0.00  0.00    -0.250 OA
BRANCH  22  24
ATOM     24  O   LIG    1        0.320   3.719   3.410  0.00  0.00    -0.468 OA
ATOM     25  C   LIG    1        1.460   4.404   3.992  0.00  0.00    +0.280 C 
ENDBRANCH  22  24
ENDBRANCH  21  22
BRANCH  21  26
ATOM     26  C   LIG    1       -0.335   2.293   0.011  0.00  0.00    +0.051 C 
BRANCH  26  31
ATOM     27  C   LIG    1        1.615  -0.950  -0.018  0.00  0.00    +0.061 A 
ATOM     28  C   LIG    1        2.927  -0.478  -0.029  0.00  0.00    +0.016 A 
ATOM     29  C   LIG    1        3.170   0.880  -0.024  0.00  0.00    +0.001 A 
ATOM     30  C   LIG    1        2.114   1.774  -0.009  0.00  0.00    +0.004 A 
ATOM     31  C   LIG    1        0.810   1.312   0.001  0.00  0.00    -0.046 A 
ATOM     32  C   LIG    1        0.555  -0.044  -0.003  0.00  0.00    +0.019 A 
BRANCH  27  36
ATOM     33  H   LIG    1       -0.155  -3.779  -0.018  0.00  0.00    +0.301 HD
ATOM     34  N   LIG    1        0.080  -2.786  -0.015  0.00  0.00    -0.288 N 
ATOM     35  H   LIG    1       -0.667  -2.082  -0.004  0.00  0.00    +0.301 HD
ATOM     36  C   LIG    1        1.348  -2.406  -0.024  0.00  0.00    +0.266 C 
BRANCH  36  37
ATOM     37  N   LIG    1        2.397  -3.299  -0.039  0.00  0.00    -0.250 N 
ATOM     38  H   LIG    1        2.223  -4.253  -0.043  0.00  0.00    +0.288 HD
ATOM     39  H   LIG    1        3.311  -2.973  -0.046  0.00  0.00    +0.288 HD
ENDBRANCH  36  37
ENDBRANCH  27  36
ENDBRANCH  26  31
ENDBRANCH  21  26
ENDBRANCH   1  21
TORSDOF 11
