REMARK  Name = ZINC02361761
REMARK                            x       y       z     vdW  Elec       q    Type
REMARK                         _______ _______ _______ _____ _____    ______ ____
ROOT
ATOM      1  C   LIG    1       -3.760  -4.712   0.130  0.00  0.00    +0.165 A 
ATOM      2  C   LIG    1       -3.802  -6.123   0.240  0.00  0.00    +0.179 A 
ATOM      3  N   LIG    1       -4.956  -6.749   0.349  0.00  0.00    -0.226 NA
ATOM      4  C   LIG    1       -6.098  -6.045   0.355  0.00  0.00    +0.091 A 
ATOM      5  C   LIG    1       -7.340  -6.689   0.470  0.00  0.00    +0.030 A 
ATOM      6  C   LIG    1       -8.486  -5.952   0.474  0.00  0.00    +0.002 A 
ATOM      7  C   LIG    1       -8.444  -4.565   0.365  0.00  0.00    +0.002 A 
ATOM      8  C   LIG    1       -7.256  -3.908   0.251  0.00  0.00    +0.030 A 
ATOM      9  C   LIG    1       -6.055  -4.635   0.244  0.00  0.00    +0.091 A 
ATOM     10  N   LIG    1       -4.873  -4.009   0.139  0.00  0.00    -0.227 NA
ENDROOT
BRANCH   1  11
ATOM     11  N   LIG    1       -2.537  -4.066   0.016  0.00  0.00    -0.296 N 
ATOM     12  H   LIG    1       -1.721  -4.583  -0.069  0.00  0.00    +0.154 HD
BRANCH  11  15
ATOM     13  C   LIG    1       -3.333  -0.558   0.792  0.00  0.00    +0.125 A 
ATOM     14  C   LIG    1       -3.389  -1.943   0.784  0.00  0.00    +0.069 A 
ATOM     15  C   LIG    1       -2.482  -2.670   0.025  0.00  0.00    +0.039 A 
ATOM     16  C   LIG    1       -1.518  -2.008  -0.726  0.00  0.00    +0.069 A 
ATOM     17  C   LIG    1       -1.464  -0.623  -0.716  0.00  0.00    +0.125 A 
ATOM     18  C   LIG    1       -2.374   0.102   0.038  0.00  0.00    +0.091 A 
BRANCH  13  20
ATOM     19  C   LIG    1       -4.110   1.578   1.491  0.00  0.00    +0.277 C 
ATOM     20  O   LIG    1       -4.222   0.154   1.534  0.00  0.00    -0.495 OA
ENDBRANCH  13  20
BRANCH  17  21
ATOM     21  O   LIG    1       -0.521   0.025  -1.450  0.00  0.00    -0.495 OA
ATOM     22  C   LIG    1       -0.523   1.452  -1.393  0.00  0.00    +0.277 C 
ENDBRANCH  17  21
ENDBRANCH  11  15
ENDBRANCH   1  11
BRANCH   2  23
ATOM     23  N   LIG    1       -2.622  -6.851   0.233  0.00  0.00    -0.197 N 
ATOM     24  H   LIG    1       -1.770  -6.393   0.153  0.00  0.00    +0.175 HD
BRANCH  23  25
ATOM     25  S   LIG    1       -2.665  -8.501   0.362  0.00  0.00    +0.074 S 
ATOM     26  O   LIG    1       -3.516  -8.800   1.460  0.00  0.00    -0.150 OA
ATOM     27  O   LIG    1       -1.318  -8.949   0.298  0.00  0.00    -0.150 OA
BRANCH  25  28
ATOM     28  C   LIG    1       -3.470  -9.115  -1.080  0.00  0.00    +0.109 A 
ATOM     29  C   LIG    1       -4.842  -9.279  -1.088  0.00  0.00    +0.031 A 
ATOM     30  C   LIG    1       -5.474  -9.760  -2.219  0.00  0.00    +0.040 A 
ATOM     31  C   LIG    1       -4.732 -10.078  -3.344  0.00  0.00    +0.124 A 
ATOM     32  F   LIG    1       -5.349 -10.549  -4.450  0.00  0.00    -0.205 F 
ATOM     33  C   LIG    1       -3.357  -9.914  -3.334  0.00  0.00    +0.040 A 
ATOM     34  C   LIG    1       -2.728  -9.428  -2.204  0.00  0.00    +0.031 A 
ENDBRANCH  25  28
ENDBRANCH  23  25
ENDBRANCH   2  23
TORSDOF 7
