REMARK  Name = ZINC01902827
REMARK                            x       y       z     vdW  Elec       q    Type
REMARK                         _______ _______ _______ _____ _____    ______ ____
ROOT
ATOM      1  C   LIG    1        0.215  -1.133  -4.354  0.00  0.00    +0.262 A 
ATOM      2  C   LIG    1       -1.110  -0.990  -3.970  0.00  0.00    +0.209 A 
ATOM      3  F   LIG    1       -1.958  -0.238  -4.705  0.00  0.00    -0.198 F 
ATOM      4  C   LIG    1       -1.555  -1.633  -2.816  0.00  0.00    +0.112 A 
ATOM      5  C   LIG    1       -0.642  -2.398  -2.090  0.00  0.00    +0.209 A 
ATOM      6  F   LIG    1       -1.029  -3.038  -0.965  0.00  0.00    -0.198 F 
ATOM      7  C   LIG    1        0.666  -2.493  -2.537  0.00  0.00    +0.262 A 
ATOM      8  N   LIG    1        1.051  -1.872  -3.642  0.00  0.00    -0.172 NA
ENDROOT
BRANCH   4   9
ATOM      9  N   LIG    1       -2.880  -1.513  -2.397  0.00  0.00    -0.318 N 
ATOM     10  C   LIG    1       -2.963  -0.831  -1.098  0.00  0.00    +0.130 C 
BRANCH   9  11
ATOM     11  C   LIG    1       -3.536  -2.827  -2.344  0.00  0.00    +0.225 C 
BRANCH  11  12
ATOM     12  C   LIG    1       -5.016  -2.640  -2.130  0.00  0.00    +0.322 C 
ATOM     13  O   LIG    1       -5.477  -1.528  -2.031  0.00  0.00    -0.249 OA
BRANCH  12  14
ATOM     14  O   LIG    1       -5.823  -3.711  -2.049  0.00  0.00    -0.480 OA
ATOM     15  H   LIG    1       -5.465  -4.573  -2.125  0.00  0.00    +0.295 HD
ENDBRANCH  12  14
ENDBRANCH  11  12
ENDBRANCH   9  11
ENDBRANCH   4   9
BRANCH   1  16
ATOM     16  O   LIG    1        0.658  -0.511  -5.477  0.00  0.00    -0.432 OA
BRANCH  16  21
ATOM     17  C   LIG    1        2.903  -3.104  -6.718  0.00  0.00    +0.065 A 
ATOM     18  C   LIG    1        3.261  -2.565  -7.954  0.00  0.00    +0.019 A 
ATOM     19  C   LIG    1        2.749  -1.348  -8.350  0.00  0.00    +0.050 A 
ATOM     20  C   LIG    1        1.876  -0.656  -7.522  0.00  0.00    +0.159 A 
ATOM     21  C   LIG    1        1.514  -1.190  -6.287  0.00  0.00    +0.172 A 
ATOM     22  C   LIG    1        2.025  -2.410  -5.885  0.00  0.00    +0.065 A 
BRANCH  17  26
ATOM     23  H   LIG    1        3.387  -5.781  -4.788  0.00  0.00    +0.301 HD
ATOM     24  N   LIG    1        2.987  -4.920  -5.162  0.00  0.00    -0.288 N 
ATOM     25  H   LIG    1        2.224  -4.449  -4.662  0.00  0.00    +0.301 HD
ATOM     26  C   LIG    1        3.453  -4.410  -6.293  0.00  0.00    +0.266 C 
BRANCH  26  27
ATOM     27  N   LIG    1        4.401  -5.044  -7.066  0.00  0.00    -0.250 N 
ATOM     28  H   LIG    1        4.707  -5.933  -6.827  0.00  0.00    +0.288 HD
ATOM     29  H   LIG    1        4.763  -4.601  -7.849  0.00  0.00    +0.288 HD
ENDBRANCH  26  27
ENDBRANCH  17  26
BRANCH  20  30
ATOM     30  O   LIG    1        1.369   0.540  -7.919  0.00  0.00    -0.503 OA
ATOM     31  H   LIG    1        1.903   1.301  -7.655  0.00  0.00    +0.292 HD
ENDBRANCH  20  30
ENDBRANCH  16  21
ENDBRANCH   1  16
BRANCH   7  32
ATOM     32  O   LIG    1        1.562  -3.235  -1.837  0.00  0.00    -0.436 OA
BRANCH  32  33
ATOM     33  C   LIG    1        2.822  -2.746  -1.694  0.00  0.00    +0.131 A 
ATOM     34  C   LIG    1        3.203  -1.599  -2.377  0.00  0.00    +0.046 A 
ATOM     35  C   LIG    1        4.481  -1.094  -2.229  0.00  0.00    +0.004 A 
ATOM     36  C   LIG    1        5.390  -1.734  -1.411  0.00  0.00    +0.016 A 
ATOM     37  C   LIG    1        5.018  -2.890  -0.726  0.00  0.00    +0.065 A 
ATOM     38  C   LIG    1        3.727  -3.396  -0.871  0.00  0.00    +0.062 A 
BRANCH  37  39
ATOM     39  C   LIG    1        5.991  -3.579   0.153  0.00  0.00    +0.273 C 
ATOM     40  N   LIG    1        6.044  -4.868   0.264  0.00  0.00    -0.271 N 
ATOM     41  H   LIG    1        5.432  -5.528  -0.230  0.00  0.00    +0.304 HD
ATOM     42  C   LIG    1        7.111  -5.245   1.205  0.00  0.00    +0.277 C 
ATOM     43  C   LIG    1        7.705  -3.897   1.662  0.00  0.00    +0.270 C 
ATOM     44  N   LIG    1        6.907  -2.907   0.920  0.00  0.00    -0.222 N 
ATOM     45  C   LIG    1        7.064  -1.452   0.991  0.00  0.00    +0.276 C 
ENDBRANCH  37  39
ENDBRANCH  32  33
ENDBRANCH   7  32
TORSDOF 12
