REMARK  Name = ZINC02047275
REMARK                            x       y       z     vdW  Elec       q    Type
REMARK                         _______ _______ _______ _____ _____    ______ ____
ROOT
ATOM      1  C   LIG    1        0.481  -4.267  -0.314  0.00  0.00    +0.105 A 
ATOM      2  C   LIG    1        1.023  -5.121   0.742  0.00  0.00    +0.086 A 
ATOM      3  C   LIG    1        1.720  -4.897   1.941  0.00  0.00    +0.131 A 
ATOM      4  N   LIG    1        2.066  -5.950   2.676  0.00  0.00    -0.220 NA
ATOM      5  C   LIG    1        1.764  -7.178   2.293  0.00  0.00    +0.225 A 
ATOM      6  N   LIG    1        1.114  -7.435   1.179  0.00  0.00    -0.216 NA
ATOM      7  C   LIG    1        0.724  -6.446   0.375  0.00  0.00    +0.164 A 
ATOM      8  N   LIG    1        0.054  -6.388  -0.810  0.00  0.00    -0.240 N 
ATOM      9  N   LIG    1       -0.083  -5.051  -1.202  0.00  0.00    -0.168 NA
ENDROOT
BRANCH   1  14
ATOM     10  C   LIG    1        0.750   1.481  -0.524  0.00  0.00    +0.044 C 
ATOM     11  C   LIG    1        0.680  -0.023  -0.469  0.00  0.00    -0.050 A 
ATOM     12  C   LIG    1       -0.506  -0.669  -0.768  0.00  0.00    +0.004 A 
ATOM     13  C   LIG    1       -0.577  -2.046  -0.719  0.00  0.00    +0.010 A 
ATOM     14  C   LIG    1        0.551  -2.787  -0.368  0.00  0.00    +0.003 A 
ATOM     15  C   LIG    1        1.744  -2.131  -0.068  0.00  0.00    +0.010 A 
ATOM     16  C   LIG    1        1.803  -0.753  -0.125  0.00  0.00    +0.004 A 
ENDBRANCH   1  14
BRANCH   8  17
ATOM     17  C   LIG    1       -0.448  -7.544  -1.557  0.00  0.00    +0.058 C 
ATOM     18  C   LIG    1        0.720  -8.460  -1.925  0.00  0.00    +0.036 C 
ATOM     19  C   LIG    1       -1.142  -7.064  -2.834  0.00  0.00    +0.036 C 
ATOM     20  C   LIG    1       -1.448  -8.314  -0.692  0.00  0.00    +0.036 C 
ENDBRANCH   8  17
BRANCH   3  21
ATOM     21  N   LIG    1        2.039  -3.616   2.346  0.00  0.00    -0.342 N 
ATOM     22  H   LIG    1        2.709  -3.477   3.034  0.00  0.00    +0.144 HD
ATOM     23  H   LIG    1        1.592  -2.855   1.944  0.00  0.00    +0.144 HD
ENDBRANCH   3  21
TORSDOF 3
