REMARK  Name = ZINC01676633
REMARK                            x       y       z     vdW  Elec       q    Type
REMARK                         _______ _______ _______ _____ _____    ______ ____
ROOT
ATOM      1  C   LIG    1       -0.816   3.383  -0.928  0.00  0.00    +0.021 C 
ATOM      2  C   LIG    1        0.686   3.586  -0.619  0.00  0.00    +0.021 C 
ATOM      3  C   LIG    1        1.149   2.255   0.003  0.00  0.00    +0.116 C 
ATOM      4  N   LIG    1       -0.016   1.351   0.009  0.00  0.00    -0.270 N 
ATOM      5  C   LIG    1       -1.211   2.227   0.019  0.00  0.00    +0.116 C 
ENDROOT
BRANCH   4   6
ATOM      6  C   LIG    1        0.002  -0.004   0.002  0.00  0.00    +0.169 C 
ATOM      7  N   LIG    1        0.018  -1.140  -0.004  0.00  0.00    -0.174 NA
ENDBRANCH   4   6
TORSDOF 1
