REMARK  Name = ZINC01745313
REMARK                            x       y       z     vdW  Elec       q    Type
REMARK                         _______ _______ _______ _____ _____    ______ ____
ROOT
ATOM      1  C   LIG    1        5.016  -2.311  -4.896  0.00  0.00    +0.183 C 
ATOM      2  O   LIG    1        4.444  -1.241  -4.888  0.00  0.00    -0.290 OA
ENDROOT
BRANCH   1   3
ATOM      3  C   LIG    1        6.366  -2.418  -5.462  0.00  0.00    +0.020 A 
ATOM      4  C   LIG    1        7.026  -3.653  -5.478  0.00  0.00    +0.019 A 
ATOM      5  C   LIG    1        8.287  -3.747  -6.008  0.00  0.00    +0.000 A 
ATOM      6  C   LIG    1        8.911  -2.619  -6.531  0.00  0.00    +0.124 A 
ATOM      7  C   LIG    1        8.260  -1.390  -6.518  0.00  0.00    +0.000 A 
ATOM      8  C   LIG    1        6.996  -1.286  -5.995  0.00  0.00    +0.019 A 
BRANCH   5   9
ATOM      9  C   LIG    1        8.998  -5.076  -6.025  0.00  0.00    -0.009 C 
ATOM     10  C   LIG    1       10.299  -4.968  -5.227  0.00  0.00    +0.015 C 
ATOM     11  C   LIG    1        9.317  -5.465  -7.470  0.00  0.00    +0.015 C 
ATOM     12  C   LIG    1        8.101  -6.143  -5.396  0.00  0.00    +0.015 C 
ENDBRANCH   5   9
BRANCH   7  13
ATOM     13  C   LIG    1        8.942  -0.172  -7.084  0.00  0.00    -0.009 C 
ATOM     14  C   LIG    1        9.260  -0.406  -8.562  0.00  0.00    +0.015 C 
ATOM     15  C   LIG    1       10.240   0.089  -6.318  0.00  0.00    +0.015 C 
ATOM     16  C   LIG    1        8.018   1.040  -6.948  0.00  0.00    +0.015 C 
ENDBRANCH   7  13
BRANCH   6  17
ATOM     17  O   LIG    1       10.158  -2.718  -7.054  0.00  0.00    -0.506 OA
ATOM     18  H   LIG    1       10.173  -2.922  -7.999  0.00  0.00    +0.292 HD
ENDBRANCH   6  17
ENDBRANCH   1   3
BRANCH   1  19
ATOM     19  C   LIG    1        4.340  -3.530  -4.323  0.00  0.00    +0.204 C 
BRANCH  19  27
ATOM     20  N   LIG    1        1.425  -2.500  -2.470  0.00  0.00    -0.313 N 
ATOM     21  C   LIG    1        0.825  -2.757  -3.663  0.00  0.00    +0.068 A 
ATOM     22  C   LIG    1       -0.496  -2.675  -4.110  0.00  0.00    +0.028 A 
ATOM     23  C   LIG    1       -0.800  -3.014  -5.410  0.00  0.00    +0.002 A 
ATOM     24  C   LIG    1        0.196  -3.436  -6.278  0.00  0.00    +0.002 A 
ATOM     25  C   LIG    1        1.505  -3.523  -5.852  0.00  0.00    +0.028 A 
ATOM     26  C   LIG    1        1.829  -3.186  -4.546  0.00  0.00    +0.069 A 
ATOM     27  N   LIG    1        3.012  -3.164  -3.825  0.00  0.00    -0.306 N 
ATOM     28  C   LIG    1        2.710  -2.733  -2.565  0.00  0.00    +0.175 A 
BRANCH  28  29
ATOM     29  N   LIG    1        3.622  -2.571  -1.544  0.00  0.00    -0.330 N 
ATOM     30  H   LIG    1        4.560  -2.766  -1.696  0.00  0.00    +0.145 HD
ATOM     31  H   LIG    1        3.325  -2.262  -0.673  0.00  0.00    +0.145 HD
ENDBRANCH  28  29
BRANCH  20  32
ATOM     32  C   LIG    1        0.739  -2.027  -1.265  0.00  0.00    +0.125 C 
BRANCH  32  33
ATOM     33  C   LIG    1        0.718  -0.497  -1.257  0.00  0.00    +0.021 C 
BRANCH  33  35
ATOM     34  C   LIG    1       -0.019   1.526   0.010  0.00  0.00    +0.004 C 
ATOM     35  C   LIG    1        0.002  -0.004   0.002  0.00  0.00    -0.002 C 
ENDBRANCH  33  35
ENDBRANCH  32  33
ENDBRANCH  20  32
ENDBRANCH  19  27
ENDBRANCH   1  19
TORSDOF 10
