REMARK  Name = ZINC01852276
REMARK                            x       y       z     vdW  Elec       q    Type
REMARK                         _______ _______ _______ _____ _____    ______ ____
ROOT
ATOM      1  C   LIG    1        0.089  -0.378   8.443  0.00  0.00    +0.325 C 
ATOM      2  O   LIG    1        0.104  -1.584   8.371  0.00  0.00    -0.249 OA
ENDROOT
BRANCH   1   3
ATOM      3  C   LIG    1        0.066   0.451   7.185  0.00  0.00    +0.225 C 
BRANCH   3   5
ATOM      4  C   LIG    1        0.047   0.090   4.775  0.00  0.00    +0.251 C 
ATOM      5  N   LIG    1        0.066  -0.433   6.017  0.00  0.00    -0.302 N 
ATOM      6  H   LIG    1        0.080  -1.396   6.137  0.00  0.00    +0.149 HD
ATOM      7  O   LIG    1        0.030   1.294   4.625  0.00  0.00    -0.272 OA
BRANCH   4   8
ATOM      8  C   LIG    1        0.048  -0.820   3.574  0.00  0.00    +0.324 C 
BRANCH   8   9
ATOM      9  O   LIG    1        0.025  -0.033   2.381  0.00  0.00    -0.483 OA
BRANCH   9  16
ATOM     10  C   LIG    1       -0.018   1.503   0.010  0.00  0.00    +0.047 C 
ATOM     11  C   LIG    1        0.002  -0.004   0.002  0.00  0.00    -0.009 A 
ATOM     12  C   LIG    1        0.006  -0.689  -1.198  0.00  0.00    +0.007 A 
ATOM     13  C   LIG    1        0.024  -2.071  -1.206  0.00  0.00    +0.000 A 
ATOM     14  C   LIG    1        0.039  -2.772  -0.014  0.00  0.00    +0.004 A 
ATOM     15  C   LIG    1        0.036  -2.092   1.188  0.00  0.00    +0.046 A 
ATOM     16  C   LIG    1        0.023  -0.705   1.199  0.00  0.00    +0.124 A 
ENDBRANCH   9  16
ENDBRANCH   8   9
ENDBRANCH   4   8
ENDBRANCH   3   5
ENDBRANCH   1   3
BRANCH   1  17
ATOM     17  O   LIG    1        0.092   0.223   9.643  0.00  0.00    -0.455 OA
BRANCH  17  18
ATOM     18  C   LIG    1        0.115  -0.625  10.793  0.00  0.00    +0.311 C 
BRANCH  18  19
ATOM     19  C   LIG    1        0.116   0.221  12.040  0.00  0.00    +0.200 C 
ATOM     20  O   LIG    1        0.099   1.430  11.953  0.00  0.00    -0.288 OA
BRANCH  19  21
ATOM     21  C   LIG    1        0.137  -0.421  13.364  0.00  0.00    +0.021 A 
ATOM     22  C   LIG    1        0.162  -1.826  13.460  0.00  0.00    +0.012 A 
ATOM     23  C   LIG    1        0.182  -2.440  14.669  0.00  0.00    +0.009 A 
ATOM     24  C   LIG    1        0.178  -1.673  15.849  0.00  0.00    -0.018 A 
ATOM     25  C   LIG    1        0.198  -2.287  17.112  0.00  0.00    +0.008 A 
ATOM     26  C   LIG    1        0.193  -1.520  18.237  0.00  0.00    +0.001 A 
ATOM     27  C   LIG    1        0.168  -0.129  18.157  0.00  0.00    +0.001 A 
ATOM     28  C   LIG    1        0.147   0.503  16.952  0.00  0.00    +0.008 A 
ATOM     29  C   LIG    1        0.152  -0.257  15.768  0.00  0.00    -0.017 A 
ATOM     30  C   LIG    1        0.138   0.362  14.510  0.00  0.00    +0.020 A 
ENDBRANCH  19  21
ENDBRANCH  18  19
ENDBRANCH  17  18
ENDBRANCH   1  17
TORSDOF 9
