REMARK  Name = ZINC01745892
REMARK                            x       y       z     vdW  Elec       q    Type
REMARK                         _______ _______ _______ _____ _____    ______ ____
ROOT
ATOM      1  C   LIG    1        1.155   1.776   0.001  0.00  0.00    +0.001 A 
ATOM      2  C   LIG    1        1.155   3.170   0.007  0.00  0.00    +0.001 A 
ATOM      3  C   LIG    1       -0.011   3.871   0.021  0.00  0.00    +0.009 A 
ATOM      4  C   LIG    1       -1.236   3.183   0.030  0.00  0.00    -0.017 A 
ATOM      5  C   LIG    1       -1.237   1.766   0.018  0.00  0.00    -0.018 A 
ATOM      6  C   LIG    1       -2.462   1.078   0.032  0.00  0.00    +0.008 A 
ATOM      7  C   LIG    1       -3.628   1.779   0.047  0.00  0.00    +0.001 A 
ATOM      8  C   LIG    1       -3.627   3.173   0.053  0.00  0.00    +0.002 A 
ATOM      9  C   LIG    1       -2.460   3.873   0.045  0.00  0.00    -0.057 A 
ATOM     10  C   LIG    1       -0.013   1.076   0.008  0.00  0.00    +0.008 A 
ENDROOT
BRANCH   9  11
ATOM     11  C   LIG    1       -2.480   5.380   0.052  0.00  0.00    -0.050 C 
BRANCH  11  12
ATOM     12  N   LIG    1       -2.236   5.870  -1.316  0.00  0.00    +0.381 N 
ATOM     13  H   LIG    1       -1.308   5.559  -1.625  0.00  0.00    -0.090 HD
ATOM     14  H   LIG    1       -2.269   6.888  -1.333  0.00  0.00    -0.090 HD
ATOM     15  H   LIG    1       -2.940   5.497  -1.951  0.00  0.00    -0.090 HD
ENDBRANCH  11  12
ENDBRANCH   9  11
TORSDOF 2
