REMARK  Name = ZINC01999162
REMARK                            x       y       z     vdW  Elec       q    Type
REMARK                         _______ _______ _______ _____ _____    ______ ____
ROOT
ATOM      1  C   LIG    1       -0.675   1.848   2.650  0.00  0.00    -0.024 A 
ATOM      2  C   LIG    1       -1.073   0.875   3.485  0.00  0.00    +0.087 A 
ATOM      3  N   LIG    1       -0.392   0.969   4.668  0.00  0.00    -0.360 N 
ATOM      4  C   LIG    1        0.476   2.036   4.626  0.00  0.00    +0.047 A 
ATOM      5  C   LIG    1        1.381   2.572   5.537  0.00  0.00    +0.026 A 
ATOM      6  C   LIG    1        2.127   3.677   5.190  0.00  0.00    +0.002 A 
ATOM      7  C   LIG    1        1.987   4.263   3.940  0.00  0.00    +0.001 A 
ATOM      8  C   LIG    1        1.104   3.753   3.030  0.00  0.00    +0.010 A 
ATOM      9  H   LIG    1       -0.508   0.374   5.426  0.00  0.00    +0.165 HD
ATOM     10  C   LIG    1        0.337   2.634   3.360  0.00  0.00    +0.003 A 
ENDROOT
BRANCH   1  11
ATOM     11  C   LIG    1       -1.179   2.090   1.250  0.00  0.00    +0.019 C 
BRANCH  11  12
ATOM     12  C   LIG    1       -0.242   1.413   0.247  0.00  0.00    -0.074 C 
BRANCH  12  13
ATOM     13  N   LIG    1       -0.738   1.677  -1.120  0.00  0.00    +0.380 N 
ATOM     14  H   LIG    1       -0.884   2.687  -1.233  0.00  0.00    -0.082 HD
BRANCH  13  16
ATOM     15  C   LIG    1        1.387   2.251  -2.183  0.00  0.00    -0.017 C 
ATOM     16  C   LIG    1        0.257   1.222  -2.114  0.00  0.00    -0.082 C 
ENDBRANCH  13  16
BRANCH  13  17
ATOM     17  C   LIG    1       -2.022   0.979  -1.335  0.00  0.00    -0.082 C 
ATOM     18  C   LIG    1       -2.690   1.553  -2.587  0.00  0.00    -0.017 C 
ENDBRANCH  13  17
ENDBRANCH  12  13
ENDBRANCH  11  12
ENDBRANCH   1  11
TORSDOF 5
