REMARK  Name = ZINC02339257
REMARK                            x       y       z     vdW  Elec       q    Type
REMARK                         _______ _______ _______ _____ _____    ______ ____
ROOT
ATOM      1  N   LIG    1        8.442   2.093  -1.263  0.00  0.00    -0.271 N 
ATOM      2  C   LIG    1        8.089   2.820  -0.040  0.00  0.00    +0.190 C 
ATOM      3  N   LIG    1        8.502   2.045   1.132  0.00  0.00    -0.289 N 
ATOM      4  H   LIG    1        8.761   2.504   1.946  0.00  0.00    +0.151 HD
ATOM      5  C   LIG    1        8.527   0.699   1.091  0.00  0.00    +0.258 C 
ATOM      6  C   LIG    1        8.186   0.006  -0.153  0.00  0.00    +0.141 C 
ATOM      7  O   LIG    1        8.832   0.061   2.083  0.00  0.00    -0.269 OA
ATOM      8  C   LIG    1        8.156   0.752  -1.343  0.00  0.00    +0.089 C 
ENDROOT
BRANCH   1  12
ATOM      9  C   LIG    1       10.281   4.060  -4.441  0.00  0.00    +0.000 A 
ATOM     10  C   LIG    1       10.975   3.097  -3.731  0.00  0.00    +0.002 A 
ATOM     11  C   LIG    1       10.368   2.443  -2.677  0.00  0.00    +0.023 A 
ATOM     12  C   LIG    1        9.059   2.753  -2.330  0.00  0.00    +0.036 A 
ATOM     13  C   LIG    1        8.364   3.717  -3.049  0.00  0.00    +0.023 A 
ATOM     14  C   LIG    1        8.978   4.371  -4.098  0.00  0.00    +0.002 A 
ENDBRANCH   1  12
BRANCH   2  15
ATOM     15  C   LIG    1        6.598   3.035   0.003  0.00  0.00    +0.019 C 
ATOM     16  C   LIG    1        6.105   4.271   0.041  0.00  0.00    +0.045 C 
BRANCH  16  17
ATOM     17  C   LIG    1        4.651   4.481   0.083  0.00  0.00    +0.128 A 
ATOM     18  C   LIG    1        4.019   5.690   0.124  0.00  0.00    +0.050 A 
ATOM     19  C   LIG    1        2.641   5.430   0.153  0.00  0.00    +0.050 A 
ATOM     20  C   LIG    1        2.491   4.076   0.128  0.00  0.00    +0.136 A 
ATOM     21  O   LIG    1        3.714   3.512   0.092  0.00  0.00    -0.455 OA
BRANCH  20  22
ATOM     22  C   LIG    1        1.206   3.349   0.145  0.00  0.00    +0.017 A 
ATOM     23  C   LIG    1        1.189   1.953   0.117  0.00  0.00    +0.013 A 
ATOM     24  C   LIG    1       -0.015   1.280   0.133  0.00  0.00    +0.021 A 
ATOM     25  C   LIG    1       -1.206   1.987   0.173  0.00  0.00    +0.041 A 
ATOM     26 CL   LIG    1       -2.717   1.133   0.187  0.00  0.00    -0.084 Cl
ATOM     27  C   LIG    1       -1.196   3.371   0.207  0.00  0.00    +0.021 A 
ATOM     28  C   LIG    1        0.001   4.056   0.191  0.00  0.00    +0.013 A 
ENDBRANCH  20  22
ENDBRANCH  16  17
ENDBRANCH   2  15
BRANCH   6  29
ATOM     29  C   LIG    1        7.890  -1.395  -0.158  0.00  0.00    +0.107 C 
ATOM     30  N   LIG    1        7.655  -2.507  -0.161  0.00  0.00    -0.191 NA
ENDBRANCH   6  29
BRANCH   8  31
ATOM     31  S   LIG    1        7.765  -0.006  -2.885  0.00  0.00    -0.126 S 
ATOM     32  H   LIG    1        7.559  -1.334  -2.459  0.00  0.00    +0.108 HD
ENDBRANCH   8  31
TORSDOF 6
