REMARK  Name = ZINC02154611
REMARK                            x       y       z     vdW  Elec       q    Type
REMARK                         _______ _______ _______ _____ _____    ______ ____
ROOT
ATOM      1  C   LIG    1       -0.070   5.347   0.031  0.00  0.00    +0.089 C 
ENDROOT
BRANCH   1   2
ATOM      2  C   LIG    1       -0.050   3.840   0.022  0.00  0.00    -0.032 A 
ATOM      3  C   LIG    1       -1.238   3.133   0.029  0.00  0.00    +0.005 A 
ATOM      4  C   LIG    1       -1.219   1.751   0.017  0.00  0.00    +0.003 A 
ATOM      5  C   LIG    1       -0.013   1.076   0.008  0.00  0.00    +0.032 A 
ATOM      6  C   LIG    1        1.175   1.783   0.000  0.00  0.00    +0.122 A 
ATOM      7  C   LIG    1        1.156   3.166   0.008  0.00  0.00    +0.037 A 
BRANCH   6   8
ATOM      8  N   LIG    1        2.467   1.060  -0.015  0.00  0.00    +0.006 N 
ATOM      9  O   LIG    1        2.483  -0.157  -0.022  0.00  0.00    -0.130 OA
BRANCH   8  10
ATOM     10  O   LIG    1        3.513   1.684  -0.022  0.00  0.00    -0.396 OA
ATOM     11  H   LIG    1        3.500   2.621  -0.017  0.00  0.00    +0.329 HD
ENDBRANCH   8  10
ENDBRANCH   6   8
ENDBRANCH   1   2
BRANCH   1  12
ATOM     12  C   LIG    1       -0.788   5.840   1.289  0.00  0.00    +0.099 C 
BRANCH  12  13
ATOM     13  C   LIG    1       -0.701   7.343   1.360  0.00  0.00    +0.165 C 
ATOM     14  O   LIG    1       -0.123   7.959   0.490  0.00  0.00    -0.292 OA
BRANCH  13  18
ATOM     15  C   LIG    1       -2.481   9.420   4.602  0.00  0.00    -0.047 A 
ATOM     16  C   LIG    1       -1.821  10.126   3.611  0.00  0.00    +0.004 A 
ATOM     17  C   LIG    1       -1.240   9.458   2.554  0.00  0.00    +0.011 A 
ATOM     18  C   LIG    1       -1.318   8.064   2.485  0.00  0.00    +0.017 A 
ATOM     19  C   LIG    1       -1.991   7.357   3.487  0.00  0.00    +0.011 A 
ATOM     20  C   LIG    1       -2.562   8.039   4.541  0.00  0.00    +0.004 A 
BRANCH  15  21
ATOM     21  C   LIG    1       -3.113  10.157   5.754  0.00  0.00    +0.038 C 
BRANCH  21  23
ATOM     22  C   LIG    1       -5.376   9.229   5.244  0.00  0.00    +0.007 C 
ATOM     23  C   LIG    1       -4.559  10.513   5.400  0.00  0.00    -0.013 C 
ATOM     24  C   LIG    1       -5.161  11.369   6.516  0.00  0.00    +0.007 C 
ENDBRANCH  21  23
ENDBRANCH  15  21
ENDBRANCH  13  18
ENDBRANCH  12  13
ENDBRANCH   1  12
BRANCH   1  25
ATOM     25  S   LIG    1       -0.947   5.948  -1.440  0.00  0.00    -0.115 S 
BRANCH  25  26
ATOM     26  C   LIG    1        0.069   5.430  -2.783  0.00  0.00    +0.029 A 
ATOM     27  C   LIG    1        1.240   4.728  -2.539  0.00  0.00    +0.016 A 
ATOM     28  C   LIG    1        2.036   4.322  -3.594  0.00  0.00    +0.001 A 
ATOM     29  C   LIG    1        1.667   4.614  -4.895  0.00  0.00    +0.002 A 
ATOM     30  C   LIG    1        0.501   5.313  -5.147  0.00  0.00    +0.024 A 
ATOM     31  C   LIG    1       -0.305   5.720  -4.095  0.00  0.00    +0.038 A 
BRANCH  31  32
ATOM     32  N   LIG    1       -1.488   6.424  -4.349  0.00  0.00    -0.357 N 
ATOM     33  H   LIG    1       -1.747   6.625  -5.262  0.00  0.00    +0.142 HD
ATOM     34  H   LIG    1       -2.049   6.710  -3.612  0.00  0.00    +0.142 HD
ENDBRANCH  31  32
ENDBRANCH  25  26
ENDBRANCH   1  25
TORSDOF 11
