REMARK  Name = ZINC01849532
REMARK                            x       y       z     vdW  Elec       q    Type
REMARK                         _______ _______ _______ _____ _____    ______ ____
ROOT
ATOM      1  C   LIG    1       -3.551   1.729   0.856  0.00  0.00    +0.009 C 
ATOM      2  C   LIG    1       -4.894   1.016   1.029  0.00  0.00    +0.005 C 
ATOM      3  C   LIG    1       -5.575   0.874  -0.333  0.00  0.00    +0.000 C 
ATOM      4  C   LIG    1       -4.681   0.057  -1.268  0.00  0.00    +0.003 C 
ATOM      5  C   LIG    1       -3.339   0.770  -1.442  0.00  0.00    +0.040 C 
ATOM      6  C   LIG    1       -2.657   0.912  -0.079  0.00  0.00    +0.092 C 
ENDROOT
BRANCH   6   7
ATOM      7  C   LIG    1       -1.335   1.615  -0.250  0.00  0.00    -0.012 A 
ATOM      8  C   LIG    1       -0.255   1.256   0.536  0.00  0.00    +0.007 A 
ATOM      9  C   LIG    1        0.958   1.903   0.385  0.00  0.00    +0.004 A 
ATOM     10  C   LIG    1        1.095   2.905  -0.555  0.00  0.00    +0.045 A 
ATOM     11  C   LIG    1        0.015   3.263  -1.349  0.00  0.00    +0.120 A 
ATOM     12  C   LIG    1       -1.201   2.613  -1.196  0.00  0.00    +0.052 A 
BRANCH  11  13
ATOM     13  O   LIG    1        0.148   4.249  -2.275  0.00  0.00    -0.495 OA
ATOM     14  C   LIG    1        1.429   4.875  -2.377  0.00  0.00    +0.277 C 
ENDBRANCH  11  13
ENDBRANCH   6   7
BRANCH   6  15
ATOM     15  O   LIG    1       -2.439  -0.383   0.482  0.00  0.00    -0.384 OA
ATOM     16  H   LIG    1       -1.879  -0.957  -0.059  0.00  0.00    +0.211 HD
ENDBRANCH   6  15
BRANCH   1  17
ATOM     17  C   LIG    1       -3.785   3.117   0.255  0.00  0.00    -0.073 C 
BRANCH  17  19
ATOM     18  C   LIG    1       -3.854   4.197   2.420  0.00  0.00    -0.097 C 
ATOM     19  N   LIG    1       -4.616   3.906   1.188  0.00  0.00    +0.376 N 
ATOM     20  H   LIG    1       -5.452   3.362   1.432  0.00  0.00    -0.083 HD
ATOM     21  C   LIG    1       -5.037   5.169   0.544  0.00  0.00    -0.097 C 
ENDBRANCH  17  19
ENDBRANCH   1  17
TORSDOF 5
