REMARK  Name = ZINC02183627
REMARK                            x       y       z     vdW  Elec       q    Type
REMARK                         _______ _______ _______ _____ _____    ______ ____
ROOT
ATOM      1  N   LIG    1        3.582   2.124  -0.021  0.00  0.00    -0.333 N 
ATOM      2  C   LIG    1        3.588   3.592  -0.118  0.00  0.00    +0.086 C 
ATOM      3  C   LIG    1        4.552   4.001  -1.236  0.00  0.00    -0.060 C 
ATOM      4  N   LIG    1        5.871   3.404  -0.987  0.00  0.00    +0.382 N 
ATOM      5  H   LIG    1        6.193   3.675  -0.070  0.00  0.00    -0.082 HD
ATOM      6  C   LIG    1        5.779   1.941  -1.060  0.00  0.00    -0.060 C 
ATOM      7  C   LIG    1        4.876   1.430   0.073  0.00  0.00    +0.086 C 
ENDROOT
BRANCH   1  10
ATOM      8  C   LIG    1        1.209  -0.683  -0.026  0.00  0.00    +0.003 A 
ATOM      9  C   LIG    1        2.398   0.021  -0.035  0.00  0.00    +0.023 A 
ATOM     10  C   LIG    1        2.382   1.410  -0.013  0.00  0.00    +0.031 A 
ATOM     11  C   LIG    1        1.169   2.087   0.017  0.00  0.00    +0.043 A 
ATOM     12  C   LIG    1       -0.017   1.377   0.025  0.00  0.00    +0.043 A 
ATOM     13 CL   LIG    1       -1.533   2.221   0.063  0.00  0.00    -0.083 Cl
ATOM     14  C   LIG    1        0.004  -0.007   0.004  0.00  0.00    +0.020 A 
ENDBRANCH   1  10
BRANCH   4  15
ATOM     15  C   LIG    1        6.822   3.885  -1.997  0.00  0.00    -0.079 C 
BRANCH  15  16
ATOM     16  C   LIG    1        8.223   3.364  -1.667  0.00  0.00    -0.017 C 
BRANCH  16  17
ATOM     17  C   LIG    1        9.214   3.865  -2.720  0.00  0.00    +0.018 C 
BRANCH  17  18
ATOM     18  C   LIG    1       10.614   3.344  -2.390  0.00  0.00    +0.118 C 
BRANCH  18  19
ATOM     19  N   LIG    1       11.564   3.823  -3.397  0.00  0.00    -0.224 N 
ATOM     20  C   LIG    1       11.859   3.163  -4.540  0.00  0.00    +0.244 C 
ATOM     21  C   LIG    1       12.954   3.968  -5.194  0.00  0.00    +0.164 C 
ATOM     22  C   LIG    1       12.597   4.385  -6.628  0.00  0.00    +0.033 C 
ATOM     23  C   LIG    1       13.057   5.859  -6.727  0.00  0.00    +0.021 C 
ATOM     24  C   LIG    1       13.605   6.199  -5.318  0.00  0.00    +0.110 C 
ATOM     25  N   LIG    1       12.938   5.234  -4.414  0.00  0.00    -0.274 N 
ATOM     26  O   LIG    1       11.352   2.142  -4.951  0.00  0.00    -0.273 OA
ATOM     27  C   LIG    1       12.246   4.976  -3.306  0.00  0.00    +0.312 C 
ATOM     28  O   LIG    1       12.235   5.697  -2.328  0.00  0.00    -0.252 OA
ENDBRANCH  18  19
ENDBRANCH  17  18
ENDBRANCH  16  17
ENDBRANCH  15  16
ENDBRANCH   4  15
TORSDOF 6
