REMARK  Name = ZINC01706201
REMARK                            x       y       z     vdW  Elec       q    Type
REMARK                         _______ _______ _______ _____ _____    ______ ____
ROOT
ATOM      1  C   LIG    1       -0.064   0.971   2.503  0.00  0.00    -0.014 C 
ATOM      2  C   LIG    1       -0.729   1.579   1.267  0.00  0.00    -0.078 C 
ENDROOT
BRANCH   2   3
ATOM      3  N   LIG    1       -0.656   3.048   1.358  0.00  0.00    +0.380 N 
ATOM      4  H   LIG    1       -1.113   3.356   2.224  0.00  0.00    -0.090 HD
ATOM      5  H   LIG    1       -1.133   3.471   0.563  0.00  0.00    -0.090 HD
ATOM      6  H   LIG    1        0.317   3.350   1.369  0.00  0.00    -0.090 HD
ENDBRANCH   2   3
BRANCH   2   7
ATOM      7  C   LIG    1       -0.013   1.086   0.008  0.00  0.00    -0.005 C 
BRANCH   7   8
ATOM      8  C   LIG    1       -0.753   1.593  -1.232  0.00  0.00    +0.119 C 
BRANCH   8   9
ATOM      9  C   LIG    1       -0.047   1.107  -2.471  0.00  0.00    +0.305 C 
ATOM     10  O   LIG    1        0.945   0.425  -2.374  0.00  0.00    -0.251 OA
BRANCH   9  11
ATOM     11  O   LIG    1       -0.522   1.431  -3.684  0.00  0.00    -0.481 OA
ATOM     12  H   LIG    1       -1.292   1.960  -3.760  0.00  0.00    +0.295 HD
ENDBRANCH   9  11
ENDBRANCH   8   9
ENDBRANCH   7   8
ENDBRANCH   2   7
TORSDOF 5
