REMARK  Name = ZINC01707645
REMARK                            x       y       z     vdW  Elec       q    Type
REMARK                         _______ _______ _______ _____ _____    ______ ____
ROOT
ATOM      1  C   LIG    1       -2.204   1.595   1.220  0.00  0.00    +0.042 C 
ENDROOT
BRANCH   1   2
ATOM      2  N   LIG    1       -2.915   2.060   2.423  0.00  0.00    +0.388 N 
ATOM      3  H   LIG    1       -3.904   1.795   2.355  0.00  0.00    -0.089 HD
ATOM      4  H   LIG    1       -2.848   3.074   2.499  0.00  0.00    -0.089 HD
ATOM      5  H   LIG    1       -2.512   1.631   3.255  0.00  0.00    -0.089 HD
ENDBRANCH   1   2
BRANCH   1   6
ATOM      6  P   LIG    1       -2.996   2.319  -0.254  0.00  0.00    +0.314 P 
ATOM      7  O   LIG    1       -2.806   3.787  -0.245  0.00  0.00    -0.261 OA
BRANCH   6   8
ATOM      8  O   LIG    1       -4.571   1.982  -0.237  0.00  0.00    -0.325 OA
ATOM      9  H   LIG    1       -4.973   2.355   0.563  0.00  0.00    +0.220 HD
ENDBRANCH   6   8
BRANCH   6  10
ATOM     10  O   LIG    1       -2.329   1.699  -1.581  0.00  0.00    -0.325 OA
ATOM     11  H   LIG    1       -1.381   1.902  -1.591  0.00  0.00    +0.220 HD
ENDBRANCH   6  10
ENDBRANCH   1   6
BRANCH   1  12
ATOM     12  C   LIG    1       -0.735   2.019   1.269  0.00  0.00    -0.001 C 
BRANCH  12  14
ATOM     13  C   LIG    1        0.002  -0.004   0.002  0.00  0.00    +0.007 C 
ATOM     14  C   LIG    1       -0.019   1.526   0.010  0.00  0.00    -0.018 C 
ATOM     15  C   LIG    1        1.417   2.055  -0.000  0.00  0.00    +0.007 C 
ENDBRANCH  12  14
ENDBRANCH   1  12
TORSDOF 6
