REMARK  Name = ZINC02161671
REMARK                            x       y       z     vdW  Elec       q    Type
REMARK                         _______ _______ _______ _____ _____    ______ ____
ROOT
ATOM      1  C   LIG    1        3.150   7.412  -0.292  0.00  0.00    +0.056 A 
ATOM      2  C   LIG    1        1.877   7.876  -0.259  0.00  0.00    +0.072 A 
ATOM      3  S   LIG    1        0.968   6.345  -0.111  0.00  0.00    -0.060 S 
ATOM      4  C   LIG    1        2.334   5.272  -0.097  0.00  0.00    +0.163 A 
ATOM      5  N   LIG    1        3.347   6.110  -0.209  0.00  0.00    -0.229 NA
ENDROOT
BRANCH   1   7
ATOM      6  C   LIG    1        4.542   9.070   0.916  0.00  0.00    +0.017 C 
ATOM      7  C   LIG    1        4.313   8.361  -0.420  0.00  0.00    +0.005 C 
ATOM      8  C   LIG    1        4.008   9.398  -1.502  0.00  0.00    +0.017 C 
ATOM      9  C   LIG    1        5.570   7.577  -0.803  0.00  0.00    +0.017 C 
ENDBRANCH   1   7
BRANCH   4  10
ATOM     10  N   LIG    1        2.354   3.888   0.001  0.00  0.00    -0.294 N 
ATOM     11  H   LIG    1        3.190   3.407  -0.099  0.00  0.00    +0.154 HD
BRANCH  10  12
ATOM     12  C   LIG    1        1.169   3.188   0.242  0.00  0.00    +0.033 A 
ATOM     13  C   LIG    1        0.982   1.926  -0.309  0.00  0.00    +0.023 A 
ATOM     14  C   LIG    1       -0.190   1.236  -0.068  0.00  0.00    +0.002 A 
ATOM     15  C   LIG    1       -1.179   1.802   0.716  0.00  0.00    +0.000 A 
ATOM     16  C   LIG    1       -0.994   3.055   1.270  0.00  0.00    +0.002 A 
ATOM     17  C   LIG    1        0.176   3.751   1.033  0.00  0.00    +0.023 A 
ENDBRANCH  10  12
ENDBRANCH   4  10
TORSDOF 3
