REMARK  Name = ZINC01891205
REMARK                            x       y       z     vdW  Elec       q    Type
REMARK                         _______ _______ _______ _____ _____    ______ ____
ROOT
ATOM      1  C   UNK A  0        6.825  -1.475   1.536  0.00  0.00    +0.166 C 
ENDROOT
BRANCH   1   3
ATOM      2  C   UNK A  0        5.175  -1.690   3.316  0.00  0.00    +0.247 C 
ATOM      3  N   UNK A  0        5.848  -2.258   2.296  0.00  0.00    -0.289 N 
ATOM      4  C   UNK A  0        5.602  -3.660   1.947  0.00  0.00    +0.133 C 
ATOM      5  O   UNK A  0        5.264  -0.493   3.511  0.00  0.00    -0.270 OA
BRANCH   2  12
ATOM      6  C   UNK A  0        2.733  -5.953   4.190  0.00  0.00    +0.044 C 
ATOM      7  C   UNK A  0        3.152  -4.572   4.623  0.00  0.00    -0.049 A 
ATOM      8  C   UNK A  0        2.744  -4.080   5.850  0.00  0.00    +0.006 A 
ATOM      9  C   UNK A  0        3.123  -2.812   6.255  0.00  0.00    -0.049 A 
ATOM     10  C   UNK A  0        2.674  -2.285   7.593  0.00  0.00    +0.044 C 
ATOM     11  C   UNK A  0        3.913  -2.031   5.437  0.00  0.00    +0.016 A 
ATOM     12  C   UNK A  0        4.329  -2.522   4.198  0.00  0.00    +0.037 A 
ATOM     13  C   UNK A  0        3.937  -3.799   3.793  0.00  0.00    +0.016 A 
ENDBRANCH   2  12
ENDBRANCH   1   3
BRANCH   1  14
ATOM     14  C   UNK A  0        8.203  -2.049   1.747  0.00  0.00    +0.235 C 
ATOM     15  N   TRP A  1        9.292  -1.295   1.498  0.00  0.00    -0.301 N 
ATOM     16  H   TRP A  1        9.189  -0.384   1.184  0.00  0.00    +0.150 HD
ATOM     17  O   UNK A  0        8.331  -3.189   2.141  0.00  0.00    -0.274 OA
BRANCH  15  18
ATOM     18  CA  TRP A  1       10.631  -1.853   1.703  0.00  0.00    +0.186 C 
BRANCH  18  19
ATOM     19  C   TRP A  1       11.027  -1.691   3.148  0.00  0.00    +0.326 C 
ATOM     20  O   TRP A  1       10.268  -1.164   3.927  0.00  0.00    -0.249 OA
BRANCH  19  21
ATOM     21  OXT TRP A  1       12.222  -2.133   3.570  0.00  0.00    -0.479 OA
ATOM     22  HXT TRP A  1       12.810  -2.542   2.966  0.00  0.00    +0.295 HD
ENDBRANCH  19  21
ENDBRANCH  18  19
BRANCH  18  23
ATOM     23  CB  TRP A  1       11.633  -1.115   0.814  0.00  0.00    +0.071 C 
BRANCH  23  24
ATOM     24  CG  TRP A  1       11.309  -1.377  -0.634  0.00  0.00    -0.020 A 
ATOM     25  CD1 TRP A  1       11.854  -2.323  -1.415  0.00  0.00    +0.087 A 
ATOM     26  NE1 TRP A  1       11.312  -2.261  -2.671  0.00  0.00    -0.360 N 
ATOM     27  CE2 TRP A  1       10.382  -1.248  -2.729  0.00  0.00    +0.047 A 
ATOM     28  CZ2 TRP A  1        9.556  -0.763  -3.738  0.00  0.00    +0.026 A 
ATOM     29  CH2 TRP A  1        8.708   0.292  -3.480  0.00  0.00    +0.002 A 
ATOM     30  CZ3 TRP A  1        8.670   0.879  -2.223  0.00  0.00    +0.001 A 
ATOM     31  CE3 TRP A  1        9.472   0.418  -1.217  0.00  0.00    +0.010 A 
ATOM     32  HE1 TRP A  1       11.549  -2.844  -3.409  0.00  0.00    +0.165 HD
ATOM     33  CD2 TRP A  1       10.334  -0.654  -1.454  0.00  0.00    +0.003 A 
ENDBRANCH  23  24
ENDBRANCH  18  23
ENDBRANCH  15  18
ENDBRANCH   1  14
BRANCH   1  34
ATOM     34  C   UNK A  0        6.473  -1.526   0.048  0.00  0.00    +0.067 C 
BRANCH  34  35
ATOM     35  C   UNK A  0        5.150  -0.842  -0.179  0.00  0.00    -0.045 A 
ATOM     36  C   UNK A  0        5.113   0.514  -0.453  0.00  0.00    +0.004 A 
ATOM     37  C   UNK A  0        3.904   1.145  -0.663  0.00  0.00    +0.009 A 
ATOM     38  C   UNK A  0        2.719   0.415  -0.597  0.00  0.00    -0.018 A 
ATOM     39  C   UNK A  0        2.762  -0.949  -0.315  0.00  0.00    +0.009 A 
ATOM     40  C   UNK A  0        3.977  -1.571  -0.114  0.00  0.00    +0.004 A 
BRANCH  38  41
ATOM     41  C   UNK A  0        1.416   1.089  -0.821  0.00  0.00    -0.018 A 
ATOM     42  C   UNK A  0        0.231   0.359  -0.756  0.00  0.00    +0.008 A 
ATOM     43  C   UNK A  0       -0.978   0.990  -0.969  0.00  0.00    +0.001 A 
ATOM     44  C   UNK A  0       -1.015   2.346  -1.238  0.00  0.00    +0.000 A 
ATOM     45  C   UNK A  0        0.159   3.076  -1.304  0.00  0.00    +0.001 A 
ATOM     46  C   UNK A  0        1.373   2.454  -1.097  0.00  0.00    +0.008 A 
ENDBRANCH  38  41
ENDBRANCH  34  35
ENDBRANCH   1  34
TORSDOF 11
