REMARK  Name = ZINC02032568
REMARK                            x       y       z     vdW  Elec       q    Type
REMARK                         _______ _______ _______ _____ _____    ______ ____
ROOT
ATOM      1  C   LIG    1       -1.219   1.750   0.017  0.00  0.00    +0.001 A 
ATOM      2  C   LIG    1       -1.238   3.133   0.030  0.00  0.00    +0.006 A 
ATOM      3  C   LIG    1       -0.050   3.840   0.023  0.00  0.00    -0.020 A 
ATOM      4  C   LIG    1        1.157   3.165   0.008  0.00  0.00    +0.018 A 
ATOM      5  C   LIG    1        1.175   1.783   0.000  0.00  0.00    +0.055 A 
ATOM      6  C   LIG    1       -0.013   1.076   0.008  0.00  0.00    +0.012 A 
ENDROOT
BRANCH   5   7
ATOM      7  C   LIG    1        2.490   1.048  -0.016  0.00  0.00    +0.417 C 
ATOM      8  F   LIG    1        3.230   1.389   1.121  0.00  0.00    -0.166 F 
ATOM      9  F   LIG    1        3.208   1.402  -1.163  0.00  0.00    -0.166 F 
ATOM     10  F   LIG    1        2.253  -0.331  -0.021  0.00  0.00    -0.166 F 
ENDBRANCH   5   7
BRANCH   3  11
ATOM     11  C   LIG    1       -0.070   5.347   0.032  0.00  0.00    +0.127 C 
BRANCH  11  12
ATOM     12  O   LIG    1       -1.101   5.804   0.910  0.00  0.00    -0.389 OA
ATOM     13  H   LIG    1       -1.988   5.508   0.663  0.00  0.00    +0.210 HD
ENDBRANCH  11  12
BRANCH  11  14
ATOM     14  C   LIG    1       -0.341   5.862  -1.383  0.00  0.00    -0.050 C 
BRANCH  14  15
ATOM     15  N   LIG    1       -0.218   7.330  -1.392  0.00  0.00    +0.380 N 
ATOM     16  H   LIG    1        0.739   7.590  -1.129  0.00  0.00    -0.090 HD
ATOM     17  H   LIG    1       -0.869   7.739  -0.723  0.00  0.00    -0.090 HD
ATOM     18  H   LIG    1       -0.418   7.692  -2.323  0.00  0.00    -0.090 HD
ENDBRANCH  14  15
ENDBRANCH  11  14
ENDBRANCH   3  11
TORSDOF 5
