REMARK  Name = ZINC01721177
REMARK                            x       y       z     vdW  Elec       q    Type
REMARK                         _______ _______ _______ _____ _____    ______ ____
ROOT
ATOM      1  C   LIG    1        1.640  -4.070   2.644  0.00  0.00    -0.040 A 
ATOM      2  C   LIG    1        0.615  -4.777   3.244  0.00  0.00    +0.049 A 
ATOM      3  C   LIG    1        0.520  -6.148   3.058  0.00  0.00    +0.124 A 
ATOM      4  C   LIG    1        1.451  -6.811   2.270  0.00  0.00    +0.039 A 
ATOM      5  C   LIG    1        2.476  -6.101   1.665  0.00  0.00    +0.128 A 
ATOM      6  O   LIG    1        3.398  -6.710   0.875  0.00  0.00    -0.486 OA
ATOM      7  C   LIG    1        3.497  -8.134   0.908  0.00  0.00    +0.109 C 
ATOM      8  C   LIG    1        4.344  -8.623  -0.269  0.00  0.00    +0.055 C 
ATOM      9  C   LIG    1        4.132  -8.581   2.226  0.00  0.00    +0.055 C 
ATOM     10  C   LIG    1        2.067  -8.706   0.796  0.00  0.00    +0.044 C 
ATOM     11  C   LIG    1        1.403  -8.026  -0.407  0.00  0.00    +0.035 C 
ATOM     12  C   LIG    1       -0.094  -8.141  -0.327  0.00  0.00    -0.027 C 
ATOM     13  C   LIG    1       -0.752  -8.462   0.739  0.00  0.00    -0.076 C 
ATOM     14  C   LIG    1       -2.255  -8.534   0.652  0.00  0.00    +0.039 C 
ATOM     15  C   LIG    1       -0.104  -8.766   2.056  0.00  0.00    +0.039 C 
ATOM     16  C   LIG    1        1.340  -8.297   2.082  0.00  0.00    +0.037 C 
ATOM     17  C   LIG    1        2.562  -4.726   1.854  0.00  0.00    +0.049 A 
ENDROOT
BRANCH   3  18
ATOM     18  O   LIG    1       -0.486  -6.844   3.649  0.00  0.00    -0.506 OA
ATOM     19  H   LIG    1       -0.299  -7.109   4.560  0.00  0.00    +0.292 HD
ENDBRANCH   3  18
BRANCH   1  20
ATOM     20  C   LIG    1        1.746  -2.581   2.847  0.00  0.00    +0.035 C 
BRANCH  20  21
ATOM     21  C   LIG    1        0.947  -1.860   1.759  0.00  0.00    +0.005 C 
BRANCH  21  22
ATOM     22  C   LIG    1        1.054  -0.347   1.966  0.00  0.00    +0.000 C 
BRANCH  22  24
ATOM     23  C   LIG    1        0.363   1.886   1.084  0.00  0.00    +0.004 C 
ATOM     24  C   LIG    1        0.256   0.374   0.878  0.00  0.00    -0.003 C 
ENDBRANCH  22  24
ENDBRANCH  21  22
ENDBRANCH  20  21
ENDBRANCH   1  20
TORSDOF 5
