REMARK  Name = ZINC02184757
REMARK                            x       y       z     vdW  Elec       q    Type
REMARK                         _______ _______ _______ _____ _____    ______ ____
ROOT
ATOM      1  S   LIG    1        4.753  -3.080  -6.468  0.00  0.00    +0.073 S 
ATOM      2  O   LIG    1        4.992  -3.702  -7.723  0.00  0.00    -0.150 OA
ATOM      3  O   LIG    1        5.736  -3.030  -5.443  0.00  0.00    -0.150 OA
ENDROOT
BRANCH   1   4
ATOM      4  C   LIG    1        4.299  -1.412  -6.811  0.00  0.00    +0.116 A 
ATOM      5  C   LIG    1        4.906  -0.373  -6.159  0.00  0.00    +0.031 A 
ATOM      6  C   LIG    1        4.588   0.965  -6.389  0.00  0.00    +0.028 A 
ATOM      7  C   LIG    1        3.616   1.294  -7.316  0.00  0.00    +0.051 A 
ATOM      8  C   LIG    1        3.009   0.228  -7.972  0.00  0.00    +0.020 A 
ATOM      9  C   LIG    1        2.048   0.692  -8.883  0.00  0.00    +0.049 A 
ATOM     10  C   LIG    1        2.098   2.152  -8.747  0.00  0.00    +0.257 A 
ATOM     11  O   LIG    1        1.417   2.952  -9.362  0.00  0.00    -0.267 OA
ATOM     12  C   LIG    1        1.375  -0.267  -9.619  0.00  0.00    +0.014 A 
ATOM     13  C   LIG    1        1.661  -1.617  -9.421  0.00  0.00    +0.001 A 
ATOM     14  C   LIG    1        2.598  -2.061  -8.526  0.00  0.00    +0.010 A 
ATOM     15  N   LIG    1        3.037   2.455  -7.812  0.00  0.00    -0.322 N 
ATOM     16  H   LIG    1        3.270   3.354  -7.532  0.00  0.00    +0.169 HD
ATOM     17  C   LIG    1        3.311  -1.119  -7.766  0.00  0.00    +0.011 A 
ENDBRANCH   1   4
BRANCH   1  18
ATOM     18  N   LIG    1        3.426  -3.824  -5.816  0.00  0.00    -0.216 N 
ATOM     19  H   LIG    1        3.025  -4.584  -6.266  0.00  0.00    +0.174 HD
BRANCH  18  23
ATOM     20  C   LIG    1        1.807  -2.435  -2.240  0.00  0.00    -0.047 A 
ATOM     21  C   LIG    1        0.977  -2.720  -3.308  0.00  0.00    +0.005 A 
ATOM     22  C   LIG    1        1.510  -3.181  -4.495  0.00  0.00    +0.025 A 
ATOM     23  C   LIG    1        2.883  -3.358  -4.616  0.00  0.00    +0.048 A 
ATOM     24  C   LIG    1        3.714  -3.070  -3.541  0.00  0.00    +0.025 A 
ATOM     25  C   LIG    1        3.175  -2.604  -2.358  0.00  0.00    +0.005 A 
BRANCH  20  26
ATOM     26  C   LIG    1        1.222  -1.932  -0.945  0.00  0.00    +0.035 C 
BRANCH  26  27
ATOM     27  C   LIG    1        1.151  -0.404  -0.977  0.00  0.00    +0.004 C 
BRANCH  27  29
ATOM     28  C   LIG    1        0.486   1.634   0.306  0.00  0.00    +0.004 C 
ATOM     29  C   LIG    1        0.557   0.106   0.338  0.00  0.00    -0.003 C 
ENDBRANCH  27  29
ENDBRANCH  26  27
ENDBRANCH  20  26
ENDBRANCH  18  23
ENDBRANCH   1  18
TORSDOF 6
