REMARK  Name = ZINC01713240
REMARK                            x       y       z     vdW  Elec       q    Type
REMARK                         _______ _______ _______ _____ _____    ______ ____
ROOT
ATOM      1  C   LIG    1        2.395   5.251   0.078  0.00  0.00    +0.001 A 
ATOM      2  C   LIG    1        1.197   5.958   0.083  0.00  0.00    +0.001 A 
ATOM      3  C   LIG    1       -0.000   5.303   0.078  0.00  0.00    +0.009 A 
ATOM      4  C   LIG    1       -0.025   3.906   0.069  0.00  0.00    -0.010 A 
ATOM      5  C   LIG    1        1.191   3.183   0.064  0.00  0.00    -0.017 A 
ATOM      6  C   LIG    1        1.167   1.773   0.055  0.00  0.00    +0.009 A 
ATOM      7  C   LIG    1       -0.003   1.093   0.051  0.00  0.00    +0.010 A 
ATOM      8  C   LIG    1       -1.242   1.758   0.050  0.00  0.00    -0.009 A 
ATOM      9  C   LIG    1       -2.497   1.004   0.049  0.00  0.00    -0.008 A 
ATOM     10  C   LIG    1       -2.510  -0.394   0.040  0.00  0.00    +0.009 A 
ATOM     11  C   LIG    1       -3.703  -1.058   0.036  0.00  0.00    +0.001 A 
ATOM     12  C   LIG    1       -4.907  -0.362   0.041  0.00  0.00    +0.001 A 
ATOM     13  C   LIG    1       -4.927   1.002   0.050  0.00  0.00    +0.010 A 
ATOM     14  C   LIG    1       -3.720   1.713   0.054  0.00  0.00    +0.004 A 
ATOM     15  C   LIG    1       -3.702   3.173   0.064  0.00  0.00    +0.042 A 
ATOM     16  C   LIG    1       -2.518   3.844   0.068  0.00  0.00    +0.033 A 
ATOM     17  C   LIG    1       -1.289   3.165   0.064  0.00  0.00    -0.008 A 
ATOM     18  C   LIG    1        2.405   3.888   0.068  0.00  0.00    +0.008 A 
ENDROOT
BRANCH  15  19
ATOM     19  N   LIG    1       -4.903   3.883   0.069  0.00  0.00    -0.283 N 
ATOM     20  H   LIG    1       -5.708   3.473   0.422  0.00  0.00    +0.155 HD
ATOM     21  C   LIG    1       -4.945   5.140  -0.417  0.00  0.00    +0.250 C 
ATOM     22  O   LIG    1       -3.965   5.617  -0.950  0.00  0.00    -0.273 OA
BRANCH  21  23
ATOM     23  C   LIG    1       -6.209   5.952  -0.299  0.00  0.00    +0.256 C 
ATOM     24 CL   LIG    1       -5.908   7.624  -0.902  0.00  0.00    -0.094 Cl
ATOM     25 CL   LIG    1       -6.720   6.019   1.429  0.00  0.00    -0.094 Cl
ENDBRANCH  21  23
ENDBRANCH  15  19
TORSDOF 2
