REMARK  Name = ZINC02021799
REMARK                            x       y       z     vdW  Elec       q    Type
REMARK                         _______ _______ _______ _____ _____    ______ ____
ROOT
ATOM      1  N   LIG    1        3.009  -1.663  -0.111  0.00  0.00    -0.313 N 
ATOM      2  H   LIG    1        2.529  -1.071   0.489  0.00  0.00    +0.149 HD
ATOM      3  C   LIG    1        4.332  -1.861   0.053  0.00  0.00    +0.251 C 
ATOM      4  O   LIG    1        4.934  -2.603  -0.700  0.00  0.00    -0.270 OA
ENDROOT
BRANCH   3   5
ATOM      5  C   LIG    1        5.048  -1.180   1.145  0.00  0.00    +0.121 A 
ATOM      6  C   LIG    1        5.165  -1.791   2.402  0.00  0.00    +0.136 A 
ATOM      7  C   LIG    1        5.841  -1.143   3.422  0.00  0.00    +0.048 A 
ATOM      8  C   LIG    1        6.401   0.103   3.204  0.00  0.00    +0.022 A 
ATOM      9  C   LIG    1        6.291   0.715   1.969  0.00  0.00    +0.060 A 
ATOM     10 BR   LIG    1        7.061   2.420   1.690  0.00  0.00    -0.046 Br
ATOM     11  C   LIG    1        5.623   0.081   0.933  0.00  0.00    +0.150 A 
BRANCH   6  12
ATOM     12  O   LIG    1        4.617  -3.014   2.619  0.00  0.00    -0.494 OA
ATOM     13  C   LIG    1        4.776  -3.574   3.924  0.00  0.00    +0.277 C 
ENDBRANCH   6  12
BRANCH  11  14
ATOM     14  O   LIG    1        5.522   0.681  -0.280  0.00  0.00    -0.493 OA
ATOM     15  C   LIG    1        4.388   1.524  -0.494  0.00  0.00    +0.277 C 
ENDBRANCH  11  14
ENDBRANCH   3   5
BRANCH   1  16
ATOM     16  C   LIG    1        2.296  -2.340  -1.197  0.00  0.00    +0.089 C 
BRANCH  16  22
ATOM     17  N   LIG    1        0.690  -0.478  -1.207  0.00  0.00    +0.382 N 
ATOM     18  H   LIG    1        1.606  -0.058  -1.264  0.00  0.00    -0.081 HD
ATOM     19  C   LIG    1       -0.098  -0.111  -2.403  0.00  0.00    -0.078 C 
ATOM     20  C   LIG    1        0.088  -1.300  -3.378  0.00  0.00    -0.020 C 
ATOM     21  C   LIG    1        0.095  -2.507  -2.403  0.00  0.00    -0.016 C 
ATOM     22  C   LIG    1        0.818  -1.946  -1.161  0.00  0.00    -0.051 C 
BRANCH  17  24
ATOM     23  C   LIG    1       -0.019   1.526   0.010  0.00  0.00    -0.017 C 
ATOM     24  C   LIG    1        0.002  -0.004   0.002  0.00  0.00    -0.082 C 
ENDBRANCH  17  24
ENDBRANCH  16  22
ENDBRANCH   1  16
TORSDOF 6
