REMARK  Name = ZINC02242011
REMARK                            x       y       z     vdW  Elec       q    Type
REMARK                         _______ _______ _______ _____ _____    ______ ____
ROOT
ATOM      1  C   LIG    1        0.064  -2.830   0.026  0.00  0.00    +0.206 A 
ATOM      2  N   LIG    1        0.050  -4.171  -0.025  0.00  0.00    -0.187 NA
ATOM      3  C   LIG    1       -0.579  -4.571  -1.105  0.00  0.00    +0.259 A 
ATOM      4  O   LIG    1       -0.989  -3.484  -1.780  0.00  0.00    -0.332 OA
ATOM      5  N   LIG    1       -0.565  -2.360  -1.025  0.00  0.00    -0.056 NA
ENDROOT
BRANCH   1  11
ATOM      6  C   LIG    1        0.625  -0.618   1.041  0.00  0.00    +0.131 A 
ATOM      7  C   LIG    1        1.202   0.137   2.050  0.00  0.00    +0.046 A 
ATOM      8  C   LIG    1        1.835  -0.489   3.107  0.00  0.00    +0.004 A 
ATOM      9  C   LIG    1        1.899  -1.870   3.163  0.00  0.00    +0.001 A 
ATOM     10  C   LIG    1        1.330  -2.634   2.165  0.00  0.00    +0.015 A 
ATOM     11  C   LIG    1        0.683  -2.014   1.099  0.00  0.00    +0.064 A 
BRANCH   6  13
ATOM     12  C   LIG    1       -0.017   1.425   0.010  0.00  0.00    +0.277 C 
ATOM     13  O   LIG    1        0.002  -0.004   0.002  0.00  0.00    -0.494 OA
ENDBRANCH   6  13
ENDBRANCH   1  11
BRANCH   3  14
ATOM     14  C   LIG    1       -0.800  -5.978  -1.509  0.00  0.00    +0.042 A 
ATOM     15  C   LIG    1       -0.331  -7.034  -0.721  0.00  0.00    +0.033 A 
ATOM     16  C   LIG    1       -0.559  -8.331  -1.135  0.00  0.00    +0.111 A 
ATOM     17  N   LIG    1       -1.207  -8.579  -2.257  0.00  0.00    -0.263 NA
ATOM     18  C   LIG    1       -1.665  -7.613  -3.029  0.00  0.00    +0.111 A 
ATOM     19  C   LIG    1       -1.488  -6.288  -2.687  0.00  0.00    +0.033 A 
ENDBRANCH   3  14
TORSDOF 3
