REMARK  Name = ZINC01722325
REMARK                            x       y       z     vdW  Elec       q    Type
REMARK                         _______ _______ _______ _____ _____    ______ ____
ROOT
ATOM      1  C   LIG    1        3.656   2.155  -0.089  0.00  0.00    +0.028 A 
ATOM      2  C   LIG    1        3.837   3.555  -0.019  0.00  0.00    -0.003 A 
ATOM      3  C   LIG    1        2.791   4.523   0.016  0.00  0.00    +0.009 A 
ATOM      4  C   LIG    1        3.077   5.842   0.090  0.00  0.00    +0.001 A 
ATOM      5  C   LIG    1        4.396   6.296   0.138  0.00  0.00    +0.001 A 
ATOM      6  C   LIG    1        5.437   5.434   0.113  0.00  0.00    +0.009 A 
ATOM      7  C   LIG    1        5.213   4.028   0.037  0.00  0.00    -0.003 A 
ATOM      8  C   LIG    1        6.220   3.038   0.004  0.00  0.00    +0.028 A 
ATOM      9  S   LIG    1        5.313   1.513  -0.091  0.00  0.00    -0.087 S 
ENDROOT
BRANCH   1  13
ATOM     10  C   LIG    1        0.009  -0.006  -0.270  0.00  0.00    +0.000 A 
ATOM     11  C   LIG    1        1.000  -0.400   0.613  0.00  0.00    +0.001 A 
ATOM     12  C   LIG    1        2.188   0.297   0.677  0.00  0.00    +0.009 A 
ATOM     13  C   LIG    1        2.390   1.405  -0.152  0.00  0.00    -0.011 A 
ATOM     14  C   LIG    1        1.384   1.797  -1.041  0.00  0.00    +0.009 A 
ATOM     15  C   LIG    1        0.202   1.089  -1.094  0.00  0.00    +0.001 A 
ENDBRANCH   1  13
BRANCH   8  16
ATOM     16  C   LIG    1        7.680   3.226   0.041  0.00  0.00    -0.011 A 
ATOM     17  C   LIG    1        8.288   4.174  -0.788  0.00  0.00    +0.009 A 
ATOM     18  C   LIG    1        9.655   4.348  -0.744  0.00  0.00    +0.001 A 
ATOM     19  C   LIG    1       10.427   3.579   0.110  0.00  0.00    +0.000 A 
ATOM     20  C   LIG    1        9.833   2.636   0.931  0.00  0.00    +0.001 A 
ATOM     21  C   LIG    1        8.467   2.454   0.902  0.00  0.00    +0.009 A 
ENDBRANCH   8  16
TORSDOF 2
