REMARK  Name = ZINC01760643
REMARK                            x       y       z     vdW  Elec       q    Type
REMARK                         _______ _______ _______ _____ _____    ______ ____
ROOT
ATOM      1  C   LIG    1       -0.018   1.503   0.010  0.00  0.00    +0.067 C 
ATOM      2  C   LIG    1        0.002  -0.004   0.002  0.00  0.00    +0.056 C 
ATOM      3  N   LIG    1        0.006  -0.671  -1.113  0.00  0.00    -0.286 NA
ATOM      4  C   LIG    1       -0.014  -2.124  -1.187  0.00  0.00    +0.146 C 
ATOM      5  C   LIG    1        0.752  -2.789  -0.042  0.00  0.00    +0.061 C 
ATOM      6  C   LIG    1        0.377  -2.102   1.246  0.00  0.00    -0.011 A 
ATOM      7  C   LIG    1        0.308  -2.568   2.556  0.00  0.00    +0.007 A 
ATOM      8  C   LIG    1        0.561  -3.826   3.127  0.00  0.00    +0.056 A 
ATOM      9  C   LIG    1        0.388  -3.940   4.496  0.00  0.00    +0.121 A 
ATOM     10  C   LIG    1       -0.017  -2.864   5.278  0.00  0.00    +0.047 A 
ATOM     11  C   LIG    1       -0.253  -1.617   4.739  0.00  0.00    +0.030 A 
ATOM     12  C   LIG    1       -0.092  -1.472   3.363  0.00  0.00    +0.047 A 
ATOM     13  N   LIG    1       -0.265  -0.391   2.540  0.00  0.00    -0.353 N 
ATOM     14  H   LIG    1       -0.545   0.495   2.818  0.00  0.00    +0.166 HD
ATOM     15  C   LIG    1        0.024  -0.773   1.256  0.00  0.00    +0.064 A 
ENDROOT
BRANCH   9  16
ATOM     16  O   LIG    1        0.622  -5.139   5.094  0.00  0.00    -0.495 OA
ATOM     17  C   LIG    1        0.430  -5.207   6.508  0.00  0.00    +0.277 C 
ENDBRANCH   9  16
TORSDOF 1
