REMARK  Name = ZINC02183628
REMARK                            x       y       z     vdW  Elec       q    Type
REMARK                         _______ _______ _______ _____ _____    ______ ____
ROOT
ATOM      1  C   LIG    1        6.837   3.894  -1.992  0.00  0.00    +0.084 C 
ENDROOT
BRANCH   1   5
ATOM      2  N   LIG    1        3.582   2.124  -0.021  0.00  0.00    -0.327 N 
ATOM      3  C   LIG    1        3.587   3.591  -0.118  0.00  0.00    +0.120 C 
ATOM      4  C   LIG    1        4.535   4.002  -1.249  0.00  0.00    +0.103 C 
ATOM      5  N   LIG    1        5.852   3.390  -1.026  0.00  0.00    -0.299 NA
ATOM      6  C   LIG    1        5.772   1.924  -1.072  0.00  0.00    +0.103 C 
ATOM      7  C   LIG    1        4.875   1.429   0.073  0.00  0.00    +0.120 C 
BRANCH   2  10
ATOM      8  C   LIG    1        1.209  -0.683  -0.026  0.00  0.00    +0.003 A 
ATOM      9  C   LIG    1        2.398   0.021  -0.035  0.00  0.00    +0.023 A 
ATOM     10  C   LIG    1        2.382   1.410  -0.013  0.00  0.00    +0.031 A 
ATOM     11  C   LIG    1        1.169   2.087   0.018  0.00  0.00    +0.043 A 
ATOM     12  C   LIG    1       -0.017   1.377   0.026  0.00  0.00    +0.043 A 
ATOM     13 CL   LIG    1       -1.533   2.221   0.065  0.00  0.00    -0.083 Cl
ATOM     14  C   LIG    1        0.004  -0.007   0.004  0.00  0.00    +0.020 A 
ENDBRANCH   2  10
ENDBRANCH   1   5
BRANCH   1  15
ATOM     15  C   LIG    1        8.237   3.434  -1.581  0.00  0.00    +0.017 C 
BRANCH  15  16
ATOM     16  C   LIG    1        9.263   3.959  -2.586  0.00  0.00    +0.021 C 
BRANCH  16  17
ATOM     17  C   LIG    1       10.663   3.498  -2.175  0.00  0.00    +0.118 C 
BRANCH  17  18
ATOM     18  N   LIG    1       11.645   4.002  -3.138  0.00  0.00    -0.224 N 
ATOM     19  C   LIG    1       12.027   3.338  -4.252  0.00  0.00    +0.244 C 
ATOM     20  C   LIG    1       12.946   4.284  -4.982  0.00  0.00    +0.164 C 
ATOM     21  C   LIG    1       14.337   3.666  -5.230  0.00  0.00    +0.033 C 
ATOM     22  C   LIG    1       15.259   4.912  -5.202  0.00  0.00    +0.021 C 
ATOM     23  C   LIG    1       14.467   5.975  -4.408  0.00  0.00    +0.110 C 
ATOM     24  N   LIG    1       13.221   5.330  -3.961  0.00  0.00    -0.274 N 
ATOM     25  O   LIG    1       11.698   2.222  -4.592  0.00  0.00    -0.273 OA
ATOM     26  C   LIG    1       12.276   5.181  -3.028  0.00  0.00    +0.312 C 
ATOM     27  O   LIG    1       12.020   6.013  -2.179  0.00  0.00    -0.252 OA
ENDBRANCH  17  18
ENDBRANCH  16  17
ENDBRANCH  15  16
ENDBRANCH   1  15
TORSDOF 6
