REMARK  Name = ZINC02370451
REMARK                            x       y       z     vdW  Elec       q    Type
REMARK                         _______ _______ _______ _____ _____    ______ ____
ROOT
ATOM      1  C   LIG    1       -1.312   3.202  -1.163  0.00  0.00    +0.245 C 
ATOM      2  N   LIG    1       -0.739   1.982  -1.172  0.00  0.00    -0.300 N 
ATOM      3  H   LIG    1       -0.795   1.426  -1.964  0.00  0.00    +0.150 HD
ATOM      4  O   LIG    1       -1.241   3.900  -0.170  0.00  0.00    -0.270 OA
ENDROOT
BRANCH   1   7
ATOM      5  C   LIG    1       -2.722   3.473  -4.658  0.00  0.00    +0.072 A 
ATOM      6  C   LIG    1       -2.027   2.972  -3.547  0.00  0.00    +0.042 A 
ATOM      7  C   LIG    1       -2.027   3.692  -2.361  0.00  0.00    +0.048 A 
ATOM      8  C   LIG    1       -2.759   4.959  -2.345  0.00  0.00    +0.013 A 
ATOM      9  C   LIG    1       -2.813   5.758  -1.198  0.00  0.00    +0.011 A 
ATOM     10  C   LIG    1       -3.506   6.932  -1.227  0.00  0.00    +0.001 A 
ATOM     11  C   LIG    1       -4.162   7.346  -2.385  0.00  0.00    +0.002 A 
ATOM     12  C   LIG    1       -4.130   6.592  -3.518  0.00  0.00    +0.028 A 
ATOM     13  C   LIG    1       -3.424   5.375  -3.526  0.00  0.00    +0.072 A 
ATOM     14  N   LIG    1       -3.375   4.615  -4.622  0.00  0.00    -0.247 NA
BRANCH   5  18
ATOM     15  C   LIG    1       -2.709   1.230  -8.269  0.00  0.00    +0.000 A 
ATOM     16  C   LIG    1       -3.388   2.433  -8.208  0.00  0.00    +0.001 A 
ATOM     17  C   LIG    1       -3.396   3.166  -7.039  0.00  0.00    +0.010 A 
ATOM     18  C   LIG    1       -2.718   2.690  -5.917  0.00  0.00    +0.000 A 
ATOM     19  C   LIG    1       -2.030   1.480  -5.986  0.00  0.00    +0.010 A 
ATOM     20  C   LIG    1       -2.034   0.753  -7.160  0.00  0.00    +0.001 A 
ENDBRANCH   5  18
ENDBRANCH   1   7
BRANCH   2  21
ATOM     21  C   LIG    1       -0.030   1.497   0.015  0.00  0.00    +0.134 C 
BRANCH  21  22
ATOM     22  C   LIG    1        1.389   2.005  -0.004  0.00  0.00    -0.023 A 
ATOM     23  C   LIG    1        2.095   2.037  -1.192  0.00  0.00    +0.006 A 
ATOM     24  C   LIG    1        3.395   2.507  -1.210  0.00  0.00    +0.000 A 
ATOM     25  C   LIG    1        3.991   2.936  -0.040  0.00  0.00    +0.000 A 
ATOM     26  C   LIG    1        3.287   2.899   1.149  0.00  0.00    +0.000 A 
ATOM     27  C   LIG    1        1.985   2.434   1.167  0.00  0.00    +0.006 A 
ENDBRANCH  21  22
BRANCH  21  28
ATOM     28  C   LIG    1       -0.024  -0.010   0.015  0.00  0.00    -0.023 A 
ATOM     29  C   LIG    1        0.165  -0.701  -1.167  0.00  0.00    +0.006 A 
ATOM     30  C   LIG    1        0.175  -2.083  -1.166  0.00  0.00    +0.000 A 
ATOM     31  C   LIG    1       -0.014  -2.775   0.016  0.00  0.00    +0.000 A 
ATOM     32  C   LIG    1       -0.209  -2.084   1.198  0.00  0.00    +0.000 A 
ATOM     33  C   LIG    1       -0.214  -0.702   1.197  0.00  0.00    +0.006 A 
ENDBRANCH  21  28
ENDBRANCH   2  21
TORSDOF 5
