REMARK  Name = ZINC02011307
REMARK                            x       y       z     vdW  Elec       q    Type
REMARK                         _______ _______ _______ _____ _____    ______ ____
ROOT
ATOM      1  C   LIG    1        1.563  -3.862   2.537  0.00  0.00    +0.162 A 
ATOM      2  C   LIG    1        1.021  -4.710   1.584  0.00  0.00    +0.053 A 
ATOM      3  C   LIG    1        1.133  -6.079   1.734  0.00  0.00    -0.042 A 
ATOM      4  C   LIG    1        1.784  -6.606   2.833  0.00  0.00    +0.007 A 
ATOM      5  C   LIG    1        2.326  -5.766   3.788  0.00  0.00    +0.049 A 
ATOM      6  C   LIG    1        2.223  -4.393   3.641  0.00  0.00    +0.162 A 
ENDROOT
BRANCH   6   7
ATOM      7  O   LIG    1        2.761  -3.565   4.576  0.00  0.00    -0.491 OA
ATOM      8  C   LIG    1        3.424  -4.180   5.682  0.00  0.00    +0.277 C 
ENDBRANCH   6   7
BRANCH   1   9
ATOM      9  O   LIG    1        1.454  -2.514   2.391  0.00  0.00    -0.488 OA
BRANCH   9  10
ATOM     10  C   LIG    1        0.763  -2.041   1.233  0.00  0.00    +0.229 C 
BRANCH  10  11
ATOM     11  C   LIG    1        0.742  -0.511   1.242  0.00  0.00    +0.041 C 
BRANCH  11  13
ATOM     12  C   LIG    1       -0.019   1.526   0.010  0.00  0.00    +0.004 C 
ATOM     13  C   LIG    1        0.002  -0.004   0.002  0.00  0.00    -0.000 C 
ENDBRANCH  11  13
ENDBRANCH  10  11
ENDBRANCH   9  10
ENDBRANCH   1   9
BRANCH   3  14
ATOM     14  C   LIG    1        0.544  -7.000   0.696  0.00  0.00    +0.059 C 
BRANCH  14  15
ATOM     15  C   LIG    1        1.590  -7.289  -0.383  0.00  0.00    +0.096 C 
ATOM     16  C   LIG    1        1.038  -8.288  -1.417  0.00  0.00    +0.128 C 
ATOM     17  N   LIG    1        1.060  -7.535  -2.681  0.00  0.00    -0.298 N 
ATOM     18  H   LIG    1        0.774  -7.875  -3.543  0.00  0.00    +0.150 HD
ATOM     19  C   LIG    1        1.538  -6.305  -2.452  0.00  0.00    +0.300 C 
ATOM     20  O   LIG    1        1.665  -5.470  -3.326  0.00  0.00    -0.253 OA
ATOM     21  N   LIG    1        1.868  -6.078  -1.170  0.00  0.00    -0.295 N 
ATOM     22  H   LIG    1        2.229  -5.250  -0.818  0.00  0.00    +0.151 HD
ENDBRANCH  14  15
ENDBRANCH   3  14
TORSDOF 7
