REMARK  Name = ZINC02384776
REMARK                            x       y       z     vdW  Elec       q    Type
REMARK                         _______ _______ _______ _____ _____    ______ ____
ROOT
ATOM      1  CA  TYR A  2       -1.201   1.422   3.631  0.00  0.00    +0.186 C 
ENDROOT
BRANCH   1   3
ATOM      2  C   VAL A  1       -0.718   1.572   1.248  0.00  0.00    +0.199 C 
ATOM      3  N   TYR A  2       -0.515   0.950   2.426  0.00  0.00    -0.303 N 
ATOM      4  H   TYR A  2        0.085   0.189   2.476  0.00  0.00    +0.149 HD
ATOM      5  O   VAL A  1       -1.468   2.523   1.185  0.00  0.00    -0.278 OA
BRANCH   2   6
ATOM      6  CA  VAL A  1       -0.013   1.086   0.008  0.00  0.00    +0.015 C 
BRANCH   6   7
ATOM      7  N   VAL A  1       -0.708   1.563  -1.200  0.00  0.00    +0.386 N 
ATOM      8  H1  VAL A  1       -0.194   1.250  -2.032  0.00  0.00    -0.089 HD
ATOM      9  H2  VAL A  1       -0.751   2.581  -1.200  0.00  0.00    -0.089 HD
ATOM     10  H3  VAL A  1       -1.653   1.185  -1.232  0.00  0.00    -0.089 HD
ENDBRANCH   6   7
BRANCH   6  12
ATOM     11  CG1 VAL A  1        2.163   1.109   1.237  0.00  0.00    +0.006 C 
ATOM     12  CB  VAL A  1        1.423   1.615  -0.003  0.00  0.00    -0.023 C 
ATOM     13  CG2 VAL A  1        2.139   1.122  -1.262  0.00  0.00    +0.006 C 
ENDBRANCH   6  12
ENDBRANCH   2   6
ENDBRANCH   1   3
BRANCH   1  14
ATOM     14  C   TYR A  2       -0.410   2.544   4.252  0.00  0.00    +0.326 C 
ATOM     15  O   TYR A  2        0.621   2.912   3.741  0.00  0.00    -0.249 OA
BRANCH  14  16
ATOM     16  OXT TYR A  2       -0.850   3.135   5.374  0.00  0.00    -0.479 OA
ATOM     17  HXT TYR A  2       -1.650   2.851   5.771  0.00  0.00    +0.295 HD
ENDBRANCH  14  16
ENDBRANCH   1  14
BRANCH   1  18
ATOM     18  CB  TYR A  2       -1.325   0.271   4.632  0.00  0.00    +0.069 C 
BRANCH  18  19
ATOM     19  CG  TYR A  2       -2.219  -0.799   4.058  0.00  0.00    -0.045 A 
ATOM     20  CD2 TYR A  2       -3.580  -0.760   4.294  0.00  0.00    +0.007 A 
ATOM     21  CE2 TYR A  2       -4.402  -1.736   3.765  0.00  0.00    +0.045 A 
ATOM     22  CZ  TYR A  2       -3.858  -2.762   3.006  0.00  0.00    +0.117 A 
ATOM     23  CE1 TYR A  2       -2.491  -2.802   2.775  0.00  0.00    +0.045 A 
ATOM     24  CD1 TYR A  2       -1.674  -1.820   3.302  0.00  0.00    +0.007 A 
BRANCH  22  25
ATOM     25  OH  TYR A  2       -4.664  -3.727   2.488  0.00  0.00    -0.507 OA
ATOM     26  HH  TYR A  2       -4.788  -4.489   3.070  0.00  0.00    +0.292 HD
ENDBRANCH  22  25
ENDBRANCH  18  19
ENDBRANCH   1  18
TORSDOF 9
