REMARK  Name = ZINC01700387
REMARK                            x       y       z     vdW  Elec       q    Type
REMARK                         _______ _______ _______ _____ _____    ______ ____
ROOT
ATOM      1  N   LIG    1        1.362   1.593  -0.002  0.00  0.00    -0.316 N 
ATOM      2  H   LIG    1        1.574   2.409  -0.482  0.00  0.00    +0.149 HD
ATOM      3  C   LIG    1        2.331   0.926   0.654  0.00  0.00    +0.325 C 
ATOM      4  O   LIG    1        2.066  -0.095   1.254  0.00  0.00    -0.280 OA
ENDROOT
BRANCH   1   6
ATOM      5  C   LIG    1       -0.753   1.593  -1.232  0.00  0.00    +0.027 C 
ATOM      6  C   LIG    1       -0.013   1.086   0.008  0.00  0.00    +0.066 C 
ATOM      7  C   LIG    1       -0.729   1.579   1.267  0.00  0.00    +0.027 C 
ENDBRANCH   1   6
TORSDOF 1
