REMARK  Name = ZINC01780082
REMARK                            x       y       z     vdW  Elec       q    Type
REMARK                         _______ _______ _______ _____ _____    ______ ____
ROOT
ATOM      1  N   LIG    1        3.450   6.346   0.318  0.00  0.00    -0.305 N 
ATOM      2  H   LIG    1        4.297   5.873   0.308  0.00  0.00    +0.149 HD
ATOM      3  C   LIG    1        2.295   5.659   0.224  0.00  0.00    +0.300 C 
ATOM      4  O   LIG    1        1.235   6.250   0.237  0.00  0.00    -0.265 OA
ENDROOT
BRANCH   1  14
ATOM      5  C   LIG    1        3.760  10.238   2.358  0.00  0.00    -0.010 C 
ATOM      6  C   LIG    1        4.721   9.800   1.246  0.00  0.00    -0.072 C 
ATOM      7  N   LIG    1        4.453  10.529  -0.023  0.00  0.00    +0.386 N 
ATOM      8  H   LIG    1        4.189  11.492   0.213  0.00  0.00    -0.084 HD
ATOM      9  H   LIG    1        5.319  10.536  -0.575  0.00  0.00    -0.084 HD
ATOM     10  C   LIG    1        3.374   9.950  -0.869  0.00  0.00    -0.072 C 
ATOM     11  C   LIG    1        3.613  10.503  -2.292  0.00  0.00    -0.010 C 
ATOM     12  C   LIG    1        1.990  10.433  -0.421  0.00  0.00    -0.010 C 
ATOM     13  C   LIG    1        3.378   8.426  -0.961  0.00  0.00    +0.009 C 
ATOM     14  C   LIG    1        3.428   7.809   0.436  0.00  0.00    +0.071 C 
ATOM     15  C   LIG    1        6.143  10.220   1.679  0.00  0.00    -0.010 C 
ATOM     16  C   LIG    1        4.706   8.278   1.129  0.00  0.00    +0.009 C 
ENDBRANCH   1  14
BRANCH   3  17
ATOM     17  C   LIG    1        2.318   4.170   0.104  0.00  0.00    +0.303 C 
ATOM     18  N   LIG    1        1.162   3.484   0.009  0.00  0.00    -0.278 N 
ATOM     19  H   LIG    1        0.319   3.960  -0.058  0.00  0.00    +0.155 HD
ATOM     20  O   LIG    1        3.378   3.579   0.091  0.00  0.00    -0.265 OA
BRANCH  18  21
ATOM     21  C   LIG    1        1.177   2.086   0.008  0.00  0.00    +0.034 A 
ATOM     22  C   LIG    1        2.134   1.400   0.746  0.00  0.00    +0.025 A 
ATOM     23  C   LIG    1        2.146   0.019   0.743  0.00  0.00    +0.022 A 
ATOM     24  C   LIG    1        1.208  -0.681   0.005  0.00  0.00    +0.041 A 
ATOM     25 CL   LIG    1        1.227  -2.417   0.003  0.00  0.00    -0.084 Cl
ATOM     26  C   LIG    1        0.254  -0.000  -0.731  0.00  0.00    +0.022 A 
ATOM     27  C   LIG    1        0.236   1.381  -0.731  0.00  0.00    +0.025 A 
ENDBRANCH  18  21
ENDBRANCH   3  17
TORSDOF 3
