REMARK  Name = ZINC01803423
REMARK                            x       y       z     vdW  Elec       q    Type
REMARK                         _______ _______ _______ _____ _____    ______ ____
ROOT
ATOM      1  N   LIG    1        1.218  -2.668  -1.405  0.00  0.00    -0.305 N 
ATOM      2  H   LIG    1        1.203  -2.034  -2.139  0.00  0.00    +0.149 HD
ATOM      3  C   LIG    1        1.231  -3.992  -1.658  0.00  0.00    +0.285 C 
ATOM      4  O   LIG    1        1.249  -4.785  -0.739  0.00  0.00    -0.267 OA
ENDROOT
BRANCH   3   5
ATOM      5  C   LIG    1        1.223  -4.482  -3.067  0.00  0.00    +0.249 C 
ATOM      6  O   LIG    1        1.205  -3.688  -3.986  0.00  0.00    -0.282 OA
BRANCH   5   7
ATOM      7  C   LIG    1        1.237  -5.918  -3.341  0.00  0.00    +0.052 A 
ATOM      8  C   LIG    1        1.264  -6.941  -2.412  0.00  0.00    +0.095 A 
ATOM      9  N   LIG    1        1.266  -8.127  -3.047  0.00  0.00    -0.360 N 
ATOM     10  C   LIG    1        1.251  -7.949  -4.416  0.00  0.00    +0.047 A 
ATOM     11  C   LIG    1        1.250  -8.835  -5.488  0.00  0.00    +0.026 A 
ATOM     12  C   LIG    1        1.232  -8.353  -6.779  0.00  0.00    +0.002 A 
ATOM     13  C   LIG    1        1.213  -6.988  -7.024  0.00  0.00    +0.001 A 
ATOM     14  C   LIG    1        1.213  -6.094  -5.974  0.00  0.00    +0.011 A 
ATOM     15  H   LIG    1        1.281  -8.990  -2.603  0.00  0.00    +0.165 HD
ATOM     16  C   LIG    1        1.232  -6.568  -4.666  0.00  0.00    +0.011 A 
ENDBRANCH   5   7
ENDBRANCH   3   5
BRANCH   1  17
ATOM     17  C   LIG    1        1.226  -2.187  -0.021  0.00  0.00    +0.140 C 
BRANCH  17  21
ATOM     18  C   LIG    1        1.176   2.086   0.002  0.00  0.00    +0.120 A 
ATOM     19  C   LIG    1       -0.017   1.377   0.010  0.00  0.00    +0.046 A 
ATOM     20  C   LIG    1        0.002  -0.004   0.002  0.00  0.00    +0.009 A 
ATOM     21  C   LIG    1        1.208  -0.680  -0.013  0.00  0.00    -0.030 A 
ATOM     22  C   LIG    1        2.398   0.024  -0.021  0.00  0.00    +0.009 A 
ATOM     23  C   LIG    1        2.385   1.405  -0.013  0.00  0.00    +0.046 A 
BRANCH  18  25
ATOM     24  C   LIG    1        2.426   4.108   0.001  0.00  0.00    +0.277 C 
ATOM     25  O   LIG    1        1.160   3.445   0.009  0.00  0.00    -0.495 OA
ENDBRANCH  18  25
ENDBRANCH  17  21
ENDBRANCH   1  17
TORSDOF 5
