REMARK  Name = ZINC01774538
REMARK                            x       y       z     vdW  Elec       q    Type
REMARK                         _______ _______ _______ _____ _____    ______ ____
ROOT
ATOM      1  C   LIG    1       -2.285   4.058   0.044  0.00  0.00    +0.003 A 
ATOM      2  C   LIG    1       -1.138   3.294   0.006  0.00  0.00    +0.008 A 
ATOM      3  C   LIG    1       -1.230   1.899   0.054  0.00  0.00    -0.022 A 
ATOM      4  C   LIG    1       -2.487   1.291   0.153  0.00  0.00    +0.040 A 
ATOM      5  C   LIG    1       -3.623   2.069   0.196  0.00  0.00    +0.122 A 
ATOM      6  C   LIG    1       -3.524   3.449   0.142  0.00  0.00    +0.032 A 
ENDROOT
BRANCH   3   7
ATOM      7  C   LIG    1       -0.013   1.076   0.008  0.00  0.00    +0.028 C 
ATOM      8  C   LIG    1        1.016   1.432  -0.801  0.00  0.00    +0.080 C 
ATOM      9  C   LIG    1        1.081   2.488  -1.834  0.00  0.00    +0.258 C 
ATOM     10  N   LIG    1        2.229   2.617  -2.476  0.00  0.00    -0.243 N 
ATOM     11  H   LIG    1        2.316   3.301  -3.159  0.00  0.00    +0.159 HD
ATOM     12  C   LIG    1        3.281   1.817  -2.208  0.00  0.00    +0.283 C 
ATOM     13  O   LIG    1        4.384   1.821  -2.721  0.00  0.00    -0.262 OA
ATOM     14  O   LIG    1        0.127   3.204  -2.077  0.00  0.00    -0.269 OA
ATOM     15  S   LIG    1        2.663   0.748  -0.917  0.00  0.00    -0.026 S 
ENDBRANCH   3   7
BRANCH   5  16
ATOM     16  N   LIG    1       -4.953   1.428   0.301  0.00  0.00    +0.006 N 
ATOM     17  O   LIG    1       -5.043   0.215   0.350  0.00  0.00    -0.130 OA
BRANCH  16  18
ATOM     18  O   LIG    1       -5.959   2.115   0.339  0.00  0.00    -0.396 OA
ATOM     19  H   LIG    1       -5.890   3.049   0.302  0.00  0.00    +0.329 HD
ENDBRANCH  16  18
ENDBRANCH   5  16
TORSDOF 3
