REMARK  Name = ZINC02019492
REMARK                            x       y       z     vdW  Elec       q    Type
REMARK                         _______ _______ _______ _____ _____    ______ ____
ROOT
ATOM      1  C   LIG    1       -2.672  -3.736  -0.342  0.00  0.00    +0.142 A 
ATOM      2  C   LIG    1       -1.608  -4.615  -0.297  0.00  0.00    +0.062 A 
ATOM      3  C   LIG    1       -1.845  -5.992  -0.240  0.00  0.00    +0.063 A 
ATOM      4  C   LIG    1       -3.157  -6.474  -0.230  0.00  0.00    +0.017 A 
ATOM      5  C   LIG    1       -4.214  -5.593  -0.275  0.00  0.00    +0.027 A 
ATOM      6  C   LIG    1       -3.980  -4.223  -0.325  0.00  0.00    +0.067 A 
ENDROOT
BRANCH   6   7
ATOM      7  N   LIG    1       -5.053  -3.336  -0.364  0.00  0.00    -0.355 N 
ATOM      8  H   LIG    1       -5.962  -3.673  -0.352  0.00  0.00    +0.142 HD
ATOM      9  H   LIG    1       -4.890  -2.380  -0.403  0.00  0.00    +0.142 HD
ENDBRANCH   6   7
BRANCH   3  10
ATOM     10  C   LIG    1       -0.712  -6.934  -0.193  0.00  0.00    +0.339 C 
ATOM     11  O   LIG    1        0.426  -6.521  -0.296  0.00  0.00    -0.245 OA
BRANCH  10  12
ATOM     12  O   LIG    1       -0.939  -8.253  -0.034  0.00  0.00    -0.463 OA
BRANCH  12  13
ATOM     13  C   LIG    1        0.206  -9.095   0.116  0.00  0.00    +0.214 C 
BRANCH  13  14
ATOM     14  C   LIG    1       -0.239 -10.558   0.161  0.00  0.00    -0.037 C 
BRANCH  14  15
ATOM     15  N   LIG    1       -0.852 -10.923  -1.123  0.00  0.00    +0.382 N 
ATOM     16  H   LIG    1       -1.592 -10.272  -1.340  0.00  0.00    -0.082 HD
BRANCH  15  17
ATOM     17  C   LIG    1       -1.405 -12.281  -1.034  0.00  0.00    -0.082 C 
ATOM     18  C   LIG    1       -2.569 -12.293  -0.041  0.00  0.00    -0.017 C 
ENDBRANCH  15  17
BRANCH  15  19
ATOM     19  C   LIG    1        0.165 -10.877  -2.182  0.00  0.00    -0.082 C 
ATOM     20  C   LIG    1       -0.498 -11.135  -3.537  0.00  0.00    -0.017 C 
ENDBRANCH  15  19
ENDBRANCH  14  15
ENDBRANCH  13  14
ENDBRANCH  12  13
ENDBRANCH  10  12
ENDBRANCH   3  10
BRANCH   1  21
ATOM     21  O   LIG    1       -2.445  -2.396  -0.397  0.00  0.00    -0.490 OA
BRANCH  21  22
ATOM     22  C   LIG    1       -1.082  -1.969  -0.411  0.00  0.00    +0.229 C 
BRANCH  22  23
ATOM     23  C   LIG    1       -1.027  -0.441  -0.474  0.00  0.00    +0.041 C 
BRANCH  23  25
ATOM     24  C   LIG    1        0.488   1.544  -0.552  0.00  0.00    +0.004 C 
ATOM     25  C   LIG    1        0.433   0.017  -0.489  0.00  0.00    -0.000 C 
ENDBRANCH  23  25
ENDBRANCH  22  23
ENDBRANCH  21  22
ENDBRANCH   1  21
TORSDOF 12
