REMARK  Name = ZINC01910616
REMARK                            x       y       z     vdW  Elec       q    Type
REMARK                         _______ _______ _______ _____ _____    ______ ____
ROOT
ATOM      1  C   LIG    1        0.587  -1.847   1.760  0.00  0.00    +0.150 C 
ATOM      2  N   LIG    1       -0.001  -1.584   3.075  0.00  0.00    -0.329 N 
ATOM      3  C   LIG    1        0.687  -1.412   4.257  0.00  0.00    +0.069 A 
ATOM      4  C   LIG    1        2.036  -1.424   4.597  0.00  0.00    +0.029 A 
ATOM      5  C   LIG    1        2.418  -1.216   5.890  0.00  0.00    +0.015 A 
ATOM      6  C   LIG    1        1.459  -0.989   6.887  0.00  0.00    +0.039 A 
ATOM      7  C   LIG    1        0.105  -0.974   6.565  0.00  0.00    +0.043 A 
ATOM      8  C   LIG    1       -0.289  -1.186   5.245  0.00  0.00    +0.090 A 
ATOM      9  N   LIG    1       -1.497  -1.231   4.625  0.00  0.00    -0.231 NA
ATOM     10  C   LIG    1       -1.327  -1.458   3.355  0.00  0.00    +0.128 A 
ENDROOT
BRANCH   6  11
ATOM     11  C   LIG    1        1.886  -0.766   8.282  0.00  0.00    +0.252 C 
ATOM     12  N   LIG    1        2.953  -1.428   8.774  0.00  0.00    -0.252 N 
ATOM     13  O   LIG    1        1.276   0.014   8.987  0.00  0.00    -0.270 OA
BRANCH  12  14
ATOM     14  C   LIG    1        3.241  -1.369  10.136  0.00  0.00    +0.128 A 
ATOM     15  C   LIG    1        2.277  -0.908  11.025  0.00  0.00    +0.044 A 
ATOM     16  C   LIG    1        2.575  -0.860  12.376  0.00  0.00    +0.005 A 
ATOM     17  C   LIG    1        3.836  -1.266  12.790  0.00  0.00    +0.020 A 
ATOM     18  C   LIG    1        4.747  -1.707  11.851  0.00  0.00    +0.113 A 
ATOM     19  N   LIG    1        4.433  -1.747  10.571  0.00  0.00    -0.240 NA
ENDBRANCH  12  14
BRANCH  12  20
ATOM     20  C   LIG    1        3.808  -2.209   7.877  0.00  0.00    +0.126 C 
BRANCH  20  21
ATOM     21  C   LIG    1        5.098  -1.435   7.601  0.00  0.00    +0.140 C 
BRANCH  21  22
ATOM     22  C   LIG    1        5.978  -2.239   6.678  0.00  0.00    +0.306 C 
ATOM     23  O   LIG    1        5.611  -3.320   6.283  0.00  0.00    -0.251 OA
BRANCH  22  24
ATOM     24  O   LIG    1        7.170  -1.754   6.296  0.00  0.00    -0.481 OA
ATOM     25  H   LIG    1        7.455  -0.916   6.603  0.00  0.00    +0.295 HD
ENDBRANCH  22  24
ENDBRANCH  21  22
ENDBRANCH  20  21
ENDBRANCH  12  20
ENDBRANCH   6  11
BRANCH  10  26
ATOM     26  C   LIG    1       -2.437  -1.569   2.342  0.00  0.00    +0.176 C 
BRANCH  26  27
ATOM     27  N   LIG    1       -2.876  -2.964   2.250  0.00  0.00    -0.337 N 
ATOM     28  H   LIG    1       -2.454  -3.643   2.800  0.00  0.00    +0.147 HD
BRANCH  27  29
ATOM     29  C   LIG    1       -3.899  -3.316   1.373  0.00  0.00    +0.027 A 
ATOM     30  C   LIG    1       -4.508  -2.340   0.589  0.00  0.00    +0.024 A 
ATOM     31  C   LIG    1       -5.516  -2.686  -0.283  0.00  0.00    +0.017 A 
ATOM     32  C   LIG    1       -5.935  -4.015  -0.372  0.00  0.00    +0.061 A 
ATOM     33  C   LIG    1       -5.327  -4.991   0.420  0.00  0.00    +0.017 A 
ATOM     34  C   LIG    1       -4.315  -4.641   1.286  0.00  0.00    +0.024 A 
BRANCH  32  35
ATOM     35  C   LIG    1       -7.021  -4.388  -1.303  0.00  0.00    +0.266 C 
ATOM     36  N   LIG    1       -7.371  -5.666  -1.340  0.00  0.00    -0.288 N 
ATOM     37  H   LIG    1       -6.894  -6.346  -0.738  0.00  0.00    +0.301 HD
ATOM     38  H   LIG    1       -8.116  -5.973  -1.966  0.00  0.00    +0.301 HD
BRANCH  35  39
ATOM     39  N   LIG    1       -7.621  -3.424  -2.084  0.00  0.00    -0.250 N 
ATOM     40  H   LIG    1       -8.333  -3.668  -2.695  0.00  0.00    +0.288 HD
ATOM     41  H   LIG    1       -7.330  -2.500  -2.023  0.00  0.00    +0.288 HD
ENDBRANCH  35  39
ENDBRANCH  32  35
ENDBRANCH  27  29
ENDBRANCH  26  27
ENDBRANCH  10  26
TORSDOF 11
