REMARK  Name = ZINC01676919
REMARK                            x       y       z     vdW  Elec       q    Type
REMARK                         _______ _______ _______ _____ _____    ______ ____
ROOT
ATOM      1  C   LIG    1       -0.017   1.385   0.010  0.00  0.00    +0.039 A 
ATOM      2  C   LIG    1        1.171   2.090   0.002  0.00  0.00    +0.083 A 
ATOM      3  C   LIG    1        2.377   1.415  -0.013  0.00  0.00    +0.119 A 
ATOM      4  C   LIG    1        2.400   0.032  -0.021  0.00  0.00    +0.059 A 
ATOM      5  C   LIG    1        1.216  -0.679  -0.013  0.00  0.00    +0.127 A 
ATOM      6  C   LIG    1        0.002  -0.004   0.002  0.00  0.00    +0.052 A 
ENDROOT
BRANCH   2   7
ATOM      7  C   LIG    1        1.151   3.597   0.010  0.00  0.00    +0.419 C 
ATOM      8  F   LIG    1        1.794   4.078  -1.135  0.00  0.00    -0.166 F 
ATOM      9  F   LIG    1        1.816   4.066   1.149  0.00  0.00    -0.166 F 
ATOM     10  F   LIG    1       -0.173   4.046   0.025  0.00  0.00    -0.166 F 
ENDBRANCH   2   7
BRANCH   3  11
ATOM     11  S   LIG    1        3.890   2.319  -0.024  0.00  0.00    +0.057 S 
ATOM     12  O   LIG    1        4.936   1.358  -0.067  0.00  0.00    -0.153 OA
ATOM     13  O   LIG    1        3.790   3.291   1.007  0.00  0.00    -0.153 OA
BRANCH  11  14
ATOM     14  N   LIG    1        3.953   3.151  -1.454  0.00  0.00    -0.203 NA
ATOM     15  H   LIG    1        3.520   2.791  -2.244  0.00  0.00    +0.144 HD
ATOM     16  H   LIG    1        4.423   3.998  -1.502  0.00  0.00    +0.144 HD
ENDBRANCH  11  14
ENDBRANCH   3  11
BRANCH   5  17
ATOM     17  S   LIG    1        1.246  -2.441  -0.024  0.00  0.00    +0.058 S 
ATOM     18  O   LIG    1        2.614  -2.824  -0.013  0.00  0.00    -0.153 OA
ATOM     19  O   LIG    1        0.347  -2.856  -1.042  0.00  0.00    -0.153 OA
BRANCH  17  20
ATOM     20  N   LIG    1        0.600  -2.950   1.414  0.00  0.00    -0.203 NA
ATOM     21  H   LIG    1        0.527  -3.898   1.604  0.00  0.00    +0.144 HD
ATOM     22  H   LIG    1        0.295  -2.300   2.066  0.00  0.00    +0.144 HD
ENDBRANCH  17  20
ENDBRANCH   5  17
BRANCH   6  23
ATOM     23  N   LIG    1       -1.197  -0.720   0.010  0.00  0.00    -0.356 N 
ATOM     24  H   LIG    1       -1.183  -1.690   0.005  0.00  0.00    +0.142 HD
ATOM     25  H   LIG    1       -2.044  -0.248   0.021  0.00  0.00    +0.142 HD
ENDBRANCH   6  23
TORSDOF 6
