REMARK  Name = ZINC02143432
REMARK                            x       y       z     vdW  Elec       q    Type
REMARK                         _______ _______ _______ _____ _____    ______ ____
ROOT
ATOM      1  C   LIG    1        1.159   2.092   0.022  0.00  0.00    +0.134 A 
ATOM      2  C   LIG    1        1.486   1.417   1.203  0.00  0.00    +0.047 A 
ATOM      3  C   LIG    1        1.513   0.058   1.247  0.00  0.00    +0.012 A 
ATOM      4  C   LIG    1        1.208  -0.683   0.091  0.00  0.00    -0.017 A 
ATOM      5  C   LIG    1        1.227  -2.088   0.102  0.00  0.00    +0.023 A 
ATOM      6  C   LIG    1        0.927  -2.775  -1.036  0.00  0.00    +0.018 A 
ATOM      7 BR   LIG    1        0.953  -4.665  -1.017  0.00  0.00    -0.050 Br
ATOM      8  C   LIG    1        0.601  -2.103  -2.214  0.00  0.00    +0.016 A 
ATOM      9  C   LIG    1        0.573  -0.744  -2.261  0.00  0.00    +0.010 A 
ATOM     10  C   LIG    1        0.876  -0.001  -1.106  0.00  0.00    -0.014 A 
ATOM     11  C   LIG    1        0.858   1.403  -1.118  0.00  0.00    +0.055 A 
ENDROOT
BRANCH   1  12
ATOM     12  O   LIG    1        1.141   3.451   0.010  0.00  0.00    -0.412 OA
BRANCH  12  15
ATOM     13  N   LIG    1        2.373   5.421   0.221  0.00  0.00    -0.281 N 
ATOM     14  H   LIG    1        1.550   5.935   0.234  0.00  0.00    +0.152 HD
ATOM     15  C   LIG    1        2.328   4.079   0.106  0.00  0.00    +0.406 C 
ATOM     16  O   LIG    1        3.359   3.436   0.090  0.00  0.00    -0.226 OA
BRANCH  13  17
ATOM     17  C   LIG    1        3.664   6.105   0.326  0.00  0.00    +0.107 C 
BRANCH  17  18
ATOM     18  C   LIG    1        3.435   7.613   0.444  0.00  0.00    +0.019 C 
BRANCH  18  20
ATOM     19  C   LIG    1        4.555   9.835   0.672  0.00  0.00    +0.004 C 
ATOM     20  C   LIG    1        4.784   8.327   0.554  0.00  0.00    -0.002 C 
ENDBRANCH  18  20
ENDBRANCH  17  18
ENDBRANCH  13  17
ENDBRANCH  12  15
ENDBRANCH   1  12
TORSDOF 5
