REMARK  Name = ZINC01679511
REMARK                            x       y       z     vdW  Elec       q    Type
REMARK                         _______ _______ _______ _____ _____    ______ ____
ROOT
ATOM      1  C   LIG    1        0.002  -0.004   0.002  0.00  0.00    -0.096 C 
ATOM      2  N   LIG    1       -0.031   1.473   0.036  0.00  0.00    +0.378 N 
ATOM      3  H   LIG    1       -0.485   1.776   0.906  0.00  0.00    -0.082 HD
ATOM      4  C   LIG    1        1.346   2.010   0.000  0.00  0.00    -0.079 C 
ATOM      5  C   LIG    1        1.290   3.531   0.155  0.00  0.00    -0.015 C 
ATOM      6  C   LIG    1        0.473   4.127  -0.995  0.00  0.00    -0.010 C 
ATOM      7  C   LIG    1       -0.927   3.507  -0.991  0.00  0.00    -0.015 C 
ATOM      8  C   LIG    1       -0.806   1.987  -1.113  0.00  0.00    -0.079 C 
ENDROOT
BRANCH   6   9
ATOM      9  C   LIG    1        0.364   5.642  -0.812  0.00  0.00    +0.038 C 
BRANCH   9  10
ATOM     10  C   LIG    1       -0.333   6.243  -2.006  0.00  0.00    -0.047 A 
ATOM     11  C   LIG    1        0.404   6.665  -3.097  0.00  0.00    +0.003 A 
ATOM     12  C   LIG    1       -0.235   7.212  -4.193  0.00  0.00    +0.000 A 
ATOM     13  C   LIG    1       -1.611   7.345  -4.196  0.00  0.00    +0.000 A 
ATOM     14  C   LIG    1       -2.348   6.927  -3.103  0.00  0.00    +0.000 A 
ATOM     15  C   LIG    1       -1.709   6.376  -2.009  0.00  0.00    +0.003 A 
ENDBRANCH   9  10
ENDBRANCH   6   9
TORSDOF 2
