REMARK  Name = ZINC01724701
REMARK                            x       y       z     vdW  Elec       q    Type
REMARK                         _______ _______ _______ _____ _____    ______ ____
ROOT
ATOM      1  C   LIG    1        2.355  -3.760   1.403  0.00  0.00    +0.002 C 
ENDROOT
BRANCH   1   2
ATOM      2  C   LIG    1        1.893  -2.302   1.415  0.00  0.00    +0.019 C 
BRANCH   2   3
ATOM      3  C   LIG    1        1.726  -1.808  -0.024  0.00  0.00    +0.117 C 
BRANCH   3   7
ATOM      4  C   LIG    1       -0.018   1.475   0.010  0.00  0.00    +0.073 C 
ATOM      5  C   LIG    1        1.262   1.881   0.000  0.00  0.00    +0.073 C 
ATOM      6  C   LIG    1        2.098   0.660  -0.014  0.00  0.00    +0.246 C 
ATOM      7  N   LIG    1        1.284  -0.411  -0.012  0.00  0.00    -0.235 N 
ATOM      8  O   LIG    1        3.311   0.629  -0.026  0.00  0.00    -0.270 OA
ATOM      9  C   LIG    1        0.002  -0.004   0.002  0.00  0.00    +0.246 C 
ATOM     10  O   LIG    1       -0.973  -0.727   0.008  0.00  0.00    -0.270 OA
ENDBRANCH   3   7
ENDBRANCH   2   3
ENDBRANCH   1   2
BRANCH   1  11
ATOM     11  C   LIG    1        2.523  -4.254   2.841  0.00  0.00    +0.002 C 
BRANCH  11  12
ATOM     12  C   LIG    1        2.985  -5.713   2.830  0.00  0.00    +0.019 C 
BRANCH  12  13
ATOM     13  C   LIG    1        3.152  -6.206   4.268  0.00  0.00    +0.117 C 
BRANCH  13  14
ATOM     14  N   LIG    1        3.594  -7.603   4.257  0.00  0.00    -0.235 N 
ATOM     15  C   LIG    1        2.780  -8.674   4.253  0.00  0.00    +0.246 C 
ATOM     16  C   LIG    1        3.616  -9.895   4.241  0.00  0.00    +0.073 C 
ATOM     17  C   LIG    1        4.896  -9.490   4.239  0.00  0.00    +0.073 C 
ATOM     18  O   LIG    1        1.567  -8.644   4.258  0.00  0.00    -0.270 OA
ATOM     19  C   LIG    1        4.876  -8.010   4.243  0.00  0.00    +0.246 C 
ATOM     20  O   LIG    1        5.851  -7.287   4.237  0.00  0.00    -0.270 OA
ENDBRANCH  13  14
ENDBRANCH  12  13
ENDBRANCH  11  12
ENDBRANCH   1  11
TORSDOF 7
