REMARK  Name = ZINC01671392
REMARK                            x       y       z     vdW  Elec       q    Type
REMARK                         _______ _______ _______ _____ _____    ______ ____
ROOT
ATOM      1  C   LIG    1        4.865   0.089  -0.013  0.00  0.00    +0.233 C 
ATOM      2  O   LIG    1        3.781  -0.460  -0.039  0.00  0.00    -0.283 OA
ENDROOT
BRANCH   1   6
ATOM      3  C   LIG    1        8.405  -2.227   0.147  0.00  0.00    +0.120 A 
ATOM      4  C   LIG    1        8.479  -0.840   0.230  0.00  0.00    +0.046 A 
ATOM      5  C   LIG    1        7.340  -0.088   0.178  0.00  0.00    +0.015 A 
ATOM      6  C   LIG    1        6.095  -0.716   0.042  0.00  0.00    +0.026 A 
ATOM      7  C   LIG    1        6.025  -2.113  -0.035  0.00  0.00    +0.015 A 
ATOM      8  C   LIG    1        7.171  -2.855   0.012  0.00  0.00    +0.046 A 
BRANCH   3  10
ATOM      9  C   LIG    1        9.392  -4.387   0.108  0.00  0.00    +0.277 C 
ATOM     10  O   LIG    1        9.540  -2.969   0.199  0.00  0.00    -0.495 OA
ENDBRANCH   3  10
ENDBRANCH   1   6
BRANCH   1  11
ATOM     11  C   LIG    1        4.948   1.577  -0.038  0.00  0.00    +0.233 C 
ATOM     12  O   LIG    1        5.213   2.187   0.978  0.00  0.00    -0.283 OA
BRANCH  11  13
ATOM     13  C   LIG    1        4.709   2.308  -1.296  0.00  0.00    +0.026 A 
ATOM     14  C   LIG    1        4.675   3.707  -1.301  0.00  0.00    +0.012 A 
ATOM     15  C   LIG    1        4.450   4.383  -2.481  0.00  0.00    +0.001 A 
ATOM     16  C   LIG    1        4.258   3.682  -3.659  0.00  0.00    +0.000 A 
ATOM     17  C   LIG    1        4.290   2.298  -3.662  0.00  0.00    +0.001 A 
ATOM     18  C   LIG    1        4.513   1.607  -2.490  0.00  0.00    +0.012 A 
ENDBRANCH  11  13
ENDBRANCH   1  11
TORSDOF 4
