REMARK  Name = ZINC02003680
REMARK                            x       y       z     vdW  Elec       q    Type
REMARK                         _______ _______ _______ _____ _____    ______ ____
ROOT
ATOM      1  C   LIG    1       -5.848  -2.136  -2.990  0.00  0.00    +0.115 C 
ATOM      2  C   LIG    1       -5.139  -2.924  -4.093  0.00  0.00    +0.033 C 
ENDROOT
BRANCH   1   3
ATOM      3  C   LIG    1       -5.657  -0.660  -3.225  0.00  0.00    -0.027 A 
ATOM      4  C   LIG    1       -6.095   0.252  -2.283  0.00  0.00    +0.005 A 
ATOM      5  C   LIG    1       -5.919   1.607  -2.499  0.00  0.00    +0.000 A 
ATOM      6  C   LIG    1       -5.306   2.048  -3.656  0.00  0.00    +0.000 A 
ATOM      7  C   LIG    1       -4.867   1.136  -4.598  0.00  0.00    +0.000 A 
ATOM      8  C   LIG    1       -5.039  -0.218  -4.380  0.00  0.00    +0.005 A 
ENDBRANCH   1   3
BRANCH   1   9
ATOM      9  C   LIG    1       -7.320  -2.461  -3.007  0.00  0.00    -0.027 A 
ATOM     10  C   LIG    1       -8.240  -1.482  -3.330  0.00  0.00    +0.005 A 
ATOM     11  C   LIG    1       -9.590  -1.780  -3.346  0.00  0.00    +0.000 A 
ATOM     12  C   LIG    1      -10.019  -3.057  -3.039  0.00  0.00    +0.000 A 
ATOM     13  C   LIG    1       -9.099  -4.037  -2.716  0.00  0.00    +0.000 A 
ATOM     14  C   LIG    1       -7.749  -3.740  -2.705  0.00  0.00    +0.005 A 
ENDBRANCH   1   9
BRANCH   1  15
ATOM     15  C   LIG    1       -5.266  -2.511  -1.651  0.00  0.00    +0.322 C 
ATOM     16  O   LIG    1       -5.960  -3.047  -0.820  0.00  0.00    -0.249 OA
BRANCH  15  17
ATOM     17  O   LIG    1       -3.978  -2.250  -1.383  0.00  0.00    -0.466 OA
BRANCH  17  18
ATOM     18  C   LIG    1       -3.463  -2.732  -0.140  0.00  0.00    +0.214 C 
BRANCH  18  19
ATOM     19  C   LIG    1       -2.026  -2.240   0.043  0.00  0.00    -0.037 C 
BRANCH  19  20
ATOM     20  N   LIG    1       -2.019  -0.774   0.140  0.00  0.00    +0.382 N 
ATOM     21  H   LIG    1       -2.488  -0.381  -0.661  0.00  0.00    -0.082 HD
BRANCH  20  23
ATOM     22  C   LIG    1       -2.817   1.164   1.407  0.00  0.00    -0.017 C 
ATOM     23  C   LIG    1       -2.715  -0.362   1.367  0.00  0.00    -0.082 C 
ENDBRANCH  20  23
BRANCH  20  24
ATOM     24  C   LIG    1       -0.631  -0.293   0.179  0.00  0.00    -0.082 C 
ATOM     25  C   LIG    1        0.046  -0.579  -1.163  0.00  0.00    -0.017 C 
ENDBRANCH  20  24
ENDBRANCH  19  20
ENDBRANCH  18  19
ENDBRANCH  17  18
ENDBRANCH  15  17
ENDBRANCH   1  15
TORSDOF 9
