REMARK  Name = ZINC01689786
REMARK                            x       y       z     vdW  Elec       q    Type
REMARK                         _______ _______ _______ _____ _____    ______ ____
ROOT
ATOM      1  C   LIG    1       -2.319   1.862  -1.122  0.00  0.00    +0.021 C 
ATOM      2  C   LIG    1       -1.333   2.113   0.020  0.00  0.00    +0.015 C 
ATOM      3  C   LIG    1       -1.920   1.578   1.328  0.00  0.00    +0.021 C 
ENDROOT
BRANCH   2   4
ATOM      4  C   LIG    1       -1.081   3.593   0.150  0.00  0.00    -0.035 A 
ATOM      5  C   LIG    1        0.214   4.076   0.140  0.00  0.00    +0.023 A 
ATOM      6  C   LIG    1        0.448   5.434   0.255  0.00  0.00    +0.061 A 
ATOM      7 BR   LIG    1        2.219   6.095   0.233  0.00  0.00    -0.046 Br
ATOM      8  C   LIG    1       -0.619   6.311   0.391  0.00  0.00    +0.145 A 
ATOM      9  C   LIG    1       -1.918   5.822   0.407  0.00  0.00    +0.061 A 
ATOM     10 BR   LIG    1       -3.375   7.014   0.592  0.00  0.00    -0.046 Br
ATOM     11  C   LIG    1       -2.146   4.464   0.286  0.00  0.00    +0.023 A 
BRANCH   8  12
ATOM     12  O   LIG    1       -0.392   7.646   0.509  0.00  0.00    -0.505 OA
ATOM     13  H   LIG    1       -0.284   7.947   1.422  0.00  0.00    +0.292 HD
ENDBRANCH   8  12
ENDBRANCH   2   4
BRANCH   2  14
ATOM     14  C   LIG    1       -0.034   1.406  -0.274  0.00  0.00    -0.035 A 
ATOM     15  C   LIG    1        0.614   1.625  -1.476  0.00  0.00    +0.023 A 
ATOM     16  C   LIG    1        1.802   0.974  -1.750  0.00  0.00    +0.061 A 
ATOM     17 BR   LIG    1        2.688   1.275  -3.394  0.00  0.00    -0.046 Br
ATOM     18  C   LIG    1        2.345   0.101  -0.819  0.00  0.00    +0.145 A 
ATOM     19  C   LIG    1        1.692  -0.117   0.387  0.00  0.00    +0.061 A 
ATOM     20 BR   LIG    1        2.428  -1.306   1.660  0.00  0.00    -0.046 Br
ATOM     21  C   LIG    1        0.504   0.537   0.656  0.00  0.00    +0.023 A 
BRANCH  18  22
ATOM     22  O   LIG    1        3.513  -0.540  -1.086  0.00  0.00    -0.505 OA
ATOM     23  H   LIG    1        3.402  -1.393  -1.527  0.00  0.00    +0.292 HD
ENDBRANCH  18  22
ENDBRANCH   2  14
TORSDOF 4
