REMARK  Name = ZINC01760643
REMARK                            x       y       z     vdW  Elec       q    Type
REMARK                         _______ _______ _______ _____ _____    ______ ____
ROOT
ATOM      1  C   LIG    1       -0.018   1.503   0.010  0.00  0.00    +0.062 C 
ATOM      2  C   LIG    1        0.002  -0.004   0.002  0.00  0.00    +0.025 C 
ATOM      3  C   LIG    1       -1.193  -0.744   0.004  0.00  0.00    +0.060 A 
ATOM      4  C   LIG    1       -1.167  -2.148   0.214  0.00  0.00    -0.012 A 
ATOM      5  C   LIG    1        0.127  -2.885   0.445  0.00  0.00    +0.056 C 
ATOM      6  C   LIG    1        1.248  -2.111  -0.256  0.00  0.00    +0.106 C 
ATOM      7  C   LIG    1       -2.464  -2.578   0.162  0.00  0.00    +0.007 A 
ATOM      8  C   LIG    1       -3.088  -3.837   0.287  0.00  0.00    +0.056 A 
ATOM      9  C   LIG    1       -4.452  -3.861   0.171  0.00  0.00    +0.121 A 
ATOM     10  C   LIG    1       -5.219  -2.717  -0.059  0.00  0.00    +0.047 A 
ATOM     11  C   LIG    1       -4.683  -1.469  -0.190  0.00  0.00    +0.030 A 
ATOM     12  C   LIG    1       -3.280  -1.362  -0.082  0.00  0.00    +0.047 A 
ATOM     13  N   LIG    1       -2.457  -0.336  -0.157  0.00  0.00    -0.353 N 
ATOM     14  H   LIG    1       -2.728   0.584  -0.306  0.00  0.00    +0.166 HD
ATOM     15  N   LIG    1        1.159  -0.678  -0.013  0.00  0.00    -0.345 N 
ATOM     16  H   LIG    1        1.980  -0.187   0.150  0.00  0.00    +0.146 HD
ENDROOT
BRANCH   9  17
ATOM     17  O   LIG    1       -5.091  -5.056   0.286  0.00  0.00    -0.495 OA
ATOM     18  C   LIG    1       -6.515  -5.046   0.160  0.00  0.00    +0.277 C 
ENDBRANCH   9  17
TORSDOF 1
