REMARK  Name = ZINC02039265
REMARK                            x       y       z     vdW  Elec       q    Type
REMARK                         _______ _______ _______ _____ _____    ______ ____
ROOT
ATOM      1  O   LIG    1       -0.069   5.201   0.029  0.00  0.00    -0.494 OA
ENDROOT
BRANCH   1   5
ATOM      2  C   LIG    1       -0.013   1.076   0.008  0.00  0.00    +0.000 A 
ATOM      3  C   LIG    1       -1.220   1.750   0.017  0.00  0.00    +0.004 A 
ATOM      4  C   LIG    1       -1.241   3.131   0.031  0.00  0.00    +0.045 A 
ATOM      5  C   LIG    1       -0.050   3.842   0.023  0.00  0.00    +0.120 A 
ATOM      6  C   LIG    1        1.160   3.163   0.007  0.00  0.00    +0.045 A 
ATOM      7  C   LIG    1        1.176   1.782   0.000  0.00  0.00    +0.004 A 
ENDBRANCH   1   5
BRANCH   1   8
ATOM      8  C   LIG    1       -1.350   5.832   0.045  0.00  0.00    +0.209 C 
BRANCH   8   9
ATOM      9  C   LIG    1       -1.171   7.351   0.050  0.00  0.00    -0.045 C 
BRANCH   9  10
ATOM     10  N   LIG    1       -0.522   7.763  -1.207  0.00  0.00    +0.380 N 
ATOM     11  H   LIG    1        0.405   7.326  -1.268  0.00  0.00    -0.090 HD
ATOM     12  H   LIG    1       -0.415   8.775  -1.230  0.00  0.00    -0.090 HD
ATOM     13  H   LIG    1       -1.083   7.463  -2.003  0.00  0.00    -0.090 HD
ENDBRANCH   9  10
ENDBRANCH   8   9
ENDBRANCH   1   8
TORSDOF 4
