REMARK  Name = ZINC01887705
REMARK                            x       y       z     vdW  Elec       q    Type
REMARK                         _______ _______ _______ _____ _____    ______ ____
ROOT
ATOM      1  C   LIG    1        7.096  -7.312   0.089  0.00  0.00    +0.044 C 
ATOM      2  C   LIG    1        5.826  -6.501   0.103  0.00  0.00    -0.047 A 
ATOM      3  C   LIG    1        5.897  -5.140   0.106  0.00  0.00    +0.014 A 
ATOM      4  C   LIG    1        4.717  -4.384   0.120  0.00  0.00    +0.010 A 
ATOM      5  C   LIG    1        3.463  -5.042   0.131  0.00  0.00    +0.072 A 
ATOM      6  N   LIG    1        2.331  -4.328   0.143  0.00  0.00    -0.253 NA
ATOM      7  C   LIG    1        2.339  -3.018   0.152  0.00  0.00    +0.135 A 
ATOM      8  C   LIG    1        3.531  -2.289   0.136  0.00  0.00    +0.061 A 
ATOM      9  C   LIG    1        3.429  -6.447   0.128  0.00  0.00    +0.032 A 
ATOM     10  C   LIG    1        4.750  -2.967   0.123  0.00  0.00    +0.015 A 
ATOM     11  C   LIG    1        4.595  -7.151   0.114  0.00  0.00    -0.045 A 
ATOM     12  C   LIG    1        4.551  -8.657   0.112  0.00  0.00    +0.044 C 
ENDROOT
BRANCH  10  13
ATOM     13  C   LIG    1        6.034  -2.232   0.112  0.00  0.00    +0.003 A 
ATOM     14  C   LIG    1        6.651  -1.882   1.314  0.00  0.00    +0.010 A 
ATOM     15  C   LIG    1        7.850  -1.201   1.297  0.00  0.00    +0.001 A 
ATOM     16  C   LIG    1        8.438  -0.855   0.093  0.00  0.00    +0.001 A 
ATOM     17  C   LIG    1        7.829  -1.194  -1.102  0.00  0.00    +0.020 A 
ATOM     18  C   LIG    1        6.631  -1.881  -1.100  0.00  0.00    +0.049 A 
ATOM     19 CL   LIG    1        5.868  -2.305  -2.601  0.00  0.00    -0.083 Cl
ENDBRANCH  10  13
BRANCH   8  20
ATOM     20  N   LIG    1        3.503  -0.892   0.140  0.00  0.00    -0.267 N 
ATOM     21  H   LIG    1        4.191  -0.394   0.609  0.00  0.00    +0.156 HD
ATOM     22  C   LIG    1        2.520  -0.236  -0.509  0.00  0.00    +0.308 C 
ATOM     23  N   LIG    1        2.542   1.109  -0.582  0.00  0.00    -0.267 N 
ATOM     24  H   LIG    1        3.297   1.602  -0.225  0.00  0.00    +0.156 HD
ATOM     25  O   LIG    1        1.614  -0.859  -1.028  0.00  0.00    -0.252 OA
BRANCH  23  26
ATOM     26  C   LIG    1        1.473   1.797  -1.174  0.00  0.00    +0.070 A 
ATOM     27  C   LIG    1        0.802   1.240  -2.253  0.00  0.00    +0.029 A 
ATOM     28  C   LIG    1       -0.247   1.921  -2.839  0.00  0.00    +0.040 A 
ATOM     29  C   LIG    1       -0.637   3.154  -2.345  0.00  0.00    +0.126 A 
ATOM     30  F   LIG    1       -1.666   3.816  -2.917  0.00  0.00    -0.205 F 
ATOM     31  C   LIG    1        0.030   3.713  -1.268  0.00  0.00    +0.078 A 
ATOM     32  C   LIG    1        1.085   3.037  -0.681  0.00  0.00    +0.147 A 
ATOM     33  F   LIG    1        1.737   3.582   0.369  0.00  0.00    -0.203 F 
ENDBRANCH  23  26
ENDBRANCH   8  20
TORSDOF 3
