REMARK  Name = ZINC01912275
REMARK                            x       y       z     vdW  Elec       q    Type
REMARK                         _______ _______ _______ _____ _____    ______ ____
ROOT
ATOM      1  C   LIG    1       -1.890  -2.001  -3.032  0.00  0.00    +0.084 C 
ATOM      2  C   LIG    1       -1.707  -2.642  -1.681  0.00  0.00    +0.085 A 
ATOM      3  N   LIG    1       -1.391  -3.891  -1.478  0.00  0.00    -0.343 N 
ATOM      4  H   LIG    1       -1.226  -4.588  -2.214  0.00  0.00    +0.167 HD
ATOM      5  C   LIG    1       -1.316  -4.127  -0.154  0.00  0.00    +0.072 A 
ATOM      6  C   LIG    1       -1.600  -2.938   0.494  0.00  0.00    +0.074 A 
ATOM      7  N   LIG    1       -1.841  -2.011  -0.493  0.00  0.00    -0.329 N 
ENDROOT
BRANCH   5   8
ATOM      8  C   LIG    1       -0.989  -5.420   0.489  0.00  0.00    +0.000 A 
ATOM      9  C   LIG    1       -0.249  -5.447   1.671  0.00  0.00    +0.010 A 
ATOM     10  C   LIG    1        0.048  -6.655   2.268  0.00  0.00    +0.001 A 
ATOM     11  C   LIG    1       -0.376  -7.838   1.691  0.00  0.00    +0.000 A 
ATOM     12  C   LIG    1       -1.107  -7.818   0.516  0.00  0.00    +0.001 A 
ATOM     13  C   LIG    1       -1.415  -6.617  -0.087  0.00  0.00    +0.010 A 
ENDBRANCH   5   8
BRANCH   6  14
ATOM     14  C   LIG    1       -1.637  -2.710   1.953  0.00  0.00    +0.001 A 
ATOM     15  C   LIG    1       -2.446  -3.506   2.767  0.00  0.00    +0.010 A 
ATOM     16  C   LIG    1       -2.471  -3.291   4.129  0.00  0.00    +0.001 A 
ATOM     17  C   LIG    1       -1.706  -2.283   4.688  0.00  0.00    +0.000 A 
ATOM     18  C   LIG    1       -0.906  -1.487   3.886  0.00  0.00    +0.001 A 
ATOM     19  C   LIG    1       -0.867  -1.695   2.523  0.00  0.00    +0.010 A 
ENDBRANCH   6  14
BRANCH   7  20
ATOM     20  C   LIG    1       -2.186  -0.602  -0.294  0.00  0.00    +0.123 C 
BRANCH  20  21
ATOM     21  C   LIG    1       -0.908   0.239  -0.278  0.00  0.00    +0.022 C 
BRANCH  21  22
ATOM     22  C   LIG    1       -1.273   1.721  -0.175  0.00  0.00    +0.002 C 
BRANCH  22  23
ATOM     23  C   LIG    1        0.005   2.562  -0.159  0.00  0.00    +0.002 C 
BRANCH  23  24
ATOM     24  C   LIG    1       -0.360   4.044  -0.055  0.00  0.00    +0.019 C 
BRANCH  24  25
ATOM     25  C   LIG    1        0.918   4.884  -0.039  0.00  0.00    +0.107 C 
BRANCH  25  26
ATOM     26  N   LIG    1        0.568   6.303   0.060  0.00  0.00    -0.281 N 
ATOM     27  H   LIG    1       -0.363   6.572   0.103  0.00  0.00    +0.152 HD
ATOM     28  C   LIG    1        1.540   7.237   0.090  0.00  0.00    +0.406 C 
ATOM     29  O   LIG    1        2.707   6.901   0.036  0.00  0.00    -0.226 OA
BRANCH  28  30
ATOM     30  O   LIG    1        1.218   8.541   0.181  0.00  0.00    -0.409 OA
BRANCH  30  31
ATOM     31  C   LIG    1        2.245   9.423   0.312  0.00  0.00    +0.168 A 
ATOM     32  C   LIG    1        2.652   9.834   1.572  0.00  0.00    +0.049 A 
ATOM     33  C   LIG    1        3.700  10.725   1.703  0.00  0.00    +0.004 A 
ATOM     34  C   LIG    1        4.336  11.217   0.578  0.00  0.00    +0.003 A 
ATOM     35  C   LIG    1        3.930  10.814  -0.681  0.00  0.00    +0.042 A 
ATOM     36  C   LIG    1        2.886   9.917  -0.817  0.00  0.00    +0.166 A 
ATOM     37  F   LIG    1        2.489   9.524  -2.047  0.00  0.00    -0.202 F 
ENDBRANCH  30  31
ENDBRANCH  28  30
ENDBRANCH  25  26
ENDBRANCH  24  25
ENDBRANCH  23  24
ENDBRANCH  22  23
ENDBRANCH  21  22
ENDBRANCH  20  21
ENDBRANCH   7  20
TORSDOF 11
