REMARK  Name = ZINC01851149
REMARK                            x       y       z     vdW  Elec       q    Type
REMARK                         _______ _______ _______ _____ _____    ______ ____
ROOT
ATOM      1  C   LIG    1        7.761   2.334  -0.070  0.00  0.00    -0.079 C 
ENDROOT
BRANCH   1   5
ATOM      2  N   LIG    1        3.582   2.126  -0.021  0.00  0.00    -0.332 N 
ATOM      3  C   LIG    1        4.217   2.525  -1.287  0.00  0.00    +0.086 C 
ATOM      4  C   LIG    1        5.687   2.097  -1.249  0.00  0.00    -0.060 C 
ATOM      5  N   LIG    1        6.327   2.652  -0.050  0.00  0.00    +0.382 N 
ATOM      6  H   LIG    1        6.207   3.654  -0.039  0.00  0.00    -0.082 HD
ATOM      7  C   LIG    1        5.717   2.075   1.155  0.00  0.00    -0.060 C 
ATOM      8  C   LIG    1        4.244   2.507   1.236  0.00  0.00    +0.086 C 
BRANCH   2  11
ATOM      9  C   LIG    1       -0.017   1.378   0.010  0.00  0.00    +0.003 A 
ATOM     10  C   LIG    1        1.169   2.087   0.002  0.00  0.00    +0.025 A 
ATOM     11  C   LIG    1        2.382   1.411  -0.013  0.00  0.00    +0.050 A 
ATOM     12  C   LIG    1        2.399   0.021  -0.021  0.00  0.00    +0.080 A 
ATOM     13 CL   LIG    1        3.912  -0.830  -0.040  0.00  0.00    -0.080 Cl
ATOM     14  C   LIG    1        1.208  -0.683  -0.013  0.00  0.00    +0.061 A 
ATOM     15 CL   LIG    1        1.227  -2.419  -0.023  0.00  0.00    -0.082 Cl
ATOM     16  C   LIG    1        0.002  -0.004   0.002  0.00  0.00    +0.021 A 
ENDBRANCH   2  11
ENDBRANCH   1   5
BRANCH   1  17
ATOM     17  C   LIG    1        8.451   3.016   1.113  0.00  0.00    -0.015 C 
BRANCH  17  18
ATOM     18  C   LIG    1        9.945   2.685   1.091  0.00  0.00    +0.039 C 
BRANCH  18  19
ATOM     19  C   LIG    1       10.636   3.367   2.274  0.00  0.00    +0.229 C 
BRANCH  19  20
ATOM     20  O   LIG    1       12.030   3.057   2.255  0.00  0.00    -0.492 OA
BRANCH  20  21
ATOM     21  C   LIG    1       12.794   3.589   3.245  0.00  0.00    +0.122 A 
ATOM     22  C   LIG    1       12.211   4.388   4.219  0.00  0.00    +0.046 A 
ATOM     23  C   LIG    1       12.986   4.929   5.226  0.00  0.00    +0.009 A 
ATOM     24  C   LIG    1       14.344   4.678   5.267  0.00  0.00    -0.025 A 
ATOM     25  C   LIG    1       14.933   3.879   4.295  0.00  0.00    +0.040 A 
ATOM     26  N   LIG    1       16.307   3.625   4.340  0.00  0.00    -0.285 N 
ATOM     27  H   LIG    1       16.765   3.307   3.545  0.00  0.00    +0.155 HD
ATOM     28  C   LIG    1       17.000   3.818   5.477  0.00  0.00    +0.218 C 
ATOM     29  C   LIG    1       16.311   4.293   6.728  0.00  0.00    +0.101 C 
ATOM     30  O   LIG    1       18.195   3.607   5.495  0.00  0.00    -0.275 OA
ATOM     31  C   LIG    1       15.190   5.268   6.365  0.00  0.00    +0.046 C 
ATOM     32  C   LIG    1       14.155   3.329   3.286  0.00  0.00    +0.069 A 
ENDBRANCH  20  21
ENDBRANCH  19  20
ENDBRANCH  18  19
ENDBRANCH  17  18
ENDBRANCH   1  17
TORSDOF 7
