REMARK  Name = ZINC01700208
REMARK                            x       y       z     vdW  Elec       q    Type
REMARK                         _______ _______ _______ _____ _____    ______ ____
ROOT
ATOM      1  C   LIG    1       -0.017   1.381   0.010  0.00  0.00    +0.001 A 
ATOM      2  C   LIG    1        1.163   2.101   0.002  0.00  0.00    +0.001 A 
ATOM      3  C   LIG    1        2.385   1.446  -0.013  0.00  0.00    +0.012 A 
ATOM      4  C   LIG    1        2.421   0.057  -0.021  0.00  0.00    +0.033 A 
ATOM      5  C   LIG    1        1.221  -0.682  -0.013  0.00  0.00    -0.014 A 
ATOM      6  C   LIG    1        1.258  -2.149  -0.022  0.00  0.00    +0.012 C 
ATOM      7  C   LIG    1        2.419  -2.830  -0.038  0.00  0.00    +0.055 C 
ATOM      8  C   LIG    1        3.669  -2.167  -0.047  0.00  0.00    +0.226 C 
ATOM      9  O   LIG    1        4.702  -2.807  -0.061  0.00  0.00    -0.284 OA
ATOM     10  C   LIG    1        3.708  -0.670  -0.038  0.00  0.00    +0.233 C 
ATOM     11  O   LIG    1        4.763  -0.072  -0.046  0.00  0.00    -0.283 OA
ATOM     12  C   LIG    1        0.002  -0.004   0.002  0.00  0.00    +0.008 A 
ENDROOT
TORSDOF 0
