REMARK  Name = ZINC02007682
REMARK                            x       y       z     vdW  Elec       q    Type
REMARK                         _______ _______ _______ _____ _____    ______ ____
ROOT
ATOM      1  C   LIG    1        2.295   1.178   0.102  0.00  0.00    +0.056 C 
ENDROOT
BRANCH   1   2
ATOM      2  C   LIG    1        2.199   0.205   1.249  0.00  0.00    -0.033 A 
ATOM      3  C   LIG    1        1.111  -0.643   1.346  0.00  0.00    +0.004 A 
ATOM      4  C   LIG    1        1.025  -1.539   2.395  0.00  0.00    +0.000 A 
ATOM      5  C   LIG    1        2.021  -1.580   3.353  0.00  0.00    +0.000 A 
ATOM      6  C   LIG    1        3.106  -0.728   3.258  0.00  0.00    +0.000 A 
ATOM      7  C   LIG    1        3.195   0.164   2.206  0.00  0.00    +0.004 A 
ENDBRANCH   1   2
BRANCH   1   8
ATOM      8  C   LIG    1        1.105   2.102   0.125  0.00  0.00    -0.033 A 
ATOM      9  C   LIG    1       -0.160   1.606  -0.130  0.00  0.00    +0.004 A 
ATOM     10  C   LIG    1       -1.251   2.454  -0.114  0.00  0.00    +0.000 A 
ATOM     11  C   LIG    1       -1.079   3.797   0.167  0.00  0.00    +0.000 A 
ATOM     12  C   LIG    1        0.185   4.292   0.424  0.00  0.00    +0.000 A 
ATOM     13  C   LIG    1        1.277   3.445   0.403  0.00  0.00    +0.004 A 
ENDBRANCH   1   8
BRANCH   1  14
ATOM     14  C   LIG    1        3.580   1.998   0.236  0.00  0.00    +0.191 C 
BRANCH  14  16
ATOM     15  C   LIG    1        5.056   3.670  -0.890  0.00  0.00    +0.007 C 
ATOM     16  C   LIG    1        3.728   2.916  -0.979  0.00  0.00    +0.042 C 
ENDBRANCH  14  16
BRANCH  14  17
ATOM     17  O   LIG    1        3.518   2.801   1.444  0.00  0.00    -0.460 OA
BRANCH  17  18
ATOM     18  C   LIG    1        4.682   3.078   2.052  0.00  0.00    +0.304 C 
ATOM     19  C   LIG    1        4.696   3.906   3.311  0.00  0.00    +0.136 C 
ATOM     20  O   LIG    1        5.719   2.665   1.589  0.00  0.00    -0.251 OA
ENDBRANCH  17  18
ENDBRANCH  14  17
ENDBRANCH   1  14
BRANCH   1  21
ATOM     21  C   LIG    1        2.317   0.408  -1.220  0.00  0.00    +0.004 C 
BRANCH  21  22
ATOM     22  C   LIG    1        3.598  -0.425  -1.304  0.00  0.00    -0.071 C 
ATOM     23  C   LIG    1        3.706  -1.056  -2.693  0.00  0.00    -0.013 C 
BRANCH  22  24
ATOM     24  N   LIG    1        3.555  -1.472  -0.261  0.00  0.00    +0.378 N 
ATOM     25  H   LIG    1        3.347  -1.033   0.644  0.00  0.00    -0.082 HD
ATOM     26  C   LIG    1        4.864  -2.153  -0.174  0.00  0.00    -0.096 C 
ATOM     27  C   LIG    1        2.494  -2.453  -0.573  0.00  0.00    -0.096 C 
ENDBRANCH  22  24
ENDBRANCH  21  22
ENDBRANCH   1  21
TORSDOF 9
