REMARK  Name = ZINC01680023
REMARK                            x       y       z     vdW  Elec       q    Type
REMARK                         _______ _______ _______ _____ _____    ______ ____
ROOT
ATOM      1  C   LIG    1       -3.655   3.004   0.037  0.00  0.00    +0.007 A 
ATOM      2  C   LIG    1       -3.639   1.622   0.029  0.00  0.00    +0.047 A 
ATOM      3  C   LIG    1       -2.432   0.941   0.019  0.00  0.00    +0.141 A 
ATOM      4  C   LIG    1       -1.235   1.651   0.017  0.00  0.00    +0.109 A 
ATOM      5  C   LIG    1       -1.257   3.042   0.030  0.00  0.00    +0.141 A 
ATOM      6  C   LIG    1       -2.469   3.714   0.035  0.00  0.00    +0.047 A 
ENDROOT
BRANCH   4   7
ATOM      7  N   LIG    1       -0.011   0.966   0.007  0.00  0.00    -0.352 N 
ATOM      8  H   LIG    1        0.822   1.462   0.002  0.00  0.00    +0.143 HD
ATOM      9  H   LIG    1        0.002  -0.004   0.002  0.00  0.00    +0.143 HD
ENDBRANCH   4   7
BRANCH   3  10
ATOM     10  O   LIG    1       -2.417  -0.419   0.010  0.00  0.00    -0.505 OA
ATOM     11  H   LIG    1       -2.408  -0.818   0.891  0.00  0.00    +0.292 HD
ENDBRANCH   3  10
BRANCH   5  12
ATOM     12  O   LIG    1       -0.090   3.741   0.034  0.00  0.00    -0.505 OA
ATOM     13  H   LIG    1        0.245   3.951  -0.849  0.00  0.00    +0.292 HD
ENDBRANCH   5  12
TORSDOF 3
