REMARK  Name = ZINC01848463
REMARK                            x       y       z     vdW  Elec       q    Type
REMARK                         _______ _______ _______ _____ _____    ______ ____
ROOT
ATOM      1  N   LIG    1       -0.496  -2.239   1.419  0.00  0.00    -0.315 N 
ATOM      2  H   LIG    1       -0.127  -2.675   0.634  0.00  0.00    +0.149 HD
ATOM      3  C   LIG    1       -0.735  -0.913   1.402  0.00  0.00    +0.225 C 
ATOM      4  O   LIG    1       -1.196  -0.367   2.382  0.00  0.00    -0.275 OA
ENDROOT
BRANCH   1   5
ATOM      5  C   LIG    1       -0.791  -3.021   2.621  0.00  0.00    +0.102 C 
BRANCH   5   6
ATOM      6  C   LIG    1       -0.430  -4.488   2.377  0.00  0.00    +0.000 C 
BRANCH   6   7
ATOM      7  C   LIG    1       -0.739  -5.305   3.634  0.00  0.00    -0.077 C 
BRANCH   7   8
ATOM      8  N   LIG    1       -0.405  -6.721   3.375  0.00  0.00    +0.379 N 
ATOM      9  H   LIG    1       -0.863  -7.019   2.506  0.00  0.00    -0.082 HD
BRANCH   8  11
ATOM     10  C   LIG    1        1.774  -6.490   4.519  0.00  0.00    -0.017 C 
ATOM     11  C   LIG    1        1.058  -6.876   3.224  0.00  0.00    -0.082 C 
ENDBRANCH   8  11
BRANCH   8  12
ATOM     12  C   LIG    1       -0.890  -7.566   4.487  0.00  0.00    -0.082 C 
ATOM     13  C   LIG    1       -0.887  -9.027   4.032  0.00  0.00    -0.017 C 
ENDBRANCH   8  12
ENDBRANCH   7   8
ENDBRANCH   6   7
ENDBRANCH   5   6
ENDBRANCH   1   5
BRANCH   3  14
ATOM     14  C   LIG    1       -0.431  -0.108   0.164  0.00  0.00    +0.135 C 
BRANCH  14  15
ATOM     15  C   LIG    1       -1.239  -0.639  -0.992  0.00  0.00    -0.031 A 
ATOM     16  C   LIG    1       -2.593  -0.874  -0.838  0.00  0.00    +0.005 A 
ATOM     17  C   LIG    1       -3.335  -1.357  -1.900  0.00  0.00    +0.000 A 
ATOM     18  C   LIG    1       -2.722  -1.613  -3.112  0.00  0.00    +0.000 A 
ATOM     19  C   LIG    1       -1.367  -1.383  -3.264  0.00  0.00    +0.000 A 
ATOM     20  C   LIG    1       -0.626  -0.896  -2.204  0.00  0.00    +0.005 A 
ENDBRANCH  14  15
BRANCH  14  21
ATOM     21  C   LIG    1       -0.787   1.337   0.405  0.00  0.00    -0.031 A 
ATOM     22  C   LIG    1       -2.075   1.679   0.770  0.00  0.00    +0.005 A 
ATOM     23  C   LIG    1       -2.401   3.004   0.995  0.00  0.00    +0.000 A 
ATOM     24  C   LIG    1       -1.440   3.987   0.845  0.00  0.00    +0.000 A 
ATOM     25  C   LIG    1       -0.153   3.644   0.474  0.00  0.00    +0.000 A 
ATOM     26  C   LIG    1        0.173   2.319   0.254  0.00  0.00    +0.005 A 
ENDBRANCH  14  21
ENDBRANCH   3  14
TORSDOF 9
