REMARK  Name = ZINC01721178
REMARK                            x       y       z     vdW  Elec       q    Type
REMARK                         _______ _______ _______ _____ _____    ______ ____
ROOT
ATOM      1  C   LIG    1        1.523  -4.054   2.464  0.00  0.00    -0.040 A 
ATOM      2  C   LIG    1        0.499  -4.762   3.064  0.00  0.00    +0.049 A 
ATOM      3  C   LIG    1        0.518  -6.148   3.052  0.00  0.00    +0.124 A 
ATOM      4  C   LIG    1        1.564  -6.829   2.441  0.00  0.00    +0.039 A 
ATOM      5  C   LIG    1        2.592  -6.118   1.846  0.00  0.00    +0.128 A 
ATOM      6  O   LIG    1        3.644  -6.738   1.251  0.00  0.00    -0.486 OA
ATOM      7  C   LIG    1        3.525  -8.127   0.938  0.00  0.00    +0.109 C 
ATOM      8  C   LIG    1        2.565  -8.309  -0.240  0.00  0.00    +0.055 C 
ATOM      9  C   LIG    1        4.899  -8.695   0.577  0.00  0.00    +0.055 C 
ATOM     10  C   LIG    1        2.974  -8.852   2.168  0.00  0.00    +0.044 C 
ATOM     11  C   LIG    1        2.908 -10.359   1.918  0.00  0.00    +0.035 C 
ATOM     12  C   LIG    1        2.095 -11.007   3.011  0.00  0.00    -0.027 C 
ATOM     13  C   LIG    1        1.318 -10.366   3.825  0.00  0.00    -0.076 C 
ATOM     14  C   LIG    1        0.590 -11.161   4.878  0.00  0.00    +0.039 C 
ATOM     15  C   LIG    1        1.099  -8.880   3.788  0.00  0.00    +0.039 C 
ATOM     16  C   LIG    1        1.555  -8.332   2.435  0.00  0.00    +0.037 C 
ATOM     17  C   LIG    1        2.562  -4.727   1.853  0.00  0.00    +0.049 A 
ENDROOT
BRANCH   3  18
ATOM     18  O   LIG    1       -0.490  -6.844   3.641  0.00  0.00    -0.506 OA
ATOM     19  H   LIG    1       -1.228  -7.045   3.048  0.00  0.00    +0.292 HD
ENDBRANCH   3  18
BRANCH   1  20
ATOM     20  C   LIG    1        1.503  -2.548   2.473  0.00  0.00    +0.035 C 
BRANCH  20  21
ATOM     21  C   LIG    1        0.763  -2.041   1.233  0.00  0.00    +0.005 C 
BRANCH  21  22
ATOM     22  C   LIG    1        0.742  -0.511   1.242  0.00  0.00    +0.000 C 
BRANCH  22  24
ATOM     23  C   LIG    1       -0.019   1.526   0.010  0.00  0.00    +0.004 C 
ATOM     24  C   LIG    1        0.002  -0.004   0.002  0.00  0.00    -0.003 C 
ENDBRANCH  22  24
ENDBRANCH  21  22
ENDBRANCH  20  21
ENDBRANCH   1  20
TORSDOF 5
