REMARK  Name = ZINC02320482
REMARK                            x       y       z     vdW  Elec       q    Type
REMARK                         _______ _______ _______ _____ _____    ______ ____
ROOT
ATOM      1  C   LIG    1        4.902  -2.655  -0.060  0.00  0.00    +0.258 A 
ATOM      2  N   LIG    1        6.103  -2.101  -0.063  0.00  0.00    -0.176 NA
ATOM      3  C   LIG    1        7.037  -3.054  -0.079  0.00  0.00    +0.243 A 
ATOM      4  N   LIG    1        6.457  -4.231  -0.086  0.00  0.00    -0.127 NA
ATOM      5  N   LIG    1        5.071  -4.008  -0.069  0.00  0.00    -0.195 N 
ENDROOT
BRANCH   5   6
ATOM      6  C   LIG    1        4.064  -4.981  -0.065  0.00  0.00    +0.069 A 
ATOM      7  C   LIG    1        2.884  -4.757   0.633  0.00  0.00    +0.028 A 
ATOM      8  C   LIG    1        1.892  -5.718   0.635  0.00  0.00    +0.002 A 
ATOM      9  C   LIG    1        2.073  -6.902  -0.056  0.00  0.00    +0.000 A 
ATOM     10  C   LIG    1        3.247  -7.128  -0.750  0.00  0.00    +0.002 A 
ATOM     11  C   LIG    1        4.240  -6.168  -0.762  0.00  0.00    +0.028 A 
ENDBRANCH   5   6
BRANCH   3  12
ATOM     12  N   LIG    1        8.417  -2.832  -0.086  0.00  0.00    -0.249 N 
ATOM     13  H   LIG    1        9.028  -3.585  -0.097  0.00  0.00    +0.158 HD
ATOM     14  C   LIG    1        8.897  -1.573  -0.077  0.00  0.00    +0.250 C 
ATOM     15  O   LIG    1        8.130  -0.630  -0.063  0.00  0.00    -0.270 OA
BRANCH  14  16
ATOM     16  C   LIG    1       10.357  -1.339  -0.084  0.00  0.00    +0.037 A 
ATOM     17  C   LIG    1       11.240  -2.420  -0.106  0.00  0.00    +0.013 A 
ATOM     18  C   LIG    1       12.601  -2.194  -0.113  0.00  0.00    +0.001 A 
ATOM     19  C   LIG    1       13.091  -0.900  -0.099  0.00  0.00    +0.000 A 
ATOM     20  C   LIG    1       12.221   0.175  -0.076  0.00  0.00    +0.001 A 
ATOM     21  C   LIG    1       10.857  -0.036  -0.075  0.00  0.00    +0.013 A 
ENDBRANCH  14  16
ENDBRANCH   3  12
BRANCH   1  23
ATOM     22  C   LIG    1        3.694  -0.683  -0.037  0.00  0.00    +0.223 C 
ATOM     23  N   LIG    1        3.715  -1.995  -0.045  0.00  0.00    -0.175 NA
BRANCH  22  27
ATOM     24  C   LIG    1       -0.017   1.380   0.010  0.00  0.00    +0.000 A 
ATOM     25  C   LIG    1        1.168   2.094   0.002  0.00  0.00    +0.001 A 
ATOM     26  C   LIG    1        2.377   1.431  -0.013  0.00  0.00    +0.013 A 
ATOM     27  C   LIG    1        2.404   0.034  -0.021  0.00  0.00    +0.036 A 
ATOM     28  C   LIG    1        1.204  -0.681  -0.013  0.00  0.00    +0.013 A 
ATOM     29  C   LIG    1        0.002  -0.004   0.002  0.00  0.00    +0.001 A 
ENDBRANCH  22  27
BRANCH  22  30
ATOM     30  O   LIG    1        4.853   0.012  -0.045  0.00  0.00    -0.492 OA
ATOM     31  H   LIG    1        4.838   0.949  -0.040  0.00  0.00    +0.294 HD
ENDBRANCH  22  30
ENDBRANCH   1  23
TORSDOF 6
