REMARK  Name = ZINC02041733
REMARK                            x       y       z     vdW  Elec       q    Type
REMARK                         _______ _______ _______ _____ _____    ______ ____
ROOT
ATOM      1  C   LIG    1       -1.412  -0.526   0.013  0.00  0.00    +0.006 A 
ATOM      2  C   LIG    1       -1.768  -1.313  -1.059  0.00  0.00    +0.008 A 
ATOM      3  C   LIG    1       -2.990  -1.929  -1.320  0.00  0.00    +0.001 A 
ATOM      4  C   LIG    1       -4.150  -1.908  -0.574  0.00  0.00    +0.004 A 
ATOM      5  C   LIG    1       -4.402  -1.264   0.634  0.00  0.00    +0.049 A 
ATOM      6  C   LIG    1       -3.546  -0.484   1.389  0.00  0.00    +0.164 A 
ATOM      7  C   LIG    1       -2.195  -0.150   1.119  0.00  0.00    +0.223 A 
ATOM      8  O   LIG    1       -1.642   0.559   1.949  0.00  0.00    -0.284 OA
ENDROOT
BRANCH   1  10
ATOM      9  C   LIG    1       -0.019   1.526   0.010  0.00  0.00    +0.012 C 
ATOM     10  C   LIG    1        0.002  -0.004   0.002  0.00  0.00    +0.017 C 
ATOM     11  C   LIG    1        0.742  -0.511   1.242  0.00  0.00    +0.012 C 
ENDBRANCH   1  10
BRANCH   6  12
ATOM     12  O   LIG    1       -4.063   0.023   2.534  0.00  0.00    -0.503 OA
ATOM     13  H   LIG    1       -4.951  -0.161   2.769  0.00  0.00    +0.292 HD
ENDBRANCH   6  12
TORSDOF 2
