REMARK  Name = ZINC02012157
REMARK                            x       y       z     vdW  Elec       q    Type
REMARK                         _______ _______ _______ _____ _____    ______ ____
ROOT
ATOM      1  C   LIG    1       -1.416  -2.035  -0.119  0.00  0.00    -0.024 A 
ATOM      2  C   LIG    1       -1.538  -2.737  -1.256  0.00  0.00    +0.087 A 
ATOM      3  N   LIG    1       -1.475  -4.077  -0.986  0.00  0.00    -0.360 N 
ATOM      4  C   LIG    1       -1.307  -4.274   0.368  0.00  0.00    +0.047 A 
ATOM      5  C   LIG    1       -1.186  -5.411   1.160  0.00  0.00    +0.030 A 
ATOM      6  C   LIG    1       -1.010  -5.287   2.520  0.00  0.00    +0.047 A 
ATOM      7  C   LIG    1       -0.964  -4.031   3.118  0.00  0.00    +0.118 A 
ATOM      8  C   LIG    1       -1.086  -2.890   2.350  0.00  0.00    +0.055 A 
ATOM      9  H   LIG    1       -1.538  -4.783  -1.649  0.00  0.00    +0.165 HD
ATOM     10  C   LIG    1       -1.257  -3.003   0.968  0.00  0.00    +0.006 A 
ENDROOT
BRANCH   7  11
ATOM     11  O   LIG    1       -0.797  -3.926   4.463  0.00  0.00    -0.507 OA
ATOM     12  H   LIG    1       -1.625  -3.916   4.963  0.00  0.00    +0.292 HD
ENDBRANCH   7  11
BRANCH   1  13
ATOM     13  C   LIG    1       -1.433  -0.534   0.013  0.00  0.00    +0.021 C 
BRANCH  13  15
ATOM     14  C   LIG    1       -0.019   1.526   0.010  0.00  0.00    -0.014 C 
ATOM     15  C   LIG    1        0.002  -0.004   0.002  0.00  0.00    -0.074 C 
BRANCH  15  16
ATOM     16  N   LIG    1        0.713  -0.491   1.192  0.00  0.00    +0.380 N 
ATOM     17  H   LIG    1        1.659  -0.141   1.185  0.00  0.00    -0.090 HD
ATOM     18  H   LIG    1        0.726  -1.500   1.187  0.00  0.00    -0.090 HD
ATOM     19  H   LIG    1        0.240  -0.165   2.022  0.00  0.00    -0.090 HD
ENDBRANCH  15  16
ENDBRANCH  13  15
ENDBRANCH   1  13
TORSDOF 4
