REMARK  Name = ZINC02262109
REMARK                            x       y       z     vdW  Elec       q    Type
REMARK                         _______ _______ _______ _____ _____    ______ ____
ROOT
ATOM      1  C   LIG    1       -3.019   4.162  -1.363  0.00  0.00    +0.229 C 
ATOM      2  N   LIG    1       -4.226   4.711  -1.604  0.00  0.00    -0.238 N 
ATOM      3  C   LIG    1       -5.054   5.039  -0.523  0.00  0.00    +0.055 A 
ATOM      4  C   LIG    1       -5.099   4.230   0.598  0.00  0.00    +0.025 A 
ATOM      5  C   LIG    1       -5.917   4.565   1.662  0.00  0.00    +0.002 A 
ATOM      6  C   LIG    1       -6.691   5.709   1.617  0.00  0.00    +0.001 A 
ATOM      7  C   LIG    1       -6.651   6.531   0.503  0.00  0.00    +0.017 A 
ATOM      8  C   LIG    1       -5.834   6.201  -0.562  0.00  0.00    +0.035 A 
ATOM      9  S   LIG    1       -5.761   7.229  -1.996  0.00  0.00    -0.086 S 
ATOM     10  C   LIG    1       -5.350   6.075  -3.268  0.00  0.00    +0.035 A 
ATOM     11  C   LIG    1       -5.741   6.295  -4.576  0.00  0.00    +0.017 A 
ATOM     12  C   LIG    1       -5.408   5.376  -5.555  0.00  0.00    +0.001 A 
ATOM     13  C   LIG    1       -4.686   4.244  -5.226  0.00  0.00    +0.002 A 
ATOM     14  C   LIG    1       -4.292   4.019  -3.919  0.00  0.00    +0.025 A 
ATOM     15  C   LIG    1       -4.620   4.933  -2.930  0.00  0.00    +0.055 A 
ATOM     16  O   LIG    1       -2.260   3.936  -2.282  0.00  0.00    -0.275 OA
ENDROOT
BRANCH   1  17
ATOM     17  C   LIG    1       -2.612   3.829   0.050  0.00  0.00    +0.132 C 
BRANCH  17  26
ATOM     18  C   LIG    1        1.368   6.995   0.633  0.00  0.00    +0.001 A 
ATOM     19  C   LIG    1       -0.015   7.159   0.574  0.00  0.00    +0.001 A 
ATOM     20  C   LIG    1       -0.841   6.090   0.406  0.00  0.00    +0.009 A 
ATOM     21  C   LIG    1       -0.294   4.801   0.291  0.00  0.00    -0.014 A 
ATOM     22  C   LIG    1        1.112   4.634   0.352  0.00  0.00    -0.018 A 
ATOM     23  C   LIG    1        1.659   3.345   0.236  0.00  0.00    +0.008 A 
ATOM     24  C   LIG    1        0.833   2.276   0.068  0.00  0.00    +0.001 A 
ATOM     25  C   LIG    1       -0.549   2.440   0.003  0.00  0.00    +0.005 A 
ATOM     26  C   LIG    1       -1.114   3.673   0.117  0.00  0.00    -0.031 A 
ATOM     27  C   LIG    1        1.933   5.762   0.526  0.00  0.00    +0.008 A 
ENDBRANCH  17  26
ENDBRANCH   1  17
TORSDOF 2
