REMARK  Name = ZINC01734479
REMARK                            x       y       z     vdW  Elec       q    Type
REMARK                         _______ _______ _______ _____ _____    ______ ____
ROOT
ATOM      1  N   LIG    1       -0.728   1.551   1.215  0.00  0.00    +0.382 N 
ATOM      2  H   LIG    1       -1.692   1.200   1.187  0.00  0.00    -0.082 HD
ATOM      3  C   LIG    1       -0.754   3.029   1.247  0.00  0.00    -0.060 C 
ATOM      4  C   LIG    1       -1.495   3.536   0.008  0.00  0.00    +0.086 C 
ATOM      5  N   LIG    1       -0.806   3.062  -1.200  0.00  0.00    -0.333 N 
ATOM      6  C   LIG    1       -0.754   1.593  -1.231  0.00  0.00    +0.086 C 
ATOM      7  C   LIG    1       -0.013   1.086   0.008  0.00  0.00    -0.060 C 
ENDROOT
BRANCH   5   8
ATOM      8  C   LIG    1       -1.413   3.565  -2.353  0.00  0.00    +0.030 A 
ATOM      9  C   LIG    1       -1.865   2.696  -3.338  0.00  0.00    +0.023 A 
ATOM     10  C   LIG    1       -2.469   3.197  -4.475  0.00  0.00    +0.002 A 
ATOM     11  C   LIG    1       -2.615   4.562  -4.637  0.00  0.00    +0.000 A 
ATOM     12  C   LIG    1       -2.161   5.431  -3.661  0.00  0.00    +0.002 A 
ATOM     13  C   LIG    1       -1.561   4.936  -2.520  0.00  0.00    +0.023 A 
ENDBRANCH   5   8
BRANCH   1  14
ATOM     14  C   LIG    1       -0.062   1.031   2.429  0.00  0.00    -0.079 C 
BRANCH  14  16
ATOM     15  C   LIG    1        0.025   1.183   4.921  0.00  0.00    +0.002 C 
ATOM     16  C   LIG    1       -0.640   1.734   3.658  0.00  0.00    -0.022 C 
ENDBRANCH  14  16
ENDBRANCH   1  14
TORSDOF 3
