REMARK  Name = ZINC01696214
REMARK                            x       y       z     vdW  Elec       q    Type
REMARK                         _______ _______ _______ _____ _____    ______ ____
ROOT
ATOM      1  O   LIG    1       -2.406  -2.944   0.145  0.00  0.00    -0.466 OA
ENDROOT
BRANCH   1   2
ATOM      2  C   LIG    1       -1.163  -2.437   0.166  0.00  0.00    +0.307 C 
ATOM      3  O   LIG    1       -0.208  -3.178   0.151  0.00  0.00    -0.251 OA
BRANCH   2   4
ATOM      4  C   LIG    1       -0.958  -0.945   0.209  0.00  0.00    +0.120 C 
BRANCH   4   6
ATOM      5  C   LIG    1        0.748   0.879   0.270  0.00  0.00    +0.004 C 
ATOM      6  C   LIG    1        0.540  -0.636   0.226  0.00  0.00    +0.008 C 
ENDBRANCH   4   6
ENDBRANCH   2   4
ENDBRANCH   1   2
BRANCH   1   7
ATOM      7  C   LIG    1       -2.526  -4.367   0.104  0.00  0.00    +0.214 C 
BRANCH   7   8
ATOM      8  C   LIG    1       -4.006  -4.754   0.085  0.00  0.00    -0.035 C 
BRANCH   8   9
ATOM      9  N   LIG    1       -4.612  -4.308  -1.177  0.00  0.00    +0.377 N 
ATOM     10  C   LIG    1       -4.606  -2.840  -1.231  0.00  0.00    -0.093 C 
ATOM     11  C   LIG    1       -5.996  -4.795  -1.254  0.00  0.00    -0.093 C 
ATOM     12  C   LIG    1       -3.841  -4.843  -2.307  0.00  0.00    -0.093 C 
ENDBRANCH   8   9
ENDBRANCH   7   8
ENDBRANCH   1   7
TORSDOF 6
