REMARK  Name = ZINC01849393
REMARK                            x       y       z     vdW  Elec       q    Type
REMARK                         _______ _______ _______ _____ _____    ______ ____
ROOT
ATOM      1  C   LIG    1        6.346  -0.168  -2.937  0.00  0.00    +0.121 A 
ATOM      2  C   LIG    1        6.940   1.005  -2.487  0.00  0.00    +0.046 A 
ATOM      3  C   LIG    1        8.265   1.260  -2.766  0.00  0.00    +0.015 A 
ATOM      4  C   LIG    1        9.012   0.336  -3.502  0.00  0.00    +0.018 A 
ATOM      5  C   LIG    1        8.411  -0.842  -3.952  0.00  0.00    +0.015 A 
ATOM      6  C   LIG    1        7.087  -1.091  -3.664  0.00  0.00    +0.046 A 
ENDROOT
BRANCH   4   7
ATOM      7  C   LIG    1       10.432   0.605  -3.804  0.00  0.00    +0.144 A 
ATOM      8  N   LIG    1       11.290  -0.376  -3.689  0.00  0.00    -0.229 NA
ATOM      9  C   LIG    1       12.602  -0.203  -3.949  0.00  0.00    +0.079 A 
ATOM     10  C   LIG    1       13.515  -1.255  -3.825  0.00  0.00    +0.032 A 
ATOM     11  C   LIG    1       14.837  -1.044  -4.097  0.00  0.00    +0.048 A 
ATOM     12  C   LIG    1       15.294   0.209  -4.497  0.00  0.00    +0.121 A 
ATOM     13  C   LIG    1       14.414   1.268  -4.628  0.00  0.00    +0.061 A 
ATOM     14  C   LIG    1       13.062   1.070  -4.355  0.00  0.00    +0.068 A 
ATOM     15  C   LIG    1       12.080   2.157  -4.478  0.00  0.00    +0.262 A 
ATOM     16  O   LIG    1       12.415   3.275  -4.823  0.00  0.00    -0.267 OA
ATOM     17  N   LIG    1       10.788   1.867  -4.196  0.00  0.00    -0.295 N 
ATOM     18  C   LIG    1        9.767   2.911  -4.306  0.00  0.00    +0.154 C 
BRANCH  12  19
ATOM     19  O   LIG    1       16.615   0.393  -4.762  0.00  0.00    -0.495 OA
ATOM     20  C   LIG    1       17.471  -0.740  -4.608  0.00  0.00    +0.277 C 
ENDBRANCH  12  19
ENDBRANCH   4   7
BRANCH   1  21
ATOM     21  O   LIG    1        5.040  -0.414  -2.659  0.00  0.00    -0.489 OA
BRANCH  21  22
ATOM     22  C   LIG    1        4.338   0.577  -1.907  0.00  0.00    +0.258 C 
BRANCH  22  23
ATOM     23  C   LIG    1        2.891   0.127  -1.696  0.00  0.00    +0.135 C 
BRANCH  23  24
ATOM     24  O   LIG    1        2.222   0.064  -2.957  0.00  0.00    -0.390 OA
ATOM     25  H   LIG    1        2.192   0.908  -3.428  0.00  0.00    +0.210 HD
ENDBRANCH  23  24
BRANCH  23  26
ATOM     26  C   LIG    1        2.174   1.127  -0.786  0.00  0.00    -0.047 C 
BRANCH  26  27
ATOM     27  N   LIG    1        0.823   0.634  -0.486  0.00  0.00    +0.384 N 
ATOM     28  H   LIG    1        0.305   0.528  -1.345  0.00  0.00    -0.085 HD
ATOM     29  H   LIG    1        0.887  -0.259  -0.019  0.00  0.00    -0.085 HD
BRANCH  27  31
ATOM     30  C   LIG    1        0.037   2.947  -0.320  0.00  0.00    -0.011 C 
ATOM     31  C   LIG    1        0.134   1.594   0.387  0.00  0.00    -0.077 C 
ATOM     32  C   LIG    1       -1.272   1.080   0.700  0.00  0.00    -0.011 C 
ATOM     33  C   LIG    1        0.920   1.754   1.690  0.00  0.00    -0.011 C 
ENDBRANCH  27  31
ENDBRANCH  26  27
ENDBRANCH  23  26
ENDBRANCH  22  23
ENDBRANCH  21  22
ENDBRANCH   1  21
TORSDOF 9
