REMARK  Name = ZINC01883103
REMARK                            x       y       z     vdW  Elec       q    Type
REMARK                         _______ _______ _______ _____ _____    ______ ____
ROOT
ATOM      1  C   LIG    1        3.115   0.434  -5.493  0.00  0.00    +0.204 C 
ENDROOT
BRANCH   1   2
ATOM      2  N   LIG    1        3.559   1.581  -6.289  0.00  0.00    -0.306 N 
ATOM      3  C   LIG    1        2.829   2.192  -7.258  0.00  0.00    +0.069 A 
ATOM      4  C   LIG    1        1.552   1.972  -7.779  0.00  0.00    +0.028 A 
ATOM      5  C   LIG    1        1.075   2.781  -8.787  0.00  0.00    +0.002 A 
ATOM      6  C   LIG    1        1.854   3.814  -9.288  0.00  0.00    +0.002 A 
ATOM      7  C   LIG    1        3.118   4.044  -8.784  0.00  0.00    +0.028 A 
ATOM      8  C   LIG    1        3.613   3.239  -7.769  0.00  0.00    +0.068 A 
ATOM      9  N   LIG    1        4.806   3.206  -7.065  0.00  0.00    -0.309 N 
ATOM     10  C   LIG    1        4.719   2.178  -6.170  0.00  0.00    +0.175 A 
BRANCH  10  11
ATOM     11  N   LIG    1        5.707   1.820  -5.277  0.00  0.00    -0.330 N 
ATOM     12  H   LIG    1        6.541   2.316  -5.252  0.00  0.00    +0.145 HD
ATOM     13  H   LIG    1        5.568   1.073  -4.674  0.00  0.00    +0.145 HD
ENDBRANCH  10  11
BRANCH   9  14
ATOM     14  C   LIG    1        5.946   4.108  -7.244  0.00  0.00    +0.160 C 
BRANCH  14  15
ATOM     15  C   LIG    1        5.790   5.301  -6.337  0.00  0.00    -0.028 A 
ATOM     16  C   LIG    1        5.119   6.425  -6.782  0.00  0.00    +0.005 A 
ATOM     17  C   LIG    1        4.976   7.519  -5.949  0.00  0.00    +0.000 A 
ATOM     18  C   LIG    1        5.503   7.489  -4.671  0.00  0.00    +0.000 A 
ATOM     19  C   LIG    1        6.173   6.365  -4.226  0.00  0.00    +0.000 A 
ATOM     20  C   LIG    1        6.312   5.269  -5.057  0.00  0.00    +0.005 A 
ENDBRANCH  14  15
ENDBRANCH   9  14
ENDBRANCH   1   2
BRANCH   1  21
ATOM     21  C   LIG    1        2.410   0.925  -4.255  0.00  0.00    +0.183 C 
ATOM     22  O   LIG    1        2.291   2.115  -4.056  0.00  0.00    -0.290 OA
BRANCH  21  25
ATOM     23  C   LIG    1        0.707  -0.490  -1.238  0.00  0.00    +0.000 A 
ATOM     24  C   LIG    1        1.212   0.414  -2.137  0.00  0.00    +0.019 A 
ATOM     25  C   LIG    1        1.868  -0.039  -3.288  0.00  0.00    +0.020 A 
ATOM     26  C   LIG    1        2.004  -1.414  -3.515  0.00  0.00    +0.019 A 
ATOM     27  C   LIG    1        1.496  -2.310  -2.610  0.00  0.00    +0.000 A 
ATOM     28  C   LIG    1        0.850  -1.855  -1.466  0.00  0.00    +0.124 A 
BRANCH  23  30
ATOM     29  C   LIG    1       -0.019   1.526   0.010  0.00  0.00    +0.015 C 
ATOM     30  C   LIG    1        0.002  -0.004   0.002  0.00  0.00    -0.009 C 
ATOM     31  C   LIG    1       -1.433  -0.534   0.013  0.00  0.00    +0.015 C 
ATOM     32  C   LIG    1        0.742  -0.511   1.242  0.00  0.00    +0.015 C 
ENDBRANCH  23  30
BRANCH  27  33
ATOM     33  C   LIG    1        1.642  -3.790  -2.853  0.00  0.00    -0.009 C 
ATOM     34  C   LIG    1        0.256  -4.433  -2.935  0.00  0.00    +0.015 C 
ATOM     35  C   LIG    1        2.429  -4.420  -1.703  0.00  0.00    +0.015 C 
ATOM     36  C   LIG    1        2.389  -4.019  -4.168  0.00  0.00    +0.015 C 
ENDBRANCH  27  33
BRANCH  28  37
ATOM     37  O   LIG    1        0.354  -2.745  -0.570  0.00  0.00    -0.506 OA
ATOM     38  H   LIG    1       -0.559  -3.011  -0.745  0.00  0.00    +0.292 HD
ENDBRANCH  28  37
ENDBRANCH  21  25
ENDBRANCH   1  21
TORSDOF 9
