REMARK  Name = ZINC01920031
REMARK                            x       y       z     vdW  Elec       q    Type
REMARK                         _______ _______ _______ _____ _____    ______ ____
ROOT
ATOM      1  C   LIG    1        2.327   7.869   0.044  0.00  0.00    +0.150 A 
ATOM      2  C   LIG    1        3.458   7.070  -0.004  0.00  0.00    +0.049 A 
ATOM      3  C   LIG    1        4.713   7.648  -0.020  0.00  0.00    +0.024 A 
ATOM      4  C   LIG    1        4.846   9.025   0.024  0.00  0.00    +0.043 A 
ATOM      5 CL   LIG    1        6.426   9.744   0.012  0.00  0.00    -0.083 Cl
ATOM      6  C   LIG    1        3.722   9.829   0.079  0.00  0.00    +0.047 A 
ATOM      7  C   LIG    1        2.459   9.256   0.089  0.00  0.00    +0.078 A 
ENDROOT
BRANCH   7   8
ATOM      8  N   LIG    1        1.319  10.068   0.144  0.00  0.00    -0.278 N 
ATOM      9  H   LIG    1        0.428   9.727   0.691  0.00  0.00    +0.155 HD
ATOM     10  C   LIG    1        1.316  11.267  -0.472  0.00  0.00    +0.252 C 
ATOM     11  O   LIG    1        2.324  11.674  -1.015  0.00  0.00    -0.270 OA
BRANCH  10  12
ATOM     12  C   LIG    1        0.088  12.084  -0.487  0.00  0.00    +0.081 A 
ATOM     13  C   LIG    1       -1.073  11.620   0.136  0.00  0.00    +0.036 A 
ATOM     14  C   LIG    1       -2.218  12.388   0.119  0.00  0.00    +0.043 A 
ATOM     15 CL   LIG    1       -3.659  11.810   0.894  0.00  0.00    -0.083 Cl
ATOM     16  C   LIG    1       -2.222  13.621  -0.515  0.00  0.00    +0.039 A 
ATOM     17  C   LIG    1       -1.081  14.092  -1.135  0.00  0.00    +0.061 A 
ATOM     18 BR   LIG    1       -1.099  15.775  -1.996  0.00  0.00    -0.046 Br
ATOM     19  C   LIG    1        0.081  13.333  -1.121  0.00  0.00    +0.143 A 
BRANCH  19  20
ATOM     20  O   LIG    1        1.205  13.797  -1.725  0.00  0.00    -0.505 OA
ATOM     21  H   LIG    1        1.988  13.283  -1.714  0.00  0.00    +0.292 HD
ENDBRANCH  19  20
ENDBRANCH  10  12
ENDBRANCH   7   8
BRANCH   1  22
ATOM     22  O   LIG    1        1.091   7.302   0.054  0.00  0.00    -0.453 OA
BRANCH  22  30
ATOM     23  C   LIG    1       -2.653   5.979  -4.865  0.00  0.00    +0.001 A 
ATOM     24  C   LIG    1       -3.239   5.478  -3.704  0.00  0.00    +0.001 A 
ATOM     25  C   LIG    1       -2.632   5.622  -2.494  0.00  0.00    +0.010 A 
ATOM     26  C   LIG    1       -1.401   6.295  -2.410  0.00  0.00    +0.004 A 
ATOM     27  C   LIG    1       -0.807   6.810  -3.590  0.00  0.00    -0.016 A 
ATOM     28  C   LIG    1        0.423   7.484  -3.510  0.00  0.00    +0.012 A 
ATOM     29  C   LIG    1        1.035   7.638  -2.305  0.00  0.00    +0.048 A 
ATOM     30  C   LIG    1        0.457   7.133  -1.136  0.00  0.00    +0.147 A 
ATOM     31  C   LIG    1       -0.748   6.467  -1.178  0.00  0.00    +0.091 A 
ATOM     32 CL   LIG    1       -1.454   5.846   0.281  0.00  0.00    -0.079 Cl
ATOM     33  C   LIG    1       -1.462   6.636  -4.822  0.00  0.00    +0.008 A 
ENDBRANCH  22  30
ENDBRANCH   1  22
TORSDOF 5
