REMARK  Name = ZINC02014897
REMARK                            x       y       z     vdW  Elec       q    Type
REMARK                         _______ _______ _______ _____ _____    ______ ____
ROOT
ATOM      1  N   LIG    1        0.688  -0.476  -1.203  0.00  0.00    -0.296 N 
ATOM      2  H   LIG    1        0.218  -1.037  -1.840  0.00  0.00    +0.150 HD
ATOM      3  C   LIG    1        1.972  -0.132  -1.427  0.00  0.00    +0.245 C 
ATOM      4  O   LIG    1        2.560   0.570  -0.629  0.00  0.00    -0.270 OA
ENDROOT
BRANCH   3   5
ATOM      5  C   LIG    1        2.663  -0.609  -2.643  0.00  0.00    +0.039 A 
ATOM      6  C   LIG    1        1.988  -1.411  -3.565  0.00  0.00    +0.033 A 
ATOM      7  C   LIG    1        2.640  -1.853  -4.699  0.00  0.00    +0.043 A 
ATOM      8 CL   LIG    1        1.802  -2.852  -5.846  0.00  0.00    -0.083 Cl
ATOM      9  C   LIG    1        3.961  -1.503  -4.923  0.00  0.00    +0.040 A 
ATOM     10  C   LIG    1        4.636  -0.708  -4.013  0.00  0.00    +0.043 A 
ATOM     11 CL   LIG    1        6.292  -0.274  -4.302  0.00  0.00    -0.083 Cl
ATOM     12  C   LIG    1        3.993  -0.254  -2.878  0.00  0.00    +0.033 A 
ENDBRANCH   3   5
BRANCH   1  14
ATOM     13  C   LIG    1       -0.019   1.526   0.010  0.00  0.00    +0.045 C 
ATOM     14  C   LIG    1        0.002  -0.004   0.002  0.00  0.00    +0.090 C 
ATOM     15  C   LIG    1        0.742  -0.511   1.242  0.00  0.00    +0.045 C 
BRANCH  14  16
ATOM     16  C   LIG    1       -1.379  -0.514   0.013  0.00  0.00    -0.080 C 
ATOM     17  C   LIG    1       -2.480  -0.920   0.021  0.00  0.00    +0.006 C 
ENDBRANCH  14  16
ENDBRANCH   1  14
TORSDOF 3
