REMARK  Name = ZINC01673962
REMARK                            x       y       z     vdW  Elec       q    Type
REMARK                         _______ _______ _______ _____ _____    ______ ____
ROOT
ATOM      1  C   LIG    1        4.216  -2.485  -0.230  0.00  0.00    +0.002 A 
ATOM      2  C   LIG    1        4.175  -3.780   0.250  0.00  0.00    +0.001 A 
ATOM      3  C   LIG    1        2.986  -4.487   0.227  0.00  0.00    +0.017 A 
ATOM      4  C   LIG    1        1.835  -3.898  -0.276  0.00  0.00    +0.034 A 
ATOM      5  C   LIG    1        1.873  -2.592  -0.762  0.00  0.00    +0.048 A 
ATOM      6  N   LIG    1        0.738  -1.962  -1.265  0.00  0.00    -0.298 N 
ATOM      7  C   LIG    1       -0.377  -2.617  -1.780  0.00  0.00    +0.049 A 
ATOM      8  C   LIG    1       -1.199  -1.940  -2.674  0.00  0.00    +0.044 A 
ATOM      9  C   LIG    1       -2.318  -2.557  -3.202  0.00  0.00    +0.043 A 
ATOM     10 CL   LIG    1       -3.336  -1.700  -4.316  0.00  0.00    -0.083 Cl
ATOM     11  C   LIG    1       -2.628  -3.857  -2.844  0.00  0.00    +0.021 A 
ATOM     12  C   LIG    1       -1.817  -4.540  -1.957  0.00  0.00    +0.018 A 
ATOM     13  C   LIG    1       -0.692  -3.926  -1.425  0.00  0.00    +0.034 A 
ATOM     14  S   LIG    1        0.331  -4.815  -0.299  0.00  0.00    -0.086 S 
ATOM     15  C   LIG    1        3.073  -1.892  -0.731  0.00  0.00    +0.024 A 
ENDROOT
BRANCH   6  16
ATOM     16  C   LIG    1        0.718  -0.497  -1.257  0.00  0.00    +0.109 C 
BRANCH  16  17
ATOM     17  C   LIG    1        1.308   0.028  -2.567  0.00  0.00    -0.000 C 
BRANCH  17  18
ATOM     18  C   LIG    1        1.288   1.558  -2.558  0.00  0.00    -0.085 C 
BRANCH  18  19
ATOM     19  N   LIG    1        1.838   2.052  -3.833  0.00  0.00    +0.378 N 
ATOM     20  H   LIG    1        1.247   1.723  -4.606  0.00  0.00    -0.090 HD
ATOM     21  H   LIG    1        2.785   1.700  -3.965  0.00  0.00    -0.090 HD
ATOM     22  H   LIG    1        1.852   3.071  -3.835  0.00  0.00    -0.090 HD
ENDBRANCH  18  19
ENDBRANCH  17  18
ENDBRANCH  16  17
ENDBRANCH   6  16
TORSDOF 4
