REMARK  Name = ZINC02169424
REMARK                            x       y       z     vdW  Elec       q    Type
REMARK                         _______ _______ _______ _____ _____    ______ ____
ROOT
ATOM      1  N   LIG    1       -0.957  -3.108  -2.555  0.00  0.00    +0.384 N 
ATOM      2  H   LIG    1       -0.569  -2.305  -3.025  0.00  0.00    -0.086 HD
ATOM      3  H   LIG    1       -1.561  -2.801  -1.807  0.00  0.00    -0.086 HD
ENDROOT
BRANCH   1   4
ATOM      4  C   LIG    1        0.132  -3.925  -2.001  0.00  0.00    -0.041 C 
BRANCH   4   5
ATOM      5  C   LIG    1        0.939  -3.090  -1.004  0.00  0.00    +0.210 C 
BRANCH   5   6
ATOM      6  O   LIG    1        0.114  -2.753   0.113  0.00  0.00    -0.487 OA
BRANCH   6  12
ATOM      7  C   LIG    1        0.626  -0.619   1.042  0.00  0.00    +0.165 A 
ATOM      8  C   LIG    1        1.202   0.138   2.051  0.00  0.00    +0.049 A 
ATOM      9  C   LIG    1        1.837  -0.486   3.109  0.00  0.00    +0.007 A 
ATOM     10  C   LIG    1        1.900  -1.866   3.166  0.00  0.00    +0.049 A 
ATOM     11  C   LIG    1        1.327  -2.630   2.160  0.00  0.00    +0.165 A 
ATOM     12  C   LIG    1        0.683  -2.006   1.098  0.00  0.00    +0.204 A 
BRANCH   7  14
ATOM     13  C   LIG    1       -0.017   1.425   0.010  0.00  0.00    +0.277 C 
ATOM     14  O   LIG    1        0.002  -0.004   0.002  0.00  0.00    -0.491 OA
ENDBRANCH   7  14
BRANCH  11  15
ATOM     15  O   LIG    1        1.390  -3.987   2.217  0.00  0.00    -0.491 OA
ATOM     16  C   LIG    1        2.062  -4.559   3.340  0.00  0.00    +0.277 C 
ENDBRANCH  11  15
ENDBRANCH   6  12
ENDBRANCH   5   6
ENDBRANCH   4   5
ENDBRANCH   1   4
BRANCH   1  17
ATOM     17  C   LIG    1       -1.732  -3.910  -3.511  0.00  0.00    -0.034 C 
BRANCH  17  18
ATOM     18  C   LIG    1       -2.866  -3.060  -4.088  0.00  0.00    +0.194 C 
ATOM     19  C   LIG    1       -3.744  -3.922  -5.004  0.00  0.00    +0.271 C 
ATOM     20  O   LIG    1       -4.785  -3.095  -5.536  0.00  0.00    -0.485 OA
ATOM     21  C   LIG    1       -4.411  -1.880  -6.022  0.00  0.00    +0.162 A 
ATOM     22  C   LIG    1       -5.270  -1.189  -6.864  0.00  0.00    +0.049 A 
ATOM     23  C   LIG    1       -4.906   0.047  -7.363  0.00  0.00    +0.004 A 
ATOM     24  C   LIG    1       -3.685   0.600  -7.024  0.00  0.00    +0.004 A 
ATOM     25  C   LIG    1       -2.823  -0.084  -6.187  0.00  0.00    +0.049 A 
ATOM     26  C   LIG    1       -3.182  -1.326  -5.684  0.00  0.00    +0.162 A 
ATOM     27  O   LIG    1       -2.319  -1.990  -4.867  0.00  0.00    -0.484 OA
ENDBRANCH  17  18
ENDBRANCH   1  17
TORSDOF 8
