REMARK  Name = ZINC02382749
REMARK                            x       y       z     vdW  Elec       q    Type
REMARK                         _______ _______ _______ _____ _____    ______ ____
ROOT
ATOM      1  C   LIG    1        0.941   0.272  -1.714  0.00  0.00    +0.089 A 
ATOM      2  C   LIG    1        0.241   0.083  -2.894  0.00  0.00    +0.028 A 
ATOM      3  C   LIG    1        0.863  -0.485  -3.985  0.00  0.00    +0.015 A 
ATOM      4  C   LIG    1        2.203  -0.871  -3.900  0.00  0.00    +0.041 A 
ATOM      5  C   LIG    1        2.904  -0.677  -2.707  0.00  0.00    +0.054 A 
ATOM      6 CL   LIG    1        4.569  -1.153  -2.589  0.00  0.00    -0.083 Cl
ATOM      7  C   LIG    1        2.269  -0.102  -1.623  0.00  0.00    +0.047 A 
ENDROOT
BRANCH   1   9
ATOM      8  C   LIG    1        0.411   2.783  -0.510  0.00  0.00    +0.200 C 
ATOM      9  S   LIG    1        0.138   0.999  -0.325  0.00  0.00    -0.006 S 
ATOM     10  O   LIG    1       -1.239   0.694  -0.502  0.00  0.00    -0.170 OA
ATOM     11  O   LIG    1        0.849   0.509   0.803  0.00  0.00    -0.170 OA
ENDBRANCH   1   9
BRANCH   4  12
ATOM     12  C   LIG    1        2.876  -1.481  -5.066  0.00  0.00    +0.201 C 
ATOM     13  O   LIG    1        4.063  -1.740  -5.016  0.00  0.00    -0.286 OA
BRANCH  12  14
ATOM     14  C   LIG    1        2.110  -1.775  -6.286  0.00  0.00    +0.102 C 
ATOM     15  C   LIG    1        2.387  -1.069  -7.458  0.00  0.00    +0.108 C 
ATOM     16  C   LIG    1        1.620  -1.350  -8.723  0.00  0.00    +0.075 C 
ATOM     17  C   LIG    1        0.211  -1.831  -8.366  0.00  0.00    +0.016 C 
ATOM     18  C   LIG    1        0.318  -3.081  -7.488  0.00  0.00    +0.080 C 
ATOM     19  C   LIG    1        1.121  -2.760  -6.255  0.00  0.00    +0.170 C 
ATOM     20  O   LIG    1        0.902  -3.365  -5.217  0.00  0.00    -0.292 OA
BRANCH  15  21
ATOM     21  O   LIG    1        3.260  -0.215  -7.457  0.00  0.00    -0.510 OA
ATOM     22  H   LIG    1        3.740  -0.037  -6.672  0.00  0.00    +0.292 HD
ENDBRANCH  15  21
ENDBRANCH  12  14
ENDBRANCH   4  12
TORSDOF 4
