REMARK  Name = ZINC01693359
REMARK                            x       y       z     vdW  Elec       q    Type
REMARK                         _______ _______ _______ _____ _____    ______ ____
ROOT
ATOM      1  C   LIG    1        1.226  -2.187  -0.021  0.00  0.00    +0.044 C 
ATOM      2  C   LIG    1        1.208  -0.680  -0.013  0.00  0.00    -0.050 A 
ATOM      3  C   LIG    1        0.002  -0.004   0.002  0.00  0.00    +0.007 A 
ATOM      4  C   LIG    1       -0.017   1.377   0.010  0.00  0.00    +0.046 A 
ATOM      5  C   LIG    1        1.176   2.086   0.002  0.00  0.00    +0.120 A 
ATOM      6  C   LIG    1        2.385   1.405  -0.013  0.00  0.00    +0.046 A 
ATOM      7  C   LIG    1        2.398   0.024  -0.021  0.00  0.00    +0.007 A 
ENDROOT
BRANCH   5   8
ATOM      8  O   LIG    1        1.160   3.445   0.010  0.00  0.00    -0.495 OA
ATOM      9  C   LIG    1        2.426   4.108   0.001  0.00  0.00    +0.277 C 
ENDBRANCH   5   8
TORSDOF 1
