REMARK  Name = ZINC01883739
REMARK                            x       y       z     vdW  Elec       q    Type
REMARK                         _______ _______ _______ _____ _____    ______ ____
ROOT
ATOM      1  N   LIG    1       -0.595   1.594   1.078  0.00  0.00    -0.247 N 
ENDROOT
BRANCH   1   2
ATOM      2  N   LIG    1       -1.342   0.570   1.674  0.00  0.00    -0.191 NA
ATOM      3  C   LIG    1       -1.947   0.780   2.802  0.00  0.00    +0.138 C 
BRANCH   3   4
ATOM      4  C   LIG    1       -2.734  -0.298   3.429  0.00  0.00    -0.005 A 
ATOM      5  C   LIG    1       -2.833  -1.546   2.808  0.00  0.00    +0.013 A 
ATOM      6  C   LIG    1       -3.565  -2.552   3.400  0.00  0.00    +0.046 A 
ATOM      7  C   LIG    1       -4.213  -2.325   4.607  0.00  0.00    +0.117 A 
ATOM      8  C   LIG    1       -4.121  -1.085   5.226  0.00  0.00    +0.046 A 
ATOM      9  C   LIG    1       -3.386  -0.074   4.644  0.00  0.00    +0.013 A 
BRANCH   7  10
ATOM     10  O   LIG    1       -4.938  -3.318   5.184  0.00  0.00    -0.507 OA
ATOM     11  H   LIG    1       -5.867  -3.334   4.915  0.00  0.00    +0.292 HD
ENDBRANCH   7  10
ENDBRANCH   3   4
ENDBRANCH   1   2
BRANCH   1  12
ATOM     12  C   LIG    1        0.089   1.357  -0.196  0.00  0.00    +0.161 C 
BRANCH  12  16
ATOM     13  C   LIG    1        4.103   0.104   0.554  0.00  0.00    +0.000 A 
ATOM     14  C   LIG    1        3.075  -0.820   0.576  0.00  0.00    +0.000 A 
ATOM     15  C   LIG    1        1.776  -0.414   0.334  0.00  0.00    +0.005 A 
ATOM     16  C   LIG    1        1.505   0.915   0.069  0.00  0.00    -0.029 A 
ATOM     17  C   LIG    1        2.534   1.838   0.042  0.00  0.00    +0.005 A 
ATOM     18  C   LIG    1        3.832   1.434   0.289  0.00  0.00    +0.000 A 
ENDBRANCH  12  16
ENDBRANCH   1  12
BRANCH   1  19
ATOM     19  C   LIG    1       -0.497   2.903   1.729  0.00  0.00    +0.161 C 
BRANCH  19  20
ATOM     20  C   LIG    1       -1.580   3.809   1.201  0.00  0.00    -0.029 A 
ATOM     21  C   LIG    1       -1.361   4.555   0.058  0.00  0.00    +0.005 A 
ATOM     22  C   LIG    1       -2.356   5.382  -0.429  0.00  0.00    +0.000 A 
ATOM     23  C   LIG    1       -3.567   5.470   0.233  0.00  0.00    +0.000 A 
ATOM     24  C   LIG    1       -3.784   4.728   1.379  0.00  0.00    +0.000 A 
ATOM     25  C   LIG    1       -2.791   3.897   1.863  0.00  0.00    +0.005 A 
ENDBRANCH  19  20
ENDBRANCH   1  19
TORSDOF 7
