REMARK  Name = ZINC01851916
REMARK                            x       y       z     vdW  Elec       q    Type
REMARK                         _______ _______ _______ _____ _____    ______ ____
ROOT
ATOM      1  C   LIG    1        3.670   2.194  -0.021  0.00  0.00    +0.118 C 
ATOM      2  C   LIG    1        4.503   1.817   1.209  0.00  0.00    +0.030 C 
ATOM      3  C   LIG    1        5.907   2.416   1.086  0.00  0.00    +0.008 C 
ATOM      4  C   LIG    1        6.673   1.687  -0.026  0.00  0.00    +0.055 C 
ATOM      5  C   LIG    1        5.787   1.629  -1.244  0.00  0.00    +0.037 A 
ATOM      6  C   LIG    1        6.122   1.355  -2.510  0.00  0.00    +0.105 A 
ATOM      7  N   LIG    1        5.004   1.418  -3.254  0.00  0.00    -0.352 N 
ATOM      8  H   LIG    1        4.957   1.262  -4.210  0.00  0.00    +0.166 HD
ATOM      9  C   LIG    1        3.990   1.723  -2.486  0.00  0.00    +0.174 A 
ATOM     10  N   LIG    1        4.435   1.861  -1.225  0.00  0.00    -0.328 N 
ENDROOT
BRANCH   1  13
ATOM     11  C   LIG    1       -0.017   1.392   0.010  0.00  0.00    +0.019 A 
ATOM     12  C   LIG    1        1.170   2.095   0.002  0.00  0.00    +0.007 A 
ATOM     13  C   LIG    1        2.378   1.419  -0.013  0.00  0.00    -0.025 A 
ATOM     14  C   LIG    1        2.404   0.036  -0.021  0.00  0.00    +0.007 A 
ATOM     15  C   LIG    1        1.224  -0.679  -0.014  0.00  0.00    +0.019 A 
ATOM     16  C   LIG    1        0.002  -0.004   0.002  0.00  0.00    +0.052 A 
BRANCH  16  17
ATOM     17  C   LIG    1       -1.226  -0.740   0.010  0.00  0.00    +0.099 C 
ATOM     18  N   LIG    1       -2.201  -1.324   0.017  0.00  0.00    -0.191 NA
ENDBRANCH  16  17
ENDBRANCH   1  13
TORSDOF 2
