REMARK  Name = ZINC02183613
REMARK                            x       y       z     vdW  Elec       q    Type
REMARK                         _______ _______ _______ _____ _____    ______ ____
ROOT
ATOM      1  N   LIG    1       -0.069   5.239   0.031  0.00  0.00    -0.333 N 
ATOM      2  C   LIG    1       -0.850   5.762  -1.099  0.00  0.00    +0.086 C 
ATOM      3  C   LIG    1       -0.913   7.288  -1.009  0.00  0.00    -0.060 C 
ATOM      4  N   LIG    1        0.464   7.825  -1.042  0.00  0.00    +0.382 N 
ATOM      5  H   LIG    1        0.921   7.520  -1.910  0.00  0.00    -0.082 HD
ATOM      6  C   LIG    1        1.233   7.311   0.111  0.00  0.00    -0.060 C 
ATOM      7  C   LIG    1        1.296   5.784   0.022  0.00  0.00    +0.086 C 
ENDROOT
BRANCH   1  12
ATOM      8  C   LIG    1        1.177   1.782   0.000  0.00  0.00    +0.002 A 
ATOM      9  C   LIG    1       -0.013   1.076   0.008  0.00  0.00    +0.012 A 
ATOM     10  C   LIG    1       -1.220   1.749   0.017  0.00  0.00    +0.057 A 
ATOM     11  C   LIG    1       -1.242   3.130   0.031  0.00  0.00    +0.035 A 
ATOM     12  C   LIG    1       -0.050   3.842   0.023  0.00  0.00    +0.030 A 
ATOM     13  C   LIG    1        1.161   3.163   0.008  0.00  0.00    +0.023 A 
BRANCH  10  14
ATOM     14  C   LIG    1       -2.513   0.976   0.019  0.00  0.00    +0.417 C 
ATOM     15  F   LIG    1       -3.257   1.308  -1.118  0.00  0.00    -0.166 F 
ATOM     16  F   LIG    1       -3.247   1.296   1.167  0.00  0.00    -0.166 F 
ATOM     17  F   LIG    1       -2.236  -0.396   0.011  0.00  0.00    -0.166 F 
ENDBRANCH  10  14
ENDBRANCH   1  12
BRANCH   4  18
ATOM     18  C   LIG    1        0.432   9.303  -1.010  0.00  0.00    -0.079 C 
BRANCH  18  19
ATOM     19  C   LIG    1       -0.169   9.812  -2.321  0.00  0.00    -0.017 C 
BRANCH  19  20
ATOM     20  C   LIG    1       -0.190  11.342  -2.312  0.00  0.00    +0.017 C 
BRANCH  20  21
ATOM     21  C   LIG    1       -0.791  11.851  -3.624  0.00  0.00    +0.108 C 
BRANCH  21  22
ATOM     22  N   LIG    1       -0.811  13.316  -3.615  0.00  0.00    -0.291 N 
ATOM     23  C   LIG    1        0.345  14.042  -4.138  0.00  0.00    +0.203 C 
ATOM     24  C   LIG    1       -0.110  15.327  -4.792  0.00  0.00    +0.234 C 
ATOM     25  N   LIG    1       -1.191  15.948  -4.285  0.00  0.00    -0.289 N 
ATOM     26  C   LIG    1       -1.829  17.185  -4.740  0.00  0.00    +0.108 C 
ATOM     27  C   LIG    1       -3.329  17.029  -4.429  0.00  0.00    +0.021 C 
ATOM     28  C   LIG    1       -3.419  15.896  -3.387  0.00  0.00    +0.033 C 
ATOM     29  C   LIG    1       -1.967  15.456  -3.131  0.00  0.00    +0.162 C 
ATOM     30  O   LIG    1        0.483  15.785  -5.746  0.00  0.00    -0.274 OA
ATOM     31  C   LIG    1       -1.894  13.949  -3.132  0.00  0.00    +0.237 C 
ATOM     32  O   LIG    1       -2.820  13.303  -2.688  0.00  0.00    -0.274 OA
ENDBRANCH  21  22
ENDBRANCH  20  21
ENDBRANCH  19  20
ENDBRANCH  18  19
ENDBRANCH   4  18
TORSDOF 7
