REMARK  Name = ZINC01687741
REMARK                            x       y       z     vdW  Elec       q    Type
REMARK                         _______ _______ _______ _____ _____    ______ ____
ROOT
ATOM      1  C   LIG    1        3.195  -2.006  -2.033  0.00  0.00    +0.007 C 
ATOM      2  C   LIG    1        3.591  -2.097  -0.558  0.00  0.00    -0.017 C 
ATOM      3  C   LIG    1        2.502  -2.830   0.224  0.00  0.00    -0.061 C 
ATOM      4  N   LIG    1        2.838  -2.906   1.662  0.00  0.00    +0.380 N 
ATOM      5  H   LIG    1        3.722  -3.418   1.767  0.00  0.00    -0.082 HD
ATOM      6  C   LIG    1        1.781  -3.630   2.382  0.00  0.00    -0.096 C 
ATOM      7  C   LIG    1        3.006  -1.549   2.237  0.00  0.00    -0.078 C 
ATOM      8  C   LIG    1        4.144  -0.830   1.504  0.00  0.00    -0.007 C 
ATOM      9  C   LIG    1        1.149  -2.199  -0.057  0.00  0.00    +0.020 C 
ATOM     10  C   LIG    1        1.208  -0.696  -0.012  0.00  0.00    -0.045 A 
ATOM     11  C   LIG    1        0.002  -0.004   0.002  0.00  0.00    +0.007 A 
ATOM     12  C   LIG    1       -0.017   1.374   0.010  0.00  0.00    +0.045 A 
ATOM     13  C   LIG    1        1.178   2.080   0.002  0.00  0.00    +0.117 A 
ATOM     14  C   LIG    1        2.379   1.392  -0.005  0.00  0.00    +0.049 A 
ATOM     15  C   LIG    1        2.392   0.005  -0.004  0.00  0.00    -0.035 A 
ATOM     16  C   LIG    1        3.734  -0.688   0.027  0.00  0.00    -0.007 C 
ATOM     17  C   LIG    1        4.773   0.116  -0.757  0.00  0.00    +0.016 C 
ENDROOT
BRANCH  13  18
ATOM     18  O   LIG    1        1.168   3.439   0.002  0.00  0.00    -0.507 OA
ATOM     19  H   LIG    1        1.171   3.833   0.886  0.00  0.00    +0.292 HD
ENDBRANCH  13  18
TORSDOF 1
