REMARK  Name = ZINC01842502
REMARK                            x       y       z     vdW  Elec       q    Type
REMARK                         _______ _______ _______ _____ _____    ______ ____
ROOT
ATOM      1  C   LIG    1       -0.965   0.308   3.542  0.00  0.00    +0.093 A 
ATOM      2  C   LIG    1       -0.374   0.950   2.488  0.00  0.00    +0.050 A 
ATOM      3  C   LIG    1        0.929   1.447   2.636  0.00  0.00    +0.257 A 
ATOM      4  N   LIG    1        1.576   1.281   3.807  0.00  0.00    -0.302 N 
ATOM      5  C   LIG    1        0.983   0.643   4.832  0.00  0.00    +0.163 A 
ATOM      6  S   LIG    1        1.831   0.447   6.307  0.00  0.00    -0.013 S 
ATOM      7  H   LIG    1        2.477   1.624   3.911  0.00  0.00    +0.171 HD
ATOM      8  O   LIG    1        1.474   2.026   1.712  0.00  0.00    -0.267 OA
ATOM      9  N   LIG    1       -0.266   0.156   4.717  0.00  0.00    -0.291 N 
ENDROOT
BRANCH   2  10
ATOM     10  C   LIG    1       -1.116   1.125   1.188  0.00  0.00    +0.021 C 
ATOM     11  C   LIG    1       -1.259   2.616   0.879  0.00  0.00    +0.012 C 
ATOM     12  C   LIG    1       -0.337   0.443   0.061  0.00  0.00    +0.012 C 
ENDBRANCH   2  10
BRANCH   1  13
ATOM     13  S   LIG    1       -2.604  -0.323   3.395  0.00  0.00    -0.071 S 
BRANCH  13  20
ATOM     14  C   LIG    1        0.728  -4.357   3.357  0.00  0.00    +0.044 C 
ATOM     15  C   LIG    1       -0.695  -3.863   3.388  0.00  0.00    -0.049 A 
ATOM     16  C   LIG    1       -1.740  -4.768   3.427  0.00  0.00    +0.006 A 
ATOM     17  C   LIG    1       -3.048  -4.319   3.455  0.00  0.00    -0.049 A 
ATOM     18  C   LIG    1       -4.183  -5.310   3.497  0.00  0.00    +0.044 C 
ATOM     19  C   LIG    1       -3.315  -2.965   3.445  0.00  0.00    +0.018 A 
ATOM     20  C   LIG    1       -2.268  -2.052   3.407  0.00  0.00    +0.015 A 
ATOM     21  C   LIG    1       -0.955  -2.507   3.373  0.00  0.00    +0.018 A 
ENDBRANCH  13  20
ENDBRANCH   1  13
BRANCH   9  22
ATOM     22  C   LIG    1       -0.887  -0.534   5.850  0.00  0.00    +0.287 C 
BRANCH  22  23
ATOM     23  O   LIG    1       -1.268   0.424   6.840  0.00  0.00    -0.357 OA
BRANCH  23  24
ATOM     24  C   LIG    1       -2.479   1.120   6.540  0.00  0.00    +0.190 C 
BRANCH  24  25
ATOM     25  C   LIG    1       -2.788   2.114   7.661  0.00  0.00    +0.184 C 
BRANCH  25  26
ATOM     26  O   LIG    1       -1.773   3.119   7.700  0.00  0.00    -0.393 OA
ATOM     27  H   LIG    1       -1.905   3.784   8.389  0.00  0.00    +0.209 HD
ENDBRANCH  25  26
ENDBRANCH  24  25
ENDBRANCH  23  24
ENDBRANCH  22  23
ENDBRANCH   9  22
TORSDOF 8
