REMARK  Name = ZINC02064362
REMARK                            x       y       z     vdW  Elec       q    Type
REMARK                         _______ _______ _______ _____ _____    ______ ____
ROOT
ATOM      1  N   LIG    1        6.013  -6.123  -0.075  0.00  0.00    -0.297 N 
ATOM      2  H   LIG    1        6.343  -6.721  -0.763  0.00  0.00    +0.154 HD
ENDROOT
BRANCH   1   5
ATOM      3  C   LIG    1        2.989  -4.031   0.202  0.00  0.00    +0.050 A 
ATOM      4  C   LIG    1        4.330  -4.417   0.200  0.00  0.00    +0.037 A 
ATOM      5  C   LIG    1        4.668  -5.733  -0.072  0.00  0.00    +0.033 A 
ATOM      6  C   LIG    1        3.674  -6.667  -0.342  0.00  0.00    +0.027 A 
ATOM      7  C   LIG    1        2.345  -6.290  -0.342  0.00  0.00    +0.048 A 
ATOM      8  C   LIG    1        1.994  -4.978  -0.066  0.00  0.00    +0.127 A 
BRANCH   3  15
ATOM      9  C   LIG    1       -0.005   1.256   1.201  0.00  0.00    +0.002 A 
ATOM     10  C   LIG    1        1.164   1.968   1.428  0.00  0.00    +0.001 A 
ATOM     11  C   LIG    1        2.381   1.315   1.353  0.00  0.00    +0.017 A 
ATOM     12  C   LIG    1        2.410  -0.025   1.057  0.00  0.00    +0.040 A 
ATOM     13  C   LIG    1        1.236  -0.779   0.821  0.00  0.00    +0.079 A 
ATOM     14  N   LIG    1        1.426  -2.084   0.543  0.00  0.00    -0.239 NA
ATOM     15  C   LIG    1        2.622  -2.629   0.491  0.00  0.00    +0.113 A 
ATOM     16  S   LIG    1        3.688  -1.244   0.861  0.00  0.00    -0.067 S 
ATOM     17  C   LIG    1        0.013  -0.072   0.907  0.00  0.00    +0.029 A 
ENDBRANCH   3  15
BRANCH   8  18
ATOM     18  O   LIG    1        0.686  -4.611  -0.060  0.00  0.00    -0.506 OA
ATOM     19  H   LIG    1        0.357  -4.313  -0.920  0.00  0.00    +0.292 HD
ENDBRANCH   8  18
ENDBRANCH   1   5
BRANCH   1  20
ATOM     20  C   LIG    1        6.849  -5.668   0.880  0.00  0.00    +0.141 C 
ATOM     21  S   LIG    1        6.239  -4.728   2.175  0.00  0.00    -0.018 S 
BRANCH  20  22
ATOM     22  N   LIG    1        8.165  -5.952   0.815  0.00  0.00    -0.264 N 
ATOM     23  H   LIG    1        8.510  -6.484   0.081  0.00  0.00    +0.157 HD
ATOM     24  C   LIG    1        9.000  -5.496   1.769  0.00  0.00    +0.250 C 
ATOM     25  O   LIG    1        8.567  -4.830   2.688  0.00  0.00    -0.270 OA
BRANCH  24  26
ATOM     26  C   LIG    1       10.443  -5.808   1.698  0.00  0.00    +0.037 A 
ATOM     27  C   LIG    1       10.944  -6.569   0.640  0.00  0.00    +0.015 A 
ATOM     28  C   LIG    1       12.293  -6.855   0.580  0.00  0.00    +0.033 A 
ATOM     29  C   LIG    1       13.147  -6.391   1.564  0.00  0.00    +0.122 A 
ATOM     30  C   LIG    1       12.656  -5.636   2.615  0.00  0.00    +0.033 A 
ATOM     31  C   LIG    1       11.311  -5.338   2.685  0.00  0.00    +0.015 A 
BRANCH  29  32
ATOM     32  N   LIG    1       14.592  -6.702   1.492  0.00  0.00    +0.006 N 
ATOM     33  O   LIG    1       15.024  -7.362   0.575  0.00  0.00    -0.130 OA
BRANCH  32  34
ATOM     34  O   LIG    1       15.341  -6.298   2.351  0.00  0.00    -0.396 OA
ATOM     35  H   LIG    1       15.007  -5.787   3.062  0.00  0.00    +0.329 HD
ENDBRANCH  32  34
ENDBRANCH  29  32
ENDBRANCH  24  26
ENDBRANCH  20  22
ENDBRANCH   1  20
TORSDOF 8
