REMARK  Name = ZINC02020240
REMARK                            x       y       z     vdW  Elec       q    Type
REMARK                         _______ _______ _______ _____ _____    ______ ____
ROOT
ATOM      1  C   LIG    1       -2.419   0.696   0.086  0.00  0.00    +0.190 C 
ENDROOT
BRANCH   1   2
ATOM      2  C   LIG    1       -2.224  -0.034  -1.218  0.00  0.00    +0.018 A 
ATOM      3  C   LIG    1       -2.124  -1.414  -1.231  0.00  0.00    +0.048 A 
ATOM      4 CL   LIG    1       -2.224  -2.305   0.255  0.00  0.00    -0.083 Cl
ATOM      5  C   LIG    1       -1.949  -2.083  -2.429  0.00  0.00    +0.020 A 
ATOM      6  C   LIG    1       -1.864  -1.373  -3.612  0.00  0.00    +0.003 A 
ATOM      7  C   LIG    1       -1.958   0.006  -3.599  0.00  0.00    +0.020 A 
ATOM      8  C   LIG    1       -2.138   0.676  -2.402  0.00  0.00    +0.048 A 
ATOM      9 CL   LIG    1       -2.256   2.408  -2.386  0.00  0.00    -0.083 Cl
ENDBRANCH   1   2
BRANCH   1  10
ATOM     10  C   LIG    1       -1.154   1.432   0.444  0.00  0.00    +0.235 C 
ATOM     11  N   LIG    1       -0.004   0.751   0.621  0.00  0.00    -0.328 N 
ATOM     12  H   LIG    1        0.811   1.225   0.848  0.00  0.00    +0.145 HD
ATOM     13  H   LIG    1        0.009  -0.214   0.518  0.00  0.00    +0.145 HD
ATOM     14  O   LIG    1       -1.170   2.638   0.573  0.00  0.00    -0.274 OA
ENDBRANCH   1  10
BRANCH   1  15
ATOM     15  N   LIG    1       -3.519   1.653  -0.050  0.00  0.00    -0.329 N 
ATOM     16  H   LIG    1       -3.808   1.938  -0.931  0.00  0.00    +0.147 HD
BRANCH  15  22
ATOM     17  C   LIG    1       -3.753   2.001   4.836  0.00  0.00    +0.044 C 
ATOM     18  C   LIG    1       -4.289   2.340   3.469  0.00  0.00    -0.049 A 
ATOM     19  C   LIG    1       -5.409   3.149   3.349  0.00  0.00    +0.004 A 
ATOM     20  C   LIG    1       -5.909   3.467   2.107  0.00  0.00    +0.013 A 
ATOM     21  C   LIG    1       -5.281   2.976   0.955  0.00  0.00    +0.038 A 
ATOM     22  C   LIG    1       -4.149   2.151   1.081  0.00  0.00    +0.039 A 
ATOM     23  C   LIG    1       -3.661   1.843   2.346  0.00  0.00    +0.027 A 
BRANCH  21  24
ATOM     24  C   LIG    1       -5.803   3.316  -0.372  0.00  0.00    +0.162 C 
ATOM     25  C   LIG    1       -7.089   4.091  -0.500  0.00  0.00    +0.091 C 
ATOM     26  O   LIG    1       -5.200   2.973  -1.367  0.00  0.00    -0.292 OA
ENDBRANCH  21  24
ENDBRANCH  15  22
ENDBRANCH   1  15
TORSDOF 5
