REMARK  Name = ZINC02059087
REMARK                            x       y       z     vdW  Elec       q    Type
REMARK                         _______ _______ _______ _____ _____    ______ ____
ROOT
ATOM      1  C   LIG    1       -0.067   5.323  -0.015  0.00  0.00    +0.049 C 
ATOM      2  C   LIG    1        1.030   6.108   0.096  0.00  0.00    +0.037 C 
ATOM      3  C   LIG    1        0.555   7.498   0.122  0.00  0.00    +0.043 C 
ATOM      4  C   LIG    1       -0.909   7.405   0.025  0.00  0.00    +0.255 C 
ATOM      5  O   LIG    1       -1.696   8.335   0.017  0.00  0.00    -0.269 OA
ATOM      6  C   LIG    1        1.324   8.652   0.222  0.00  0.00    +0.059 C 
ATOM      7  N   LIG    1       -1.215   6.096  -0.053  0.00  0.00    -0.236 N 
ENDROOT
BRANCH   1  11
ATOM      8  C   LIG    1        0.001   1.081  -0.200  0.00  0.00    +0.000 A 
ATOM      9  C   LIG    1       -0.759   1.798  -1.108  0.00  0.00    +0.001 A 
ATOM     10  C   LIG    1       -0.790   3.176  -1.050  0.00  0.00    +0.010 A 
ATOM     11  C   LIG    1       -0.043   3.848  -0.080  0.00  0.00    -0.003 A 
ATOM     12  C   LIG    1        0.726   3.118   0.829  0.00  0.00    +0.010 A 
ATOM     13  C   LIG    1        0.744   1.740   0.763  0.00  0.00    +0.001 A 
ENDBRANCH   1  11
BRANCH   7  14
ATOM     14  C   LIG    1       -2.511   5.589  -0.158  0.00  0.00    +0.042 A 
ATOM     15  C   LIG    1       -3.054   4.850   0.889  0.00  0.00    +0.024 A 
ATOM     16  C   LIG    1       -4.333   4.352   0.791  0.00  0.00    +0.017 A 
ATOM     17  C   LIG    1       -5.084   4.580  -0.366  0.00  0.00    +0.059 A 
ATOM     18  C   LIG    1       -4.534   5.319  -1.418  0.00  0.00    +0.017 A 
ATOM     19  C   LIG    1       -3.255   5.818  -1.311  0.00  0.00    +0.024 A 
BRANCH  17  20
ATOM     20  C   LIG    1       -6.453   4.044  -0.477  0.00  0.00    +0.337 C 
ATOM     21  O   LIG    1       -7.105   4.244  -1.483  0.00  0.00    -0.245 OA
BRANCH  20  22
ATOM     22  O   LIG    1       -6.982   3.333   0.538  0.00  0.00    -0.477 OA
ATOM     23  H   LIG    1       -6.480   3.178   1.314  0.00  0.00    +0.295 HD
ENDBRANCH  20  22
ENDBRANCH  17  20
ENDBRANCH   7  14
BRANCH   6  24
ATOM     24  C   LIG    1        0.702   9.911   0.239  0.00  0.00    +0.129 A 
ATOM     25  C   LIG    1        1.347  11.136   0.340  0.00  0.00    +0.050 A 
ATOM     26  C   LIG    1        0.355  12.116   0.315  0.00  0.00    +0.050 A 
ATOM     27  C   LIG    1       -0.856  11.463   0.210  0.00  0.00    +0.136 A 
ATOM     28  O   LIG    1       -0.627  10.139   0.165  0.00  0.00    -0.455 OA
BRANCH  27  29
ATOM     29  C   LIG    1       -2.180  12.110   0.155  0.00  0.00    +0.017 A 
ATOM     30  C   LIG    1       -2.285  13.502   0.217  0.00  0.00    +0.012 A 
ATOM     31  C   LIG    1       -3.526  14.100   0.162  0.00  0.00    +0.016 A 
ATOM     32  C   LIG    1       -4.668  13.324   0.054  0.00  0.00    +0.018 A 
ATOM     33 BR   LIG    1       -6.366  14.153  -0.014  0.00  0.00    -0.050 Br
ATOM     34  C   LIG    1       -4.572  11.944  -0.003  0.00  0.00    +0.016 A 
ATOM     35  C   LIG    1       -3.337  11.332   0.047  0.00  0.00    +0.012 A 
ENDBRANCH  27  29
ENDBRANCH   6  24
TORSDOF 6
