REMARK  Name = ZINC02078264
REMARK                            x       y       z     vdW  Elec       q    Type
REMARK                         _______ _______ _______ _____ _____    ______ ____
ROOT
ATOM      1  C   LIG    1       -0.560   1.428   3.622  0.00  0.00    +0.163 A 
ATOM      2  C   LIG    1       -1.699   2.209   3.682  0.00  0.00    +0.059 A 
ATOM      3  C   LIG    1       -2.211   2.595   4.923  0.00  0.00    -0.002 A 
ATOM      4  C   LIG    1       -1.569   2.191   6.097  0.00  0.00    +0.013 A 
ATOM      5  C   LIG    1       -0.434   1.413   6.029  0.00  0.00    +0.051 A 
ATOM      6  C   LIG    1        0.072   1.024   4.796  0.00  0.00    +0.173 A 
ENDROOT
BRANCH   3   7
ATOM      7  C   LIG    1       -3.425   3.428   4.994  0.00  0.00    +0.138 C 
ATOM      8  N   LIG    1       -3.900   3.787   6.148  0.00  0.00    -0.187 NA
BRANCH   8   9
ATOM      9  N   LIG    1       -5.054   4.578   6.216  0.00  0.00    -0.203 N 
ATOM     10  H   LIG    1       -5.498   4.858   5.400  0.00  0.00    +0.178 HD
ATOM     11  C   LIG    1       -5.547   4.951   7.413  0.00  0.00    +0.267 C 
ATOM     12  O   LIG    1       -4.990   4.599   8.436  0.00  0.00    -0.268 OA
BRANCH  11  13
ATOM     13  C   LIG    1       -6.762   5.784   7.485  0.00  0.00    +0.080 A 
ATOM     14  C   LIG    1       -7.405   6.189   6.312  0.00  0.00    +0.017 A 
ATOM     15  C   LIG    1       -8.540   6.968   6.386  0.00  0.00    +0.004 A 
ATOM     16  C   LIG    1       -9.047   7.350   7.617  0.00  0.00    -0.047 A 
ATOM     17  C   LIG    1      -10.289   8.200   7.684  0.00  0.00    +0.044 C 
ATOM     18  C   LIG    1       -8.421   6.956   8.783  0.00  0.00    +0.049 A 
ATOM     19  C   LIG    1       -7.281   6.168   8.728  0.00  0.00    +0.132 A 
BRANCH  19  20
ATOM     20  O   LIG    1       -6.668   5.776   9.873  0.00  0.00    -0.494 OA
ATOM     21  C   LIG    1       -7.255   6.206  11.103  0.00  0.00    +0.277 C 
ENDBRANCH  19  20
ENDBRANCH  11  13
ENDBRANCH   8   9
ENDBRANCH   3   7
BRANCH   1  22
ATOM     22  O   LIG    1       -0.059   1.049   2.416  0.00  0.00    -0.489 OA
BRANCH  22  24
ATOM     23  C   LIG    1       -0.053   0.973   0.000  0.00  0.00    +0.048 C 
ATOM     24  C   LIG    1       -0.760   1.494   1.253  0.00  0.00    +0.226 C 
ENDBRANCH  22  24
ENDBRANCH   1  22
BRANCH   6  25
ATOM     25  O   LIG    1        1.189   0.253   4.734  0.00  0.00    -0.419 OA
BRANCH  25  26
ATOM     26  C   LIG    1        2.355   0.882   4.491  0.00  0.00    +0.345 C 
ATOM     27  O   LIG    1        2.390   2.095   4.436  0.00  0.00    -0.245 OA
BRANCH  26  28
ATOM     28  C   LIG    1        3.590   0.098   4.291  0.00  0.00    +0.059 A 
ATOM     29  C   LIG    1        3.554  -1.297   4.360  0.00  0.00    +0.016 A 
ATOM     30  C   LIG    1        4.709  -2.023   4.167  0.00  0.00    +0.021 A 
ATOM     31  C   LIG    1        5.907  -1.373   3.917  0.00  0.00    +0.041 A 
ATOM     32 CL   LIG    1        7.359  -2.295   3.682  0.00  0.00    -0.084 Cl
ATOM     33  C   LIG    1        5.950   0.010   3.853  0.00  0.00    +0.021 A 
ATOM     34  C   LIG    1        4.800   0.748   4.038  0.00  0.00    +0.016 A 
ENDBRANCH  26  28
ENDBRANCH  25  26
ENDBRANCH   6  25
TORSDOF 9
