REMARK  Name = ZINC02009079
REMARK                            x       y       z     vdW  Elec       q    Type
REMARK                         _______ _______ _______ _____ _____    ______ ____
ROOT
ATOM      1  C   LIG    1        2.415   4.114   0.001  0.00  0.00    +0.227 C 
ENDROOT
BRANCH   1   2
ATOM      2  O   LIG    1        1.153   3.444   0.009  0.00  0.00    -0.492 OA
BRANCH   2   5
ATOM      3  C   LIG    1        0.002  -0.004   0.002  0.00  0.00    +0.022 A 
ATOM      4  C   LIG    1       -0.017   1.373   0.010  0.00  0.00    +0.047 A 
ATOM      5  C   LIG    1        1.176   2.086   0.002  0.00  0.00    +0.121 A 
ATOM      6  C   LIG    1        2.392   1.414  -0.013  0.00  0.00    +0.047 A 
ATOM      7  C   LIG    1        2.420   0.037  -0.021  0.00  0.00    +0.022 A 
ATOM      8  C   LIG    1        1.223  -0.684  -0.013  0.00  0.00    +0.052 A 
BRANCH   8   9
ATOM      9  C   LIG    1        1.247  -2.116  -0.021  0.00  0.00    +0.099 C 
ATOM     10  N   LIG    1        1.266  -3.252  -0.027  0.00  0.00    -0.191 NA
ENDBRANCH   8   9
ENDBRANCH   2   5
ENDBRANCH   1   2
BRANCH   1  11
ATOM     11  C   LIG    1        2.189   5.627   0.011  0.00  0.00    +0.022 C 
BRANCH  11  12
ATOM     12  C   LIG    1        3.541   6.345   0.002  0.00  0.00    -0.076 C 
BRANCH  12  13
ATOM     13  N   LIG    1        3.305   7.803   0.035  0.00  0.00    +0.380 N 
ATOM     14  H   LIG    1        2.672   8.021   0.814  0.00  0.00    -0.082 HD
ATOM     15  C   LIG    1        4.583   8.516   0.242  0.00  0.00    -0.079 C 
ATOM     16  C   LIG    1        4.299  10.012   0.391  0.00  0.00    -0.019 C 
ATOM     17  C   LIG    1        3.621  10.527  -0.882  0.00  0.00    -0.004 C 
ATOM     18  C   LIG    1        2.336   9.729  -1.125  0.00  0.00    -0.019 C 
ATOM     19  C   LIG    1        2.678   8.241  -1.230  0.00  0.00    -0.079 C 
ENDBRANCH  12  13
ENDBRANCH  11  12
ENDBRANCH   1  11
TORSDOF 6
