REMARK  Name = ZINC01753799
REMARK                            x       y       z     vdW  Elec       q    Type
REMARK                         _______ _______ _______ _____ _____    ______ ____
ROOT
ATOM      1  N   LIG    1       -1.443  -3.430   0.554  0.00  0.00    -0.251 N 
ATOM      2  H   LIG    1       -1.030  -4.198   0.129  0.00  0.00    +0.158 HD
ATOM      3  C   LIG    1       -2.785  -3.311   0.571  0.00  0.00    +0.309 C 
ATOM      4  N   LIG    1       -3.553  -4.259  -0.003  0.00  0.00    -0.266 N 
ATOM      5  H   LIG    1       -3.140  -4.993  -0.483  0.00  0.00    +0.156 HD
ATOM      6  O   LIG    1       -3.304  -2.349   1.104  0.00  0.00    -0.252 OA
ENDROOT
BRANCH   4   7
ATOM      7  C   LIG    1       -4.951  -4.184   0.096  0.00  0.00    +0.078 A 
ATOM      8  C   LIG    1       -5.582  -2.948   0.094  0.00  0.00    +0.050 A 
ATOM      9  C   LIG    1       -6.959  -2.874   0.191  0.00  0.00    +0.084 A 
ATOM     10 CL   LIG    1       -7.746  -1.327   0.189  0.00  0.00    -0.080 Cl
ATOM     11  C   LIG    1       -7.713  -4.035   0.290  0.00  0.00    +0.142 A 
ATOM     12  C   LIG    1       -7.086  -5.272   0.293  0.00  0.00    +0.094 A 
ATOM     13  C   LIG    1       -5.707  -5.349   0.190  0.00  0.00    +0.145 A 
BRANCH  11  14
ATOM     14  O   LIG    1       -9.067  -3.960   0.386  0.00  0.00    -0.494 OA
ATOM     15  C   LIG    1       -9.781  -5.194   0.485  0.00  0.00    +0.277 C 
ENDBRANCH  11  14
BRANCH  13  16
ATOM     16  O   LIG    1       -5.091  -6.562   0.187  0.00  0.00    -0.493 OA
ATOM     17  C   LIG    1       -5.929  -7.715   0.286  0.00  0.00    +0.277 C 
ENDBRANCH  13  16
ENDBRANCH   4   7
BRANCH   1  21
ATOM     18  C   LIG    1       -0.078   0.710   2.986  0.00  0.00    +0.089 C 
ATOM     19  C   LIG    1       -0.043  -0.597   2.236  0.00  0.00    +0.136 A 
ATOM     20  C   LIG    1       -1.112  -1.285   1.799  0.00  0.00    +0.091 A 
ATOM     21  C   LIG    1       -0.648  -2.450   1.148  0.00  0.00    +0.169 A 
ATOM     22  N   LIG    1        0.659  -2.446   1.201  0.00  0.00    -0.063 NA
ATOM     23  O   LIG    1        1.062  -1.273   1.884  0.00  0.00    -0.358 OA
ENDBRANCH   1  21
TORSDOF 4
