REMARK  Name = ZINC02039372
REMARK                            x       y       z     vdW  Elec       q    Type
REMARK                         _______ _______ _______ _____ _____    ______ ____
ROOT
ATOM      1  C   LIG    1        0.193   1.625   4.950  0.00  0.00    -0.000 C 
ENDROOT
BRANCH   1   2
ATOM      2  C   LIG    1       -0.523   2.118   6.209  0.00  0.00    -0.000 C 
BRANCH   2   3
ATOM      3  C   LIG    1        0.285   1.717   7.445  0.00  0.00    -0.000 C 
BRANCH   3   4
ATOM      4  C   LIG    1       -0.431   2.211   8.704  0.00  0.00    -0.000 C 
BRANCH   4   5
ATOM      5  C   LIG    1        0.376   1.810   9.940  0.00  0.00    -0.000 C 
BRANCH   5   6
ATOM      6  C   LIG    1       -0.340   2.304  11.199  0.00  0.00    -0.000 C 
BRANCH   6   7
ATOM      7  C   LIG    1        0.467   1.903  12.435  0.00  0.00    -0.000 C 
BRANCH   7   9
ATOM      8  C   LIG    1        0.559   1.996  14.930  0.00  0.00    +0.004 C 
ATOM      9  C   LIG    1       -0.249   2.396  13.694  0.00  0.00    -0.003 C 
ENDBRANCH   7   9
ENDBRANCH   6   7
ENDBRANCH   5   6
ENDBRANCH   4   5
ENDBRANCH   3   4
ENDBRANCH   2   3
ENDBRANCH   1   2
BRANCH   1  10
ATOM     10  C   LIG    1       -0.614   2.025   3.714  0.00  0.00    -0.002 C 
BRANCH  10  11
ATOM     11  C   LIG    1        0.102   1.532   2.455  0.00  0.00    -0.014 C 
BRANCH  11  12
ATOM     12  C   LIG    1       -0.705   1.933   1.219  0.00  0.00    -0.033 C 
BRANCH  12  13
ATOM     13  N   LIG    1       -0.018   1.459   0.010  0.00  0.00    +0.397 N 
ATOM     14  C   LIG    1       -0.728   1.945  -1.180  0.00  0.00    -0.045 C 
ATOM     15  C   LIG    1        1.360   1.967  -0.000  0.00  0.00    -0.045 C 
BRANCH  13  16
ATOM     16  O   LIG    1        0.002  -0.004   0.002  0.00  0.00    -0.445 OA
ATOM     17  H   LIG    1        0.471  -0.325   0.788  0.00  0.00    +0.186 HD
ENDBRANCH  13  16
ENDBRANCH  12  13
ENDBRANCH  11  12
ENDBRANCH  10  11
ENDBRANCH   1  10
TORSDOF 12
