REMARK  Name = ZINC01864765
REMARK                            x       y       z     vdW  Elec       q    Type
REMARK                         _______ _______ _______ _____ _____    ______ ____
ROOT
ATOM      1  C   LIG    1        4.695   5.176  -0.015  0.00  0.00    +0.001 A 
ATOM      2  C   LIG    1        4.240   6.487  -0.004  0.00  0.00    +0.002 A 
ATOM      3  C   LIG    1        2.890   6.762   0.010  0.00  0.00    +0.026 A 
ATOM      4  C   LIG    1        1.972   5.716   0.013  0.00  0.00    +0.047 A 
ATOM      5  C   LIG    1        2.439   4.392   0.008  0.00  0.00    +0.009 A 
ATOM      6  C   LIG    1        1.239   3.539   0.009  0.00  0.00    +0.026 A 
ATOM      7  C   LIG    1        0.169   4.375   0.023  0.00  0.00    +0.093 A 
ATOM      8  N   LIG    1        0.595   5.668   0.026  0.00  0.00    -0.360 N 
ATOM      9  H   LIG    1        0.012   6.444   0.036  0.00  0.00    +0.165 HD
ATOM     10  C   LIG    1        3.809   4.135  -0.013  0.00  0.00    +0.010 A 
ENDROOT
BRANCH   6  11
ATOM     11  C   LIG    1        1.205   2.061   0.002  0.00  0.00    +0.078 A 
ATOM     12  C   LIG    1       -0.017   1.377   0.010  0.00  0.00    +0.048 A 
ATOM     13  C   LIG    1        0.002  -0.004   0.002  0.00  0.00    +0.116 A 
ATOM     14  N   LIG    1        1.166  -0.637  -0.013  0.00  0.00    -0.223 NA
ATOM     15  C   LIG    1        2.308   0.034  -0.020  0.00  0.00    +0.213 A 
ATOM     16  N   LIG    1        2.337   1.358  -0.013  0.00  0.00    -0.215 NA
BRANCH  15  17
ATOM     17  N   LIG    1        3.502  -0.666  -0.035  0.00  0.00    -0.327 N 
ATOM     18  H   LIG    1        4.345  -0.187  -0.040  0.00  0.00    +0.145 HD
ATOM     19  H   LIG    1        3.495  -1.636  -0.039  0.00  0.00    +0.145 HD
ENDBRANCH  15  17
ENDBRANCH   6  11
TORSDOF 2
