REMARK  Name = ZINC01794259
REMARK                            x       y       z     vdW  Elec       q    Type
REMARK                         _______ _______ _______ _____ _____    ______ ____
ROOT
ATOM      1  C   LIG    1        0.572  -4.196  -0.099  0.00  0.00    +0.244 C 
ATOM      2  N   LIG    1        0.471  -4.864  -1.265  0.00  0.00    -0.311 N 
ATOM      3  H   LIG    1        0.212  -4.394  -2.073  0.00  0.00    +0.149 HD
ATOM      4  O   LIG    1        0.896  -4.786   0.913  0.00  0.00    -0.270 OA
ENDROOT
BRANCH   1   9
ATOM      5  C   LIG    1       -0.538   1.447   0.089  0.00  0.00    +0.046 C 
ATOM      6  C   LIG    1       -0.247  -0.031   0.040  0.00  0.00    -0.020 A 
ATOM      7  C   LIG    1       -0.350  -0.713  -1.160  0.00  0.00    +0.006 A 
ATOM      8  C   LIG    1       -0.086  -2.066  -1.211  0.00  0.00    +0.013 A 
ATOM      9  C   LIG    1        0.287  -2.746  -0.051  0.00  0.00    +0.039 A 
ATOM     10  C   LIG    1        0.390  -2.052   1.155  0.00  0.00    +0.046 A 
ATOM     11  C   LIG    1        0.127  -0.698   1.192  0.00  0.00    +0.125 A 
BRANCH  11  12
ATOM     12  N   LIG    1        0.241   0.042   2.469  0.00  0.00    +0.006 N 
ATOM     13  O   LIG    1        0.675   1.170   2.478  0.00  0.00    -0.130 OA
BRANCH  12  14
ATOM     14  O   LIG    1       -0.100  -0.482   3.504  0.00  0.00    -0.396 OA
ATOM     15  H   LIG    1       -0.436  -1.357   3.498  0.00  0.00    +0.329 HD
ENDBRANCH  12  14
ENDBRANCH  11  12
ENDBRANCH   1   9
BRANCH   2  16
ATOM     16  C   LIG    1        0.753  -6.301  -1.313  0.00  0.00    +0.106 C 
BRANCH  16  17
ATOM     17  C   LIG    1        0.567  -6.810  -2.744  0.00  0.00    +0.040 C 
BRANCH  17  18
ATOM     18  C   LIG    1        0.861  -8.311  -2.793  0.00  0.00    +0.124 C 
BRANCH  18  19
ATOM     19  N   LIG    1        0.683  -8.798  -4.163  0.00  0.00    -0.338 N 
ATOM     20  C   LIG    1       -0.476  -9.278  -4.710  0.00  0.00    +0.104 A 
ATOM     21  C   LIG    1       -0.196  -9.614  -5.984  0.00  0.00    +0.101 A 
ATOM     22  N   LIG    1        1.099  -9.346  -6.209  0.00  0.00    -0.352 N 
ATOM     23  H   LIG    1        1.565  -9.493  -7.046  0.00  0.00    +0.166 HD
ATOM     24  C   LIG    1        1.631  -8.853  -5.124  0.00  0.00    +0.173 A 
ENDBRANCH  18  19
ENDBRANCH  17  18
ENDBRANCH  16  17
ENDBRANCH   2  16
TORSDOF 7
