REMARK  Name = ZINC02009671
REMARK                            x       y       z     vdW  Elec       q    Type
REMARK                         _______ _______ _______ _____ _____    ______ ____
ROOT
ATOM      1  N   LIG    1       -0.075  -2.780  -0.013  0.00  0.00    -0.325 N 
ATOM      2  C   LIG    1        0.571  -3.196   1.241  0.00  0.00    +0.120 C 
ATOM      3  C   LIG    1        0.835  -4.704   1.175  0.00  0.00    +0.103 C 
ATOM      4  N   LIG    1        1.591  -5.013  -0.046  0.00  0.00    -0.299 NA
ATOM      5  C   LIG    1        0.818  -4.681  -1.250  0.00  0.00    +0.103 C 
ATOM      6  C   LIG    1        0.549  -3.177  -1.283  0.00  0.00    +0.120 C 
ENDROOT
BRANCH   1  12
ATOM      7  C   LIG    1       -1.201  -0.638   0.010  0.00  0.00    +0.141 A 
ATOM      8  C   LIG    1       -2.374   0.099   0.019  0.00  0.00    +0.047 A 
ATOM      9  C   LIG    1       -3.597  -0.547   0.028  0.00  0.00    +0.004 A 
ATOM     10  C   LIG    1       -3.653  -1.928   0.027  0.00  0.00    +0.002 A 
ATOM     11  C   LIG    1       -2.487  -2.671   0.017  0.00  0.00    +0.027 A 
ATOM     12  C   LIG    1       -1.257  -2.030   0.003  0.00  0.00    +0.072 A 
BRANCH   7  14
ATOM     13  C   LIG    1       -0.017   1.425   0.010  0.00  0.00    +0.277 C 
ATOM     14  O   LIG    1        0.002  -0.004   0.002  0.00  0.00    -0.493 OA
ENDBRANCH   7  14
ENDBRANCH   1  12
BRANCH   4  15
ATOM     15  C   LIG    1        2.014  -6.420  -0.063  0.00  0.00    +0.084 C 
BRANCH  15  16
ATOM     16  C   LIG    1        2.999  -6.643  -1.211  0.00  0.00    +0.017 C 
BRANCH  16  17
ATOM     17  C   LIG    1        3.439  -8.108  -1.228  0.00  0.00    +0.021 C 
BRANCH  17  18
ATOM     18  C   LIG    1        4.425  -8.331  -2.377  0.00  0.00    +0.116 C 
BRANCH  18  19
ATOM     19  N   LIG    1        4.846  -9.735  -2.393  0.00  0.00    -0.242 N 
ATOM     20  C   LIG    1        5.907 -10.180  -1.710  0.00  0.00    +0.222 C 
ATOM     21  C   LIG    1        6.061 -11.667  -1.944  0.00  0.00    +0.105 C 
ATOM     22  C   LIG    1        4.893 -12.007  -2.891  0.00  0.00    +0.105 C 
ATOM     23  O   LIG    1        6.630  -9.501  -1.014  0.00  0.00    -0.275 OA
ATOM     24  C   LIG    1        4.198 -10.677  -3.088  0.00  0.00    +0.222 C 
ATOM     25  O   LIG    1        3.212 -10.494  -3.769  0.00  0.00    -0.275 OA
ENDBRANCH  18  19
ENDBRANCH  17  18
ENDBRANCH  16  17
ENDBRANCH  15  16
ENDBRANCH   4  15
TORSDOF 7
