REMARK  Name = ZINC02036061
REMARK                            x       y       z     vdW  Elec       q    Type
REMARK                         _______ _______ _______ _____ _____    ______ ____
ROOT
ATOM      1  C   LIG    1       -3.489  -0.233  -0.991  0.00  0.00    +0.120 A 
ATOM      2  C   LIG    1       -4.083  -1.258  -1.717  0.00  0.00    +0.046 A 
ATOM      3  C   LIG    1       -5.392  -1.611  -1.470  0.00  0.00    +0.011 A 
ATOM      4  C   LIG    1       -6.122  -0.936  -0.486  0.00  0.00    -0.025 A 
ATOM      5  C   LIG    1       -5.519   0.094   0.241  0.00  0.00    +0.011 A 
ATOM      6  C   LIG    1       -4.208   0.436  -0.009  0.00  0.00    +0.046 A 
ENDROOT
BRANCH   4   7
ATOM      7  C   LIG    1       -7.522  -1.310  -0.219  0.00  0.00    +0.008 C 
ATOM      8  C   LIG    1       -8.221  -0.660   0.726  0.00  0.00    +0.008 C 
BRANCH   8   9
ATOM      9  C   LIG    1       -9.621  -1.034   0.994  0.00  0.00    -0.025 A 
ATOM     10  C   LIG    1      -10.223  -2.067   0.271  0.00  0.00    +0.008 A 
ATOM     11  C   LIG    1      -11.534  -2.411   0.527  0.00  0.00    +0.001 A 
ATOM     12  C   LIG    1      -12.253  -1.736   1.498  0.00  0.00    +0.000 A 
ATOM     13  C   LIG    1      -11.664  -0.711   2.218  0.00  0.00    +0.001 A 
ATOM     14  C   LIG    1      -10.352  -0.360   1.976  0.00  0.00    +0.008 A 
ENDBRANCH   8   9
ENDBRANCH   4   7
BRANCH   1  15
ATOM     15  O   LIG    1       -2.198   0.111  -1.238  0.00  0.00    -0.494 OA
BRANCH  15  16
ATOM     16  C   LIG    1       -1.516  -0.618  -2.260  0.00  0.00    +0.211 C 
BRANCH  16  17
ATOM     17  C   LIG    1       -0.086  -0.093  -2.394  0.00  0.00    -0.034 C 
BRANCH  17  18
ATOM     18  N   LIG    1        0.674  -0.430  -1.182  0.00  0.00    +0.382 N 
BRANCH  18  20
ATOM     19  C   LIG    1        0.074   1.792  -0.346  0.00  0.00    -0.016 C 
ATOM     20  C   LIG    1        0.112   0.295  -0.035  0.00  0.00    -0.078 C 
ENDBRANCH  18  20
BRANCH  18  21
ATOM     21  C   LIG    1        0.590  -1.876  -0.937  0.00  0.00    -0.078 C 
ATOM     22  C   LIG    1        1.175  -2.630  -2.132  0.00  0.00    -0.016 C 
ENDBRANCH  18  21
BRANCH  18  23
ATOM     23  C   LIG    1        2.080  -0.045  -1.364  0.00  0.00    -0.078 C 
ATOM     24  C   LIG    1        2.872  -0.396  -0.102  0.00  0.00    -0.016 C 
ENDBRANCH  18  23
ENDBRANCH  17  18
ENDBRANCH  16  17
ENDBRANCH  15  16
ENDBRANCH   1  15
TORSDOF 9
