REMARK  Name = ZINC02049560
REMARK                            x       y       z     vdW  Elec       q    Type
REMARK                         _______ _______ _______ _____ _____    ______ ____
ROOT
ATOM      1  C   LIG    1        2.681  -2.447  -6.595  0.00  0.00    +0.085 C 
ATOM      2  C   LIG    1        2.989  -1.744  -7.725  0.00  0.00    +0.053 C 
ATOM      3  C   LIG    1        2.221  -1.997  -8.997  0.00  0.00    +0.066 C 
ATOM      4  N   LIG    1        3.961  -0.840  -7.712  0.00  0.00    -0.228 NA
ATOM      5  C   LIG    1        4.689  -0.540  -6.666  0.00  0.00    +0.178 A 
ATOM      6  N   LIG    1        4.542  -1.129  -5.432  0.00  0.00    -0.275 N 
ATOM      7  C   LIG    1        5.347  -0.739  -4.434  0.00  0.00    +0.268 A 
ATOM      8  C   LIG    1        6.345   0.301  -4.720  0.00  0.00    +0.081 A 
ATOM      9  C   LIG    1        7.266   0.863  -3.894  0.00  0.00    +0.028 C 
ATOM     10  O   LIG    1        5.254  -1.232  -3.325  0.00  0.00    -0.266 OA
ATOM     11  S   LIG    1        6.019   0.626  -6.445  0.00  0.00    -0.046 S 
ATOM     12  C   LIG    1        3.474  -2.164  -5.341  0.00  0.00    +0.162 C 
ENDROOT
BRANCH   9  13
ATOM     13  C   LIG    1        8.281   1.773  -4.439  0.00  0.00    -0.024 A 
ATOM     14  C   LIG    1        8.422   1.920  -5.825  0.00  0.00    +0.011 A 
ATOM     15  C   LIG    1        9.372   2.779  -6.330  0.00  0.00    +0.046 A 
ATOM     16  C   LIG    1       10.198   3.490  -5.468  0.00  0.00    +0.121 A 
ATOM     17  C   LIG    1       10.067   3.344  -4.092  0.00  0.00    +0.046 A 
ATOM     18  C   LIG    1        9.117   2.492  -3.575  0.00  0.00    +0.011 A 
BRANCH  16  19
ATOM     19  O   LIG    1       11.137   4.332  -5.972  0.00  0.00    -0.481 OA
BRANCH  19  20
ATOM     20  C   LIG    1       11.219   4.435  -7.394  0.00  0.00    +0.349 C 
BRANCH  20  21
ATOM     21  C   LIG    1       12.309   5.407  -7.766  0.00  0.00    +0.343 C 
ATOM     22  O   LIG    1       12.950   5.955  -6.900  0.00  0.00    -0.247 OA
BRANCH  21  23
ATOM     23  O   LIG    1       12.568   5.665  -9.057  0.00  0.00    -0.478 OA
ATOM     24  H   LIG    1       12.070   5.240  -9.728  0.00  0.00    +0.295 HD
ENDBRANCH  21  23
ENDBRANCH  20  21
ENDBRANCH  19  20
ENDBRANCH  16  19
ENDBRANCH   9  13
BRANCH  12  25
ATOM     25  C   LIG    1        2.506  -1.737  -4.267  0.00  0.00    -0.020 A 
ATOM     26  C   LIG    1        2.036  -2.664  -3.354  0.00  0.00    +0.007 A 
ATOM     27  C   LIG    1        1.149  -2.277  -2.370  0.00  0.00    +0.015 A 
ATOM     28  C   LIG    1        0.729  -0.954  -2.296  0.00  0.00    +0.008 A 
ATOM     29  C   LIG    1        1.199  -0.027  -3.218  0.00  0.00    +0.015 A 
ATOM     30  C   LIG    1        2.091  -0.420  -4.197  0.00  0.00    +0.007 A 
BRANCH  28  31
ATOM     31  S   LIG    1       -0.403  -0.456  -1.041  0.00  0.00    -0.129 S 
ATOM     32  C   LIG    1       -0.645   1.316  -1.347  0.00  0.00    +0.090 C 
ENDBRANCH  28  31
ENDBRANCH  12  25
BRANCH   1  33
ATOM     33  C   LIG    1        1.655  -3.406  -6.600  0.00  0.00    +0.339 C 
ATOM     34  O   LIG    1        1.026  -3.621  -7.622  0.00  0.00    -0.245 OA
BRANCH  33  35
ATOM     35  O   LIG    1        1.365  -4.091  -5.472  0.00  0.00    -0.462 OA
BRANCH  35  37
ATOM     36  C   LIG    1        0.127  -5.720  -4.186  0.00  0.00    +0.048 C 
ATOM     37  C   LIG    1        0.309  -5.051  -5.550  0.00  0.00    +0.229 C 
ENDBRANCH  35  37
ENDBRANCH  33  35
ENDBRANCH   1  33
TORSDOF 10
