REMARK  Name = ZINC01889413
REMARK                            x       y       z     vdW  Elec       q    Type
REMARK                         _______ _______ _______ _____ _____    ______ ____
ROOT
ATOM      1  N   LIG    1       -0.715   1.080   3.421  0.00  0.00    -0.269 N 
ATOM      2  H   LIG    1       -1.640   0.863   3.225  0.00  0.00    +0.156 HD
ATOM      3  C   LIG    1        0.036   1.719   2.502  0.00  0.00    +0.304 C 
ATOM      4  N   LIG    1       -0.477   1.994   1.286  0.00  0.00    -0.298 N 
ATOM      5  H   LIG    1       -1.386   1.732   1.072  0.00  0.00    +0.150 HD
ATOM      6  O   LIG    1        1.175   2.047   2.769  0.00  0.00    -0.253 OA
ENDROOT
BRANCH   1  12
ATOM      7  C   LIG    1        1.020   0.001   4.708  0.00  0.00    -0.023 A 
ATOM      8  C   LIG    1        1.568  -0.338   5.930  0.00  0.00    +0.006 A 
ATOM      9  C   LIG    1        0.936   0.038   7.101  0.00  0.00    +0.001 A 
ATOM     10  C   LIG    1       -0.243   0.759   7.053  0.00  0.00    +0.006 A 
ATOM     11  C   LIG    1       -0.793   1.106   5.835  0.00  0.00    -0.023 A 
ATOM     12  C   LIG    1       -0.161   0.730   4.657  0.00  0.00    +0.042 A 
BRANCH   7  14
ATOM     13  C   LIG    1        3.175   0.013   3.481  0.00  0.00    +0.012 C 
ATOM     14  C   LIG    1        1.706  -0.414   3.433  0.00  0.00    +0.015 C 
ATOM     15  C   LIG    1        1.622  -1.934   3.280  0.00  0.00    +0.012 C 
ENDBRANCH   7  14
BRANCH  11  16
ATOM     16  C   LIG    1       -2.078   1.892   5.783  0.00  0.00    +0.015 C 
ATOM     17  C   LIG    1       -1.885   3.232   6.496  0.00  0.00    +0.012 C 
ATOM     18  C   LIG    1       -3.188   1.100   6.478  0.00  0.00    +0.012 C 
ENDBRANCH  11  16
ENDBRANCH   1  12
BRANCH   4  19
ATOM     19  C   LIG    1        0.339   2.688   0.287  0.00  0.00    +0.117 C 
BRANCH  19  20
ATOM     20  C   LIG    1       -0.512   2.987  -0.949  0.00  0.00    +0.011 C 
ATOM     21  C   LIG    1       -1.129   1.686  -1.492  0.00  0.00    +0.013 C 
ATOM     22  C   LIG    1       -0.595   1.513  -2.929  0.00  0.00    +0.001 C 
ATOM     23  C   LIG    1        0.722   2.328  -2.947  0.00  0.00    +0.001 C 
ATOM     24  C   LIG    1        0.374   3.560  -2.075  0.00  0.00    +0.013 C 
BRANCH  20  25
ATOM     25  C   LIG    1       -1.601   3.968  -0.600  0.00  0.00    -0.040 A 
ATOM     26  C   LIG    1       -1.662   4.511   0.670  0.00  0.00    +0.004 A 
ATOM     27  C   LIG    1       -2.658   5.415   0.989  0.00  0.00    +0.000 A 
ATOM     28  C   LIG    1       -3.600   5.768   0.041  0.00  0.00    +0.000 A 
ATOM     29  C   LIG    1       -3.543   5.221  -1.227  0.00  0.00    +0.000 A 
ATOM     30  C   LIG    1       -2.543   4.322  -1.548  0.00  0.00    +0.004 A 
ENDBRANCH  20  25
ENDBRANCH  19  20
ENDBRANCH   4  19
TORSDOF 6
