REMARK  Name = ZINC01811473
REMARK                            x       y       z     vdW  Elec       q    Type
REMARK                         _______ _______ _______ _____ _____    ______ ____
ROOT
ATOM      1  N   LIG    1        3.197  -1.856   2.035  0.00  0.00    -0.241 N 
ATOM      2  C   LIG    1        2.547  -1.440   3.109  0.00  0.00    +0.260 C 
ATOM      3  C   LIG    1        1.648  -2.432   3.760  0.00  0.00    +0.089 C 
ATOM      4  S   LIG    1        1.886  -3.848   2.695  0.00  0.00    -0.060 S 
ATOM      5  C   LIG    1        0.849  -2.295   4.879  0.00  0.00    +0.065 C 
ATOM      6  C   LIG    1        0.800  -1.153   5.815  0.00  0.00    +0.010 A 
ATOM      7  C   LIG    1        1.482   0.059   5.877  0.00  0.00    +0.010 A 
ATOM      8  C   LIG    1        1.211   0.945   6.900  0.00  0.00    +0.001 A 
ATOM      9  C   LIG    1        0.264   0.629   7.860  0.00  0.00    +0.002 A 
ATOM     10  C   LIG    1       -0.418  -0.571   7.808  0.00  0.00    +0.024 A 
ATOM     11  C   LIG    1       -0.160  -1.476   6.786  0.00  0.00    +0.045 A 
ATOM     12  N   LIG    1       -0.693  -2.729   6.504  0.00  0.00    -0.256 N 
ATOM     13  C   LIG    1       -0.147  -3.256   5.396  0.00  0.00    +0.253 C 
ATOM     14  O   LIG    1       -0.421  -4.336   4.906  0.00  0.00    -0.270 OA
ATOM     15  O   LIG    1        2.675  -0.311   3.540  0.00  0.00    -0.269 OA
ATOM     16  C   LIG    1        3.047  -3.108   1.558  0.00  0.00    +0.121 C 
ATOM     17  S   LIG    1        3.792  -3.818   0.190  0.00  0.00    -0.027 S 
ENDROOT
BRANCH   1  18
ATOM     18  C   LIG    1        4.100  -0.932   1.344  0.00  0.00    +0.195 C 
BRANCH  18  19
ATOM     19  C   LIG    1        5.495  -1.501   1.339  0.00  0.00    +0.326 C 
ATOM     20  O   LIG    1        6.458  -0.754   1.337  0.00  0.00    -0.249 OA
BRANCH  19  21
ATOM     21  O   LIG    1        5.660  -2.709   1.336  0.00  0.00    -0.479 OA
ATOM     22  H   LIG    1        4.920  -3.283   1.337  0.00  0.00    +0.295 HD
ENDBRANCH  19  21
ENDBRANCH  18  19
BRANCH  18  23
ATOM     23  C   LIG    1        3.623  -0.736  -0.097  0.00  0.00    +0.069 C 
BRANCH  23  27
ATOM     24  C   LIG    1       -0.186   1.198  -0.089  0.00  0.00    +0.000 A 
ATOM     25  C   LIG    1        0.972   1.952  -0.124  0.00  0.00    +0.000 A 
ATOM     26  C   LIG    1        2.205   1.326  -0.126  0.00  0.00    +0.004 A 
ATOM     27  C   LIG    1        2.279  -0.054  -0.093  0.00  0.00    -0.045 A 
ATOM     28  C   LIG    1        1.121  -0.808  -0.058  0.00  0.00    +0.004 A 
ATOM     29  C   LIG    1       -0.111  -0.182  -0.057  0.00  0.00    +0.000 A 
ENDBRANCH  23  27
ENDBRANCH  18  23
ENDBRANCH   1  18
BRANCH  12  30
ATOM     30  C   LIG    1       -1.724  -3.387   7.310  0.00  0.00    +0.234 C 
BRANCH  30  31
ATOM     31  C   LIG    1       -3.087  -3.005   6.792  0.00  0.00    +0.323 C 
ATOM     32  O   LIG    1       -3.187  -2.252   5.838  0.00  0.00    -0.249 OA
BRANCH  31  33
ATOM     33  O   LIG    1       -4.089  -3.448   7.326  0.00  0.00    -0.480 OA
ATOM     34  H   LIG    1       -4.012  -4.027   8.059  0.00  0.00    +0.295 HD
ENDBRANCH  31  33
ENDBRANCH  30  31
ENDBRANCH  12  30
TORSDOF 8
