REMARK  Name = ZINC02008848
REMARK                            x       y       z     vdW  Elec       q    Type
REMARK                         _______ _______ _______ _____ _____    ______ ____
ROOT
ATOM      1  C   LIG    1        6.725   1.312   1.464  0.00  0.00    +0.037 A 
ATOM      2  C   LIG    1        7.915   2.021   1.354  0.00  0.00    +0.127 A 
ATOM      3  C   LIG    1        8.075   2.989   0.371  0.00  0.00    +0.092 A 
ATOM      4  C   LIG    1        7.043   3.259  -0.510  0.00  0.00    +0.134 A 
ATOM      5  C   LIG    1        5.837   2.548  -0.402  0.00  0.00    +0.101 A 
ATOM      6  C   LIG    1        4.723   2.820  -1.316  0.00  0.00    +0.174 C 
ATOM      7  O   LIG    1        4.716   3.792  -2.042  0.00  0.00    -0.292 OA
ATOM      8  C   LIG    1        3.579   1.821  -1.309  0.00  0.00    +0.129 C 
ATOM      9  C   LIG    1        3.333   1.424   0.154  0.00  0.00    +0.215 C 
ATOM     10  O   LIG    1        4.528   0.863   0.698  0.00  0.00    -0.482 OA
ATOM     11  C   LIG    1        5.681   1.564   0.592  0.00  0.00    +0.142 A 
ENDROOT
BRANCH   9  12
ATOM     12  C   LIG    1        2.225   0.405   0.218  0.00  0.00    +0.035 A 
ATOM     13  C   LIG    1        2.527  -0.943   0.248  0.00  0.00    +0.014 A 
ATOM     14  C   LIG    1        1.513  -1.880   0.307  0.00  0.00    +0.046 A 
ATOM     15  C   LIG    1        0.188  -1.468   0.337  0.00  0.00    +0.120 A 
ATOM     16  C   LIG    1       -0.118  -0.117   0.308  0.00  0.00    +0.091 A 
ATOM     17  C   LIG    1        0.902   0.821   0.248  0.00  0.00    +0.127 A 
BRANCH  15  18
ATOM     18  O   LIG    1       -0.809  -2.390   0.395  0.00  0.00    -0.507 OA
ATOM     19  H   LIG    1       -1.125  -2.682  -0.471  0.00  0.00    +0.292 HD
ENDBRANCH  15  18
BRANCH  17  20
ATOM     20  O   LIG    1        0.605   2.147   0.219  0.00  0.00    -0.506 OA
ATOM     21  H   LIG    1        0.547   2.557   1.093  0.00  0.00    +0.292 HD
ENDBRANCH  17  20
ENDBRANCH   9  12
BRANCH   2  22
ATOM     22  O   LIG    1        8.931   1.766   2.216  0.00  0.00    -0.506 OA
ATOM     23  H   LIG    1        9.582   1.134   1.881  0.00  0.00    +0.292 HD
ENDBRANCH   2  22
BRANCH   4  24
ATOM     24  O   LIG    1        7.195   4.202  -1.473  0.00  0.00    -0.506 OA
ATOM     25  H   LIG    1        6.927   5.090  -1.199  0.00  0.00    +0.292 HD
ENDBRANCH   4  24
BRANCH   1  26
ATOM     26  C   LIG    1        6.572   0.264   2.537  0.00  0.00    +0.050 C 
BRANCH  26  27
ATOM     27  C   LIG    1        6.153   0.934   3.848  0.00  0.00    +0.022 C 
BRANCH  27  28
ATOM     28  C   LIG    1        4.772   1.517   3.695  0.00  0.00    -0.076 C 
ATOM     29  C   LIG    1        3.590   0.607   3.482  0.00  0.00    +0.039 C 
ATOM     30  C   LIG    1        4.599   2.814   3.749  0.00  0.00    +0.007 C 
ENDBRANCH  27  28
BRANCH  27  31
ATOM     31  C   LIG    1        6.148  -0.104   4.972  0.00  0.00    +0.035 C 
BRANCH  31  35
ATOM     32  C   LIG    1        4.135  -1.110   6.671  0.00  0.00    +0.038 C 
ATOM     33  C   LIG    1        4.881   0.145   7.044  0.00  0.00    -0.080 C 
ATOM     34  C   LIG    1        4.504   0.904   8.290  0.00  0.00    +0.038 C 
ATOM     35  C   LIG    1        5.856   0.578   6.284  0.00  0.00    -0.028 C 
ENDBRANCH  31  35
ENDBRANCH  27  31
ENDBRANCH  26  27
ENDBRANCH   1  26
TORSDOF 10
