REMARK  Name = ZINC01752617
REMARK                            x       y       z     vdW  Elec       q    Type
REMARK                         _______ _______ _______ _____ _____    ______ ____
ROOT
ATOM      1  N   LIG    1        3.490   5.929  -0.204  0.00  0.00    -0.268 N 
ATOM      2  H   LIG    1        4.331   5.454  -0.291  0.00  0.00    +0.156 HD
ATOM      3  C   LIG    1        2.336   5.243  -0.091  0.00  0.00    +0.308 C 
ATOM      4  N   LIG    1        2.359   3.900   0.018  0.00  0.00    -0.266 N 
ATOM      5  H   LIG    1        3.207   3.433   0.083  0.00  0.00    +0.156 HD
ATOM      6  O   LIG    1        1.274   5.835  -0.086  0.00  0.00    -0.252 OA
ENDROOT
BRANCH   1  11
ATOM      7  C   LIG    1        3.446  10.097  -0.184  0.00  0.00    +0.014 A 
ATOM      8  C   LIG    1        4.483   9.421  -0.801  0.00  0.00    +0.022 A 
ATOM      9  C   LIG    1        4.501   8.040  -0.810  0.00  0.00    +0.062 A 
ATOM     10 CL   LIG    1        5.803   7.192  -1.585  0.00  0.00    -0.082 Cl
ATOM     11  C   LIG    1        3.475   7.329  -0.198  0.00  0.00    +0.054 A 
ATOM     12  C   LIG    1        2.434   8.011   0.416  0.00  0.00    +0.037 A 
ATOM     13  C   LIG    1        2.424   9.393   0.426  0.00  0.00    +0.057 A 
BRANCH  13  14
ATOM     14  C   LIG    1        1.296  10.133   1.097  0.00  0.00    +0.417 C 
ATOM     15  F   LIG    1        1.254   9.789   2.452  0.00  0.00    -0.166 F 
ATOM     16  F   LIG    1        0.085   9.786   0.489  0.00  0.00    -0.166 F 
ATOM     17  F   LIG    1        1.503  11.511   0.971  0.00  0.00    -0.166 F 
ENDBRANCH  13  14
ENDBRANCH   1  11
BRANCH   4  18
ATOM     18  C   LIG    1        1.158   3.178   0.036  0.00  0.00    +0.078 A 
ATOM     19  C   LIG    1        0.033   3.715   0.645  0.00  0.00    +0.047 A 
ATOM     20  C   LIG    1       -1.151   3.001   0.661  0.00  0.00    +0.043 A 
ATOM     21 CL   LIG    1       -2.558   3.674   1.423  0.00  0.00    -0.083 Cl
ATOM     22  C   LIG    1       -1.218   1.752   0.068  0.00  0.00    +0.023 A 
ATOM     23  C   LIG    1       -0.099   1.209  -0.535  0.00  0.00    +0.049 A 
ATOM     24  C   LIG    1        1.091   1.919  -0.556  0.00  0.00    +0.138 A 
BRANCH  24  25
ATOM     25  O   LIG    1        2.191   1.387  -1.153  0.00  0.00    -0.505 OA
ATOM     26  H   LIG    1        2.273   1.607  -2.092  0.00  0.00    +0.292 HD
ENDBRANCH  24  25
ENDBRANCH   4  18
TORSDOF 4
