REMARK  Name = ZINC02007763
REMARK                            x       y       z     vdW  Elec       q    Type
REMARK                         _______ _______ _______ _____ _____    ______ ____
ROOT
ATOM      1  C   LIG    1       -0.452   0.737  -4.873  0.00  0.00    +0.029 C 
ENDROOT
BRANCH   1  15
ATOM      2  C   LIG    1       -1.201   5.104  -6.750  0.00  0.00    +0.000 A 
ATOM      3  C   LIG    1       -0.075   4.302  -6.802  0.00  0.00    +0.000 A 
ATOM      4  C   LIG    1       -0.221   2.963  -6.541  0.00  0.00    +0.006 A 
ATOM      5  C   LIG    1       -1.479   2.408  -6.215  0.00  0.00    -0.019 A 
ATOM      6  C   LIG    1       -2.544   3.166  -6.102  0.00  0.00    -0.032 A 
ATOM      7  C   LIG    1       -3.971   2.960  -5.629  0.00  0.00    +0.109 C 
ATOM      8  S   LIG    1       -4.764   1.524  -6.351  0.00  0.00    -0.120 S 
ATOM      9  C   LIG    1       -3.794   0.110  -5.901  0.00  0.00    +0.013 A 
ATOM     10  C   LIG    1       -4.624  -0.998  -5.577  0.00  0.00    +0.015 A 
ATOM     11  C   LIG    1       -4.110  -2.222  -5.245  0.00  0.00    +0.001 A 
ATOM     12  C   LIG    1       -2.736  -2.389  -5.239  0.00  0.00    +0.000 A 
ATOM     13  C   LIG    1       -1.937  -1.315  -5.531  0.00  0.00    +0.006 A 
ATOM     14  C   LIG    1       -2.471  -0.042  -5.842  0.00  0.00    -0.010 A 
ATOM     15  C   LIG    1       -1.419   0.953  -6.039  0.00  0.00    +0.108 C 
ATOM     16  C   LIG    1       -2.403   4.548  -6.412  0.00  0.00    +0.005 A 
BRANCH  15  17
ATOM     17  C   LIG    1       -0.650   0.464  -7.196  0.00  0.00    +0.079 C 
ATOM     18  N   LIG    1       -0.057   0.087  -8.088  0.00  0.00    -0.195 NA
ENDBRANCH  15  17
ENDBRANCH   1  15
BRANCH   1  19
ATOM     19  C   LIG    1       -1.061   1.312  -3.593  0.00  0.00    -0.016 C 
BRANCH  19  20
ATOM     20  C   LIG    1       -0.153   0.987  -2.405  0.00  0.00    -0.079 C 
BRANCH  20  21
ATOM     21  N   LIG    1       -0.766   1.529  -1.175  0.00  0.00    +0.380 N 
ATOM     22  H   LIG    1       -1.738   1.203  -1.115  0.00  0.00    -0.082 HD
ATOM     23  C   LIG    1       -0.757   3.007  -1.216  0.00  0.00    -0.076 C 
ATOM     24  C   LIG    1       -1.502   3.542   0.010  0.00  0.00    +0.021 C 
ATOM     25  C   LIG    1       -0.798   3.056   1.280  0.00  0.00    +0.088 C 
ATOM     26  C   LIG    1       -0.749   1.526   1.274  0.00  0.00    +0.021 C 
ATOM     27  C   LIG    1       -0.026   1.049   0.012  0.00  0.00    -0.076 C 
BRANCH  25  28
ATOM     28  C   LIG    1       -1.561   3.530   2.491  0.00  0.00    -0.016 A 
ATOM     29  C   LIG    1       -2.929   3.716   2.416  0.00  0.00    +0.009 A 
ATOM     30  C   LIG    1       -3.630   4.145   3.526  0.00  0.00    +0.039 A 
ATOM     31  C   LIG    1       -2.961   4.400   4.712  0.00  0.00    +0.123 A 
ATOM     32  F   LIG    1       -3.645   4.825   5.796  0.00  0.00    -0.205 F 
ATOM     33  C   LIG    1       -1.590   4.218   4.784  0.00  0.00    +0.039 A 
ATOM     34  C   LIG    1       -0.892   3.784   3.673  0.00  0.00    +0.009 A 
ENDBRANCH  25  28
BRANCH  25  35
ATOM     35  O   LIG    1        0.531   3.579   1.319  0.00  0.00    -0.384 OA
ATOM     36  H   LIG    1        1.036   3.311   2.099  0.00  0.00    +0.211 HD
ENDBRANCH  25  35
ENDBRANCH  20  21
ENDBRANCH  19  20
ENDBRANCH   1  19
TORSDOF 7
