REMARK  Name = ZINC01712532
REMARK                            x       y       z     vdW  Elec       q    Type
REMARK                         _______ _______ _______ _____ _____    ______ ____
ROOT
ATOM      1  C   LIG    1        0.121   3.992  -0.322  0.00  0.00    +0.098 A 
ATOM      2  C   LIG    1       -1.089   3.404   0.118  0.00  0.00    +0.099 A 
ATOM      3  N   LIG    1       -1.132   2.121   0.440  0.00  0.00    -0.224 NA
ATOM      4  C   LIG    1       -0.029   1.377   0.338  0.00  0.00    +0.186 A 
ATOM      5  C   LIG    1        1.181   1.971  -0.105  0.00  0.00    +0.148 A 
ATOM      6  C   LIG    1        2.367   1.118  -0.196  0.00  0.00    +0.149 A 
ATOM      7  N   LIG    1        2.237  -0.158   0.141  0.00  0.00    -0.198 NA
ATOM      8  C   LIG    1        1.071  -0.648   0.548  0.00  0.00    +0.216 A 
ATOM      9  N   LIG    1       -0.027   0.074   0.648  0.00  0.00    -0.193 NA
ATOM     10  N   LIG    1        1.219   3.262  -0.421  0.00  0.00    -0.238 NA
ENDROOT
BRANCH   1  14
ATOM     11  C   LIG    1        0.223   8.119  -1.331  0.00  0.00    +0.000 A 
ATOM     12  C   LIG    1        1.229   7.575  -0.552  0.00  0.00    +0.001 A 
ATOM     13  C   LIG    1        1.201   6.236  -0.221  0.00  0.00    +0.010 A 
ATOM     14  C   LIG    1        0.157   5.431  -0.674  0.00  0.00    +0.002 A 
ATOM     15  C   LIG    1       -0.851   5.984  -1.463  0.00  0.00    +0.010 A 
ATOM     16  C   LIG    1       -0.816   7.326  -1.782  0.00  0.00    +0.001 A 
ENDBRANCH   1  14
BRANCH   2  17
ATOM     17  C   LIG    1       -2.313   4.231   0.225  0.00  0.00    +0.003 A 
ATOM     18  C   LIG    1       -2.257   5.491   0.820  0.00  0.00    +0.010 A 
ATOM     19  C   LIG    1       -3.400   6.259   0.911  0.00  0.00    +0.001 A 
ATOM     20  C   LIG    1       -4.601   5.777   0.423  0.00  0.00    +0.000 A 
ATOM     21  C   LIG    1       -4.664   4.526  -0.164  0.00  0.00    +0.001 A 
ATOM     22  C   LIG    1       -3.527   3.750  -0.266  0.00  0.00    +0.010 A 
ENDBRANCH   2  17
BRANCH   6  23
ATOM     23  N   LIG    1        3.578   1.624  -0.618  0.00  0.00    -0.341 N 
ATOM     24  H   LIG    1        3.654   2.560  -0.860  0.00  0.00    +0.144 HD
ATOM     25  H   LIG    1        4.353   1.044  -0.673  0.00  0.00    +0.144 HD
ENDBRANCH   6  23
BRANCH   8  26
ATOM     26  N   LIG    1        1.006  -1.987   0.883  0.00  0.00    -0.327 N 
ATOM     27  H   LIG    1        1.799  -2.543   0.819  0.00  0.00    +0.145 HD
ATOM     28  H   LIG    1        0.168  -2.372   1.183  0.00  0.00    +0.145 HD
ENDBRANCH   8  26
TORSDOF 4
