REMARK  Name = ZINC02034519
REMARK                            x       y       z     vdW  Elec       q    Type
REMARK                         _______ _______ _______ _____ _____    ______ ____
ROOT
ATOM      1  C   LIG    1       -1.329   1.939   0.019  0.00  0.00    +0.087 C 
ATOM      2  C   LIG    1       -0.014   1.203   0.009  0.00  0.00    +0.141 C 
ATOM      3  O   LIG    1        0.002  -0.004   0.002  0.00  0.00    -0.297 OA
ENDROOT
BRANCH   2   4
ATOM      4  C   LIG    1        1.280   1.975   0.000  0.00  0.00    +0.153 C 
ATOM      5 BR   LIG    1        2.792   0.718  -0.021  0.00  0.00    -0.084 Br
ENDBRANCH   2   4
TORSDOF 1
