REMARK  Name = ZINC01734421
REMARK                            x       y       z     vdW  Elec       q    Type
REMARK                         _______ _______ _______ _____ _____    ______ ____
ROOT
ATOM      1  C   LIG    1        0.707  -0.490  -1.238  0.00  0.00    -0.038 C 
ATOM      2  C   LIG    1        1.198   0.415  -2.112  0.00  0.00    +0.059 C 
ATOM      3  C   LIG    1        1.890  -0.081  -3.319  0.00  0.00    +0.226 C 
ATOM      4  C   LIG    1        2.458  -1.477  -3.218  0.00  0.00    +0.229 C 
ATOM      5  C   LIG    1        1.674  -2.426  -2.401  0.00  0.00    +0.009 C 
ATOM      6  O   LIG    1        3.489  -1.798  -3.770  0.00  0.00    -0.284 OA
ATOM      7  O   LIG    1        1.996   0.589  -4.325  0.00  0.00    -0.284 OA
ATOM      8  C   LIG    1        0.847  -1.926  -1.458  0.00  0.00    +0.012 C 
ENDROOT
BRANCH   1  10
ATOM      9  C   LIG    1       -0.019   1.526   0.010  0.00  0.00    +0.015 C 
ATOM     10  C   LIG    1        0.002  -0.004   0.002  0.00  0.00    -0.013 C 
ATOM     11  C   LIG    1       -1.433  -0.534   0.013  0.00  0.00    +0.015 C 
ATOM     12  C   LIG    1        0.742  -0.511   1.242  0.00  0.00    +0.015 C 
ENDBRANCH   1  10
BRANCH   5  13
ATOM     13  C   LIG    1        1.799  -3.913  -2.610  0.00  0.00    -0.009 C 
ATOM     14  C   LIG    1        3.247  -4.342  -2.366  0.00  0.00    +0.015 C 
ATOM     15  C   LIG    1        1.399  -4.261  -4.045  0.00  0.00    +0.015 C 
ATOM     16  C   LIG    1        0.878  -4.645  -1.632  0.00  0.00    +0.015 C 
ENDBRANCH   5  13
TORSDOF 2
