REMARK  Name = ZINC01700066
REMARK                            x       y       z     vdW  Elec       q    Type
REMARK                         _______ _______ _______ _____ _____    ______ ____
ROOT
ATOM      1  C   LIG    1       -0.018   1.503   0.010  0.00  0.00    +0.044 C 
ATOM      2  C   LIG    1        0.002  -0.004   0.002  0.00  0.00    -0.048 A 
ATOM      3  C   LIG    1        0.006  -0.689  -1.199  0.00  0.00    +0.003 A 
ATOM      4  C   LIG    1        0.025  -2.071  -1.207  0.00  0.00    +0.002 A 
ATOM      5  C   LIG    1        0.040  -2.768  -0.013  0.00  0.00    +0.032 A 
ATOM      6  C   LIG    1        0.037  -2.084   1.188  0.00  0.00    +0.122 A 
ATOM      7  C   LIG    1        0.023  -0.702   1.195  0.00  0.00    +0.036 A 
ENDROOT
BRANCH   6   8
ATOM      8  N   LIG    1        0.053  -2.831   2.465  0.00  0.00    +0.006 N 
ATOM      9  O   LIG    1        0.069  -4.040   2.459  0.00  0.00    -0.130 OA
BRANCH   8  10
ATOM     10  O   LIG    1        0.051  -2.232   3.516  0.00  0.00    -0.396 OA
ATOM     11  H   LIG    1        0.039  -1.295   3.521  0.00  0.00    +0.329 HD
ENDBRANCH   8  10
ENDBRANCH   6   8
TORSDOF 2
