REMARK  Name = ZINC01758360
REMARK                            x       y       z     vdW  Elec       q    Type
REMARK                         _______ _______ _______ _____ _____    ______ ____
ROOT
ATOM      1  C   UNK A  0        0.974  -0.668   0.659  0.00  0.00    +0.245 C 
ATOM      2  N   GLU A  1        0.002  -0.004   0.002  0.00  0.00    -0.298 N 
ATOM      3  H   GLU A  1       -0.684  -0.496  -0.476  0.00  0.00    +0.150 HD
ATOM      4  O   UNK A  0        1.833  -0.052   1.258  0.00  0.00    -0.270 OA
ENDROOT
BRANCH   1  10
ATOM      5  C   UNK A  0        0.005  -2.857  -0.031  0.00  0.00    +0.015 A 
ATOM      6  C   UNK A  0        0.033  -4.237  -0.040  0.00  0.00    +0.033 A 
ATOM      7  C   UNK A  0        1.031  -4.916   0.635  0.00  0.00    +0.122 A 
ATOM      8  C   UNK A  0        2.011  -4.217   1.318  0.00  0.00    +0.033 A 
ATOM      9  C   UNK A  0        1.998  -2.838   1.330  0.00  0.00    +0.015 A 
ATOM     10  C   UNK A  0        0.994  -2.147   0.651  0.00  0.00    +0.037 A 
BRANCH   7  11
ATOM     11  N   UNK A  0        1.051  -6.396   0.627  0.00  0.00    +0.006 N 
ATOM     12  O   UNK A  0        1.929  -6.996   1.220  0.00  0.00    -0.130 OA
BRANCH  11  13
ATOM     13  O   UNK A  0        0.190  -7.013   0.027  0.00  0.00    -0.396 OA
ATOM     14  H   UNK A  0       -0.486  -6.551  -0.430  0.00  0.00    +0.329 HD
ENDBRANCH  11  13
ENDBRANCH   7  11
ENDBRANCH   1  10
BRANCH   2  15
ATOM     15  CA  GLU A  1       -0.018   1.461   0.010  0.00  0.00    +0.182 C 
BRANCH  15  16
ATOM     16  C   GLU A  1       -0.723   1.947   1.250  0.00  0.00    +0.325 C 
ATOM     17  O   GLU A  1       -1.164   1.151   2.045  0.00  0.00    -0.249 OA
BRANCH  16  18
ATOM     18  OXT GLU A  1       -0.862   3.264   1.471  0.00  0.00    -0.479 OA
ATOM     19  HXT GLU A  1       -0.520   3.880   0.854  0.00  0.00    +0.295 HD
ENDBRANCH  16  18
ENDBRANCH  15  16
BRANCH  15  20
ATOM     20  CB  GLU A  1       -0.758   1.968  -1.230  0.00  0.00    +0.045 C 
BRANCH  20  21
ATOM     21  CG  GLU A  1        0.026   1.580  -2.485  0.00  0.00    +0.123 C 
BRANCH  21  22
ATOM     22  CD  GLU A  1       -0.703   2.080  -3.706  0.00  0.00    +0.305 C 
ATOM     23  OE1 GLU A  1       -1.743   2.683  -3.584  0.00  0.00    -0.251 OA
BRANCH  22  24
ATOM     24  OE2 GLU A  1       -0.197   1.854  -4.929  0.00  0.00    -0.481 OA
ATOM     25  HE2 GLU A  1        0.609   1.386  -5.023  0.00  0.00    +0.295 HD
ENDBRANCH  22  24
ENDBRANCH  21  22
ENDBRANCH  20  21
ENDBRANCH  15  20
ENDBRANCH   2  15
TORSDOF 10
