REMARK  Name = ZINC01764952
REMARK                            x       y       z     vdW  Elec       q    Type
REMARK                         _______ _______ _______ _____ _____    ______ ____
ROOT
ATOM      1  C   LIG    1        5.905   6.719  -0.075  0.00  0.00    +0.001 A 
ATOM      2  C   LIG    1        6.623   5.543   0.033  0.00  0.00    +0.001 A 
ATOM      3  C   LIG    1        5.967   4.323   0.093  0.00  0.00    +0.014 A 
ATOM      4  C   LIG    1        4.583   4.284   0.045  0.00  0.00    +0.050 A 
ATOM      5  C   LIG    1        3.851   5.483  -0.065  0.00  0.00    +0.050 A 
ATOM      6  C   LIG    1        2.427   5.088  -0.090  0.00  0.00    +0.258 C 
ATOM      7  N   LIG    1        2.353   3.747   0.000  0.00  0.00    -0.196 N 
ATOM      8  O   LIG    1        1.482   5.846  -0.178  0.00  0.00    -0.269 OA
ATOM      9  C   LIG    1        3.579   3.200   0.088  0.00  0.00    +0.258 C 
ATOM     10  O   LIG    1        3.820   2.013   0.185  0.00  0.00    -0.269 OA
ATOM     11  C   LIG    1        4.520   6.695  -0.124  0.00  0.00    +0.014 A 
ENDROOT
BRANCH   7  12
ATOM     12  C   LIG    1        1.151   3.015   0.007  0.00  0.00    +0.125 A 
ATOM     13  C   LIG    1        0.328   3.034  -1.068  0.00  0.00    +0.116 A 
ATOM     14  N   LIG    1       -0.838   2.313  -1.041  0.00  0.00    -0.313 N 
ATOM     15  C   LIG    1       -1.174   1.593   0.044  0.00  0.00    +0.327 A 
ATOM     16  N   LIG    1       -0.373   1.551   1.124  0.00  0.00    -0.274 N 
ATOM     17  H   LIG    1       -0.637   1.002   1.918  0.00  0.00    +0.173 HD
ATOM     18  O   LIG    1       -2.216   0.965   0.047  0.00  0.00    -0.247 OA
ATOM     19  H   LIG    1       -1.445   2.324  -1.836  0.00  0.00    +0.170 HD
ATOM     20  C   LIG    1        0.783   2.244   1.142  0.00  0.00    +0.276 A 
ATOM     21  O   LIG    1        1.506   2.209   2.122  0.00  0.00    -0.266 OA
ENDBRANCH   7  12
TORSDOF 1
