REMARK  Name = ZINC01892860
REMARK                            x       y       z     vdW  Elec       q    Type
REMARK                         _______ _______ _______ _____ _____    ______ ____
ROOT
ATOM      1  C   LIG    1       -0.017   1.396   0.010  0.00  0.00    +0.015 A 
ATOM      2  C   LIG    1        1.163   2.095   0.002  0.00  0.00    +0.046 A 
ATOM      3  C   LIG    1        2.376   1.417  -0.013  0.00  0.00    +0.121 A 
ATOM      4  C   LIG    1        2.401   0.026  -0.021  0.00  0.00    +0.046 A 
ATOM      5  C   LIG    1        1.227  -0.683  -0.014  0.00  0.00    +0.015 A 
ATOM      6  C   LIG    1        0.002  -0.004   0.002  0.00  0.00    +0.018 A 
ENDROOT
BRANCH   6   7
ATOM      7  C   LIG    1       -1.258  -0.758   0.010  0.00  0.00    +0.166 C 
ATOM      8  O   LIG    1       -2.318  -0.168   0.023  0.00  0.00    -0.292 OA
BRANCH   7   9
ATOM      9  C   LIG    1       -1.235  -2.265   0.002  0.00  0.00    +0.060 C 
ATOM     10  C   LIG    1       -2.215  -2.982  -0.929  0.00  0.00    +0.012 C 
ATOM     11  C   LIG    1       -2.448  -2.994   0.583  0.00  0.00    +0.012 C 
ENDBRANCH   7   9
ENDBRANCH   6   7
BRANCH   3  12
ATOM     12  O   LIG    1        3.540   2.113  -0.022  0.00  0.00    -0.492 OA
BRANCH  12  13
ATOM     13  C   LIG    1        4.751   1.353  -0.038  0.00  0.00    +0.229 C 
BRANCH  13  14
ATOM     14  C   LIG    1        5.949   2.304  -0.045  0.00  0.00    +0.047 C 
BRANCH  14  15
ATOM     15  C   LIG    1        7.245   1.491  -0.062  0.00  0.00    +0.058 C 
BRANCH  15  16
ATOM     16  C   LIG    1        8.426   2.428  -0.070  0.00  0.00    +0.033 A 
ATOM     17  C   LIG    1        8.989   3.001  -1.150  0.00  0.00    +0.105 A 
ATOM     18  N   LIG    1       10.009   3.764  -0.731  0.00  0.00    -0.352 N 
ATOM     19  H   LIG    1       10.587   4.293  -1.303  0.00  0.00    +0.166 HD
ATOM     20  C   LIG    1       10.105   3.678   0.568  0.00  0.00    +0.171 A 
ATOM     21  N   LIG    1        9.136   2.854   1.020  0.00  0.00    -0.350 N 
ATOM     22  H   LIG    1        8.973   2.610   1.945  0.00  0.00    +0.166 HD
ENDBRANCH  15  16
ENDBRANCH  14  15
ENDBRANCH  13  14
ENDBRANCH  12  13
ENDBRANCH   3  12
TORSDOF 7
