REMARK  Name = ZINC02361683
REMARK                            x       y       z     vdW  Elec       q    Type
REMARK                         _______ _______ _______ _____ _____    ______ ____
ROOT
ATOM      1  C   LIG    1       -0.013   1.086   0.008  0.00  0.00    +0.155 C 
ATOM      2  N   LIG    1       -0.698   1.558   1.213  0.00  0.00    -0.280 N 
ATOM      3  C   LIG    1       -0.836   2.918   1.444  0.00  0.00    +0.169 A 
ATOM      4  C   LIG    1       -1.496   3.339   2.594  0.00  0.00    +0.153 A 
ATOM      5  N   LIG    1       -1.491   4.728   2.561  0.00  0.00    -0.309 N 
ATOM      6  C   LIG    1       -0.849   5.090   1.417  0.00  0.00    +0.172 A 
ATOM      7  C   LIG    1       -1.992   2.378   3.491  0.00  0.00    +0.283 A 
ATOM      8  N   LIG    1       -1.824   1.068   3.216  0.00  0.00    -0.255 N 
ATOM      9  O   LIG    1       -2.570   2.724   4.507  0.00  0.00    -0.265 OA
ATOM     10  N   LIG    1       -0.471   4.007   0.767  0.00  0.00    -0.204 NA
ATOM     11  C   LIG    1       -1.190   0.671   2.099  0.00  0.00    +0.334 A 
ATOM     12  O   LIG    1       -1.056  -0.518   1.884  0.00  0.00    -0.246 OA
ENDROOT
BRANCH   5  13
ATOM     13  C   LIG    1       -2.066   5.628   3.563  0.00  0.00    +0.159 C 
BRANCH  13  14
ATOM     14  C   LIG    1       -1.026   5.949   4.606  0.00  0.00    -0.028 A 
ATOM     15  C   LIG    1       -0.907   5.155   5.731  0.00  0.00    +0.005 A 
ATOM     16  C   LIG    1        0.050   5.447   6.685  0.00  0.00    +0.000 A 
ATOM     17  C   LIG    1        0.881   6.538   6.518  0.00  0.00    +0.000 A 
ATOM     18  C   LIG    1        0.759   7.335   5.395  0.00  0.00    +0.000 A 
ATOM     19  C   LIG    1       -0.195   7.041   4.439  0.00  0.00    +0.005 A 
ENDBRANCH  13  14
ENDBRANCH   5  13
BRANCH   6  20
ATOM     20  S   LIG    1       -0.567   6.747   0.889  0.00  0.00    -0.085 S 
BRANCH  20  21
ATOM     21  C   LIG    1        0.311   6.436  -0.663  0.00  0.00    +0.105 C 
BRANCH  21  22
ATOM     22  C   LIG    1        0.670   7.770  -1.321  0.00  0.00    +0.167 C 
BRANCH  22  23
ATOM     23  O   LIG    1        1.364   7.525  -2.546  0.00  0.00    -0.394 OA
ATOM     24  H   LIG    1        1.623   8.328  -3.019  0.00  0.00    +0.209 HD
ENDBRANCH  22  23
ENDBRANCH  21  22
ENDBRANCH  20  21
ENDBRANCH   6  20
BRANCH   8  25
ATOM     25  C   LIG    1       -2.340   0.063   4.148  0.00  0.00    +0.165 C 
BRANCH  25  26
ATOM     26  C   LIG    1       -1.280  -0.270   5.166  0.00  0.00    -0.028 A 
ATOM     27  C   LIG    1       -0.387  -1.297   4.924  0.00  0.00    +0.005 A 
ATOM     28  C   LIG    1        0.588  -1.599   5.856  0.00  0.00    +0.000 A 
ATOM     29  C   LIG    1        0.664  -0.881   7.034  0.00  0.00    +0.000 A 
ATOM     30  C   LIG    1       -0.232   0.143   7.279  0.00  0.00    +0.000 A 
ATOM     31  C   LIG    1       -1.204   0.448   6.345  0.00  0.00    +0.005 A 
ENDBRANCH  25  26
ENDBRANCH   8  25
TORSDOF 8
