REMARK  Name = ZINC02168289
REMARK                            x       y       z     vdW  Elec       q    Type
REMARK                         _______ _______ _______ _____ _____    ______ ____
ROOT
ATOM      1  C   LIG    1       -4.771   1.608   3.818  0.00  0.00    +0.233 C 
ATOM      2  O   LIG    1       -4.512   2.744   3.475  0.00  0.00    -0.283 OA
ENDROOT
BRANCH   1   7
ATOM      3  C   LIG    1       -1.335   0.183   4.340  0.00  0.00    +0.121 A 
ATOM      4  C   LIG    1       -1.642  -1.078   4.837  0.00  0.00    +0.045 A 
ATOM      5  C   LIG    1       -2.961  -1.461   5.001  0.00  0.00    +0.004 A 
ATOM      6  C   LIG    1       -3.982  -0.594   4.672  0.00  0.00    +0.012 A 
ATOM      7  C   LIG    1       -3.683   0.678   4.171  0.00  0.00    +0.029 A 
ATOM      8  C   LIG    1       -2.349   1.064   4.011  0.00  0.00    +0.057 A 
BRANCH   3  10
ATOM      9  C   LIG    1        0.960  -0.405   4.547  0.00  0.00    +0.277 C 
ATOM     10  O   LIG    1       -0.036   0.552   4.182  0.00  0.00    -0.495 OA
ENDBRANCH   3  10
ENDBRANCH   1   7
BRANCH   1  11
ATOM     11  C   LIG    1       -6.191   1.155   3.881  0.00  0.00    +0.233 C 
ATOM     12  O   LIG    1       -6.634   0.426   3.018  0.00  0.00    -0.283 OA
BRANCH  11  13
ATOM     13  C   LIG    1       -7.055   1.592   4.993  0.00  0.00    +0.029 A 
ATOM     14  C   LIG    1       -8.354   1.086   5.114  0.00  0.00    +0.012 A 
ATOM     15  C   LIG    1       -9.159   1.498   6.155  0.00  0.00    +0.004 A 
ATOM     16  C   LIG    1       -8.686   2.410   7.082  0.00  0.00    +0.045 A 
ATOM     17  C   LIG    1       -7.398   2.918   6.971  0.00  0.00    +0.121 A 
ATOM     18  C   LIG    1       -6.578   2.510   5.934  0.00  0.00    +0.057 A 
BRANCH  17  19
ATOM     19  O   LIG    1       -6.940   3.813   7.886  0.00  0.00    -0.495 OA
ATOM     20  C   LIG    1       -7.838   4.186   8.934  0.00  0.00    +0.277 C 
ENDBRANCH  17  19
ENDBRANCH  11  13
ENDBRANCH   1  11
TORSDOF 5
