REMARK  Name = ZINC02027112
REMARK                            x       y       z     vdW  Elec       q    Type
REMARK                         _______ _______ _______ _____ _____    ______ ____
ROOT
ATOM      1  S   LIG    1        1.097   3.914   0.013  0.00  0.00    +0.144 S 
ATOM      2  O   LIG    1       -0.270   4.301   0.055  0.00  0.00    -0.132 OA
ATOM      3  O   LIG    1        1.978   4.338  -1.019  0.00  0.00    -0.132 OA
ENDROOT
BRANCH   1   4
ATOM      4  C   LIG    1        1.121   2.152   0.003  0.00  0.00    +0.178 C 
ATOM      5  C   LIG    1       -0.018   1.474   0.010  0.00  0.00    +0.030 C 
BRANCH   5   6
ATOM      6  C   LIG    1        0.002  -0.004   0.002  0.00  0.00    -0.024 A 
ATOM      7  C   LIG    1        1.218  -0.688  -0.019  0.00  0.00    +0.008 A 
ATOM      8  C   LIG    1        1.230  -2.068  -0.022  0.00  0.00    +0.001 A 
ATOM      9  C   LIG    1        0.040  -2.773  -0.014  0.00  0.00    +0.000 A 
ATOM     10  C   LIG    1       -1.169  -2.100   0.002  0.00  0.00    +0.001 A 
ATOM     11  C   LIG    1       -1.195  -0.721   0.010  0.00  0.00    +0.008 A 
ENDBRANCH   5   6
ENDBRANCH   1   4
BRANCH   1  12
ATOM     12  O   LIG    1        1.718   4.365   1.327  0.00  0.00    -0.343 OA
BRANCH  12  16
ATOM     13  C   LIG    1        5.826   3.985   1.462  0.00  0.00    +0.120 A 
ATOM     14  C   LIG    1        5.253   5.161   1.001  0.00  0.00    +0.049 A 
ATOM     15  C   LIG    1        3.879   5.288   0.956  0.00  0.00    +0.052 A 
ATOM     16  C   LIG    1        3.071   4.240   1.371  0.00  0.00    +0.157 A 
ATOM     17  C   LIG    1        3.644   3.065   1.837  0.00  0.00    +0.052 A 
ATOM     18  C   LIG    1        5.019   2.936   1.877  0.00  0.00    +0.049 A 
BRANCH  13  20
ATOM     19  C   LIG    1        7.701   2.620   1.992  0.00  0.00    +0.277 C 
ATOM     20  O   LIG    1        7.179   3.859   1.506  0.00  0.00    -0.495 OA
ENDBRANCH  13  20
ENDBRANCH  12  16
ENDBRANCH   1  12
TORSDOF 5
