REMARK  Name = ZINC02339261
REMARK                            x       y       z     vdW  Elec       q    Type
REMARK                         _______ _______ _______ _____ _____    ______ ____
ROOT
ATOM      1  N   LIG    1        3.621  -0.650  -0.036  0.00  0.00    -0.271 N 
ATOM      2  C   LIG    1        3.661  -2.113   0.059  0.00  0.00    +0.190 C 
ATOM      3  N   LIG    1        4.582  -2.650  -0.944  0.00  0.00    -0.289 N 
ATOM      4  H   LIG    1        4.419  -3.526  -1.326  0.00  0.00    +0.151 HD
ATOM      5  C   LIG    1        5.655  -1.937  -1.342  0.00  0.00    +0.258 C 
ATOM      6  C   LIG    1        5.871  -0.592  -0.802  0.00  0.00    +0.141 C 
ATOM      7  O   LIG    1        6.439  -2.408  -2.145  0.00  0.00    -0.269 OA
ATOM      8  C   LIG    1        4.803   0.039  -0.148  0.00  0.00    +0.089 C 
ENDROOT
BRANCH   1  12
ATOM      9  C   LIG    1       -0.016   1.379   0.011  0.00  0.00    +0.000 A 
ATOM     10  C   LIG    1        0.417   0.714   1.143  0.00  0.00    +0.002 A 
ATOM     11  C   LIG    1        1.622   0.040   1.130  0.00  0.00    +0.023 A 
ATOM     12  C   LIG    1        2.400   0.031  -0.021  0.00  0.00    +0.036 A 
ATOM     13  C   LIG    1        1.962   0.701  -1.156  0.00  0.00    +0.023 A 
ATOM     14  C   LIG    1        0.755   1.373  -1.137  0.00  0.00    +0.002 A 
ENDBRANCH   1  12
BRANCH   2  15
ATOM     15  C   LIG    1        4.130  -2.513   1.435  0.00  0.00    +0.019 C 
ATOM     16  C   LIG    1        3.345  -3.250   2.217  0.00  0.00    +0.045 C 
BRANCH  16  17
ATOM     17  C   LIG    1        3.802  -3.639   3.558  0.00  0.00    +0.128 A 
ATOM     18  C   LIG    1        3.101  -4.394   4.453  0.00  0.00    +0.050 A 
ATOM     19  C   LIG    1        3.904  -4.524   5.596  0.00  0.00    +0.050 A 
ATOM     20  C   LIG    1        5.059  -3.844   5.350  0.00  0.00    +0.136 A 
ATOM     21  O   LIG    1        4.988  -3.318   4.112  0.00  0.00    -0.455 OA
BRANCH  20  22
ATOM     22  C   LIG    1        6.198  -3.711   6.280  0.00  0.00    +0.017 A 
ATOM     23  C   LIG    1        6.151  -4.317   7.538  0.00  0.00    +0.013 A 
ATOM     24  C   LIG    1        7.218  -4.190   8.402  0.00  0.00    +0.021 A 
ATOM     25  C   LIG    1        8.334  -3.463   8.025  0.00  0.00    +0.041 A 
ATOM     26 CL   LIG    1        9.673  -3.307   9.119  0.00  0.00    -0.084 Cl
ATOM     27  C   LIG    1        8.387  -2.859   6.780  0.00  0.00    +0.021 A 
ATOM     28  C   LIG    1        7.330  -2.984   5.904  0.00  0.00    +0.013 A 
ENDBRANCH  20  22
ENDBRANCH  16  17
ENDBRANCH   2  15
BRANCH   6  29
ATOM     29  C   LIG    1        7.138   0.061  -0.943  0.00  0.00    +0.107 C 
ATOM     30  N   LIG    1        8.142   0.579  -1.054  0.00  0.00    -0.191 NA
ENDBRANCH   6  29
BRANCH   8  31
ATOM     31  S   LIG    1        4.978   1.662   0.515  0.00  0.00    -0.126 S 
ATOM     32  H   LIG    1        3.808   2.044   1.094  0.00  0.00    +0.108 HD
ENDBRANCH   8  31
TORSDOF 6
