REMARK  Name = ZINC02190601
REMARK                            x       y       z     vdW  Elec       q    Type
REMARK                         _______ _______ _______ _____ _____    ______ ____
ROOT
ATOM      1  C   LIG    1        7.242   5.233  -0.027  0.00  0.00    +0.198 C 
ATOM      2  N   LIG    1        8.334   5.810  -0.820  0.00  0.00    -0.321 N 
ATOM      3  H   LIG    1        8.193   6.615  -1.342  0.00  0.00    +0.148 HD
ATOM      4  C   LIG    1        9.574   5.181  -0.809  0.00  0.00    +0.041 A 
ATOM      5  C   LIG    1       10.751   5.886  -0.999  0.00  0.00    +0.024 A 
ATOM      6  C   LIG    1       11.959   5.215  -0.990  0.00  0.00    +0.002 A 
ATOM      7  C   LIG    1       12.002   3.843  -0.794  0.00  0.00    +0.001 A 
ATOM      8  C   LIG    1       10.839   3.127  -0.600  0.00  0.00    +0.015 A 
ATOM      9  C   LIG    1        9.614   3.791  -0.601  0.00  0.00    +0.058 A 
ATOM     10  C   LIG    1        8.348   3.074  -0.368  0.00  0.00    +0.254 C 
ATOM     11  O   LIG    1        8.325   1.858  -0.344  0.00  0.00    -0.270 OA
ATOM     12  N   LIG    1        7.213   3.779  -0.186  0.00  0.00    -0.244 N 
ENDROOT
BRANCH   1  16
ATOM     13  C   LIG    1        7.826   6.195   4.095  0.00  0.00    +0.120 A 
ATOM     14  C   LIG    1        8.298   7.049   3.109  0.00  0.00    +0.046 A 
ATOM     15  C   LIG    1        8.108   6.736   1.777  0.00  0.00    +0.010 A 
ATOM     16  C   LIG    1        7.448   5.572   1.427  0.00  0.00    -0.009 A 
ATOM     17  C   LIG    1        6.972   4.722   2.408  0.00  0.00    +0.010 A 
ATOM     18  C   LIG    1        7.164   5.028   3.741  0.00  0.00    +0.046 A 
BRANCH  13  20
ATOM     19  C   LIG    1        7.500   5.575   6.367  0.00  0.00    +0.277 C 
ATOM     20  O   LIG    1        8.012   6.501   5.406  0.00  0.00    -0.495 OA
ENDBRANCH  13  20
ENDBRANCH   1  16
BRANCH  12  21
ATOM     21  C   LIG    1        5.985   3.107  -0.142  0.00  0.00    +0.039 A 
ATOM     22  C   LIG    1        4.826   3.799   0.181  0.00  0.00    +0.027 A 
ATOM     23  C   LIG    1        3.615   3.135   0.225  0.00  0.00    +0.048 A 
ATOM     24  C   LIG    1        3.558   1.777  -0.054  0.00  0.00    +0.129 A 
ATOM     25  C   LIG    1        4.717   1.084  -0.372  0.00  0.00    +0.048 A 
ATOM     26  C   LIG    1        5.927   1.748  -0.421  0.00  0.00    +0.027 A 
BRANCH  24  27
ATOM     27  O   LIG    1        2.366   1.125  -0.011  0.00  0.00    -0.456 OA
BRANCH  27  28
ATOM     28  C   LIG    1        1.429   1.445  -0.941  0.00  0.00    +0.128 A 
ATOM     29  C   LIG    1        0.266   0.696  -1.042  0.00  0.00    +0.046 A 
ATOM     30  C   LIG    1       -0.683   1.020  -1.992  0.00  0.00    +0.004 A 
ATOM     31  C   LIG    1       -0.478   2.097  -2.836  0.00  0.00    +0.000 A 
ATOM     32  C   LIG    1        0.680   2.845  -2.737  0.00  0.00    +0.004 A 
ATOM     33  C   LIG    1        1.634   2.522  -1.792  0.00  0.00    +0.046 A 
ENDBRANCH  27  28
ENDBRANCH  24  27
ENDBRANCH  12  21
TORSDOF 5
