REMARK  Name = ZINC01678038
REMARK                            x       y       z     vdW  Elec       q    Type
REMARK                         _______ _______ _______ _____ _____    ______ ____
ROOT
ATOM      1  C   LIG    1       -0.678   3.724  -1.870  0.00  0.00    +0.074 C 
ENDROOT
BRANCH   1   2
ATOM      2  S   LIG    1       -0.959   1.937  -1.735  0.00  0.00    -0.006 S 
BRANCH   2   4
ATOM      3  C   LIG    1       -1.110   2.020   1.327  0.00  0.00    +0.208 C 
ATOM      4  S   LIG    1       -0.017   1.417   0.010  0.00  0.00    +0.017 S 
ATOM      5  O   LIG    1        1.195   2.158   0.002  0.00  0.00    -0.163 OA
ATOM      6  O   LIG    1        0.002  -0.004   0.002  0.00  0.00    -0.163 OA
ENDBRANCH   2   4
ENDBRANCH   1   2
BRANCH   1   7
ATOM      7  C   LIG    1        0.798   3.987  -2.171  0.00  0.00    -0.074 C 
BRANCH   7   8
ATOM      8  N   LIG    1        1.010   5.440  -2.299  0.00  0.00    +0.379 N 
ATOM      9  H   LIG    1        0.451   5.794  -3.083  0.00  0.00    -0.090 HD
ATOM     10  H   LIG    1        1.994   5.635  -2.478  0.00  0.00    -0.090 HD
ATOM     11  H   LIG    1        0.722   5.912  -1.444  0.00  0.00    -0.090 HD
ENDBRANCH   7   8
ENDBRANCH   1   7
TORSDOF 4
