REMARK  Name = ZINC01849774
REMARK                            x       y       z     vdW  Elec       q    Type
REMARK                         _______ _______ _______ _____ _____    ______ ____
ROOT
ATOM      1  C   LIG    1        1.503  -2.548   2.473  0.00  0.00    +0.097 C 
ENDROOT
BRANCH   1   2
ATOM      2  C   LIG    1        2.949  -2.129   2.401  0.00  0.00    +0.308 C 
ATOM      3  O   LIG    1        3.422  -1.421   3.273  0.00  0.00    -0.251 OA
BRANCH   2   4
ATOM      4  O   LIG    1        3.645  -2.498   1.470  0.00  0.00    -0.480 OA
ATOM      5  H   LIG    1        3.281  -3.043   0.800  0.00  0.00    +0.295 HD
ENDBRANCH   2   4
ENDBRANCH   1   2
BRANCH   1   6
ATOM      6  C   LIG    1        1.416  -4.074   2.530  0.00  0.00    +0.011 C 
ATOM      7  C   LIG    1        2.047  -4.572   3.832  0.00  0.00    +0.004 C 
ENDBRANCH   1   6
BRANCH   1   8
ATOM      8  C   LIG    1        0.763  -2.041   1.233  0.00  0.00    +0.014 C 
BRANCH   8   9
ATOM      9  C   LIG    1        0.742  -0.511   1.242  0.00  0.00    +0.001 C 
BRANCH   9  11
ATOM     10  C   LIG    1       -0.019   1.526   0.010  0.00  0.00    +0.004 C 
ATOM     11  C   LIG    1        0.002  -0.004   0.002  0.00  0.00    -0.003 C 
ENDBRANCH   9  11
ENDBRANCH   8   9
ENDBRANCH   1   8
TORSDOF 6
