REMARK  Name = ZINC01688138
REMARK                            x       y       z     vdW  Elec       q    Type
REMARK                         _______ _______ _______ _____ _____    ______ ____
ROOT
ATOM      1  C   LIG    1       -2.495   1.486   0.021  0.00  0.00    +0.141 C 
ATOM      2  N   LIG    1       -1.116   1.982   0.018  0.00  0.00    -0.238 N 
ATOM      3  C   LIG    1       -0.014   1.210   0.009  0.00  0.00    +0.246 C 
ATOM      4  C   LIG    1        1.174   2.091   0.002  0.00  0.00    +0.073 C 
ATOM      5  C   LIG    1        0.719   3.355   0.013  0.00  0.00    +0.073 C 
ATOM      6  O   LIG    1        0.002  -0.004   0.002  0.00  0.00    -0.270 OA
ATOM      7  C   LIG    1       -0.758   3.278   0.026  0.00  0.00    +0.246 C 
ATOM      8  O   LIG    1       -1.518   4.225   0.038  0.00  0.00    -0.270 OA
ENDROOT
TORSDOF 0
