REMARK  Name = ZINC02033145
REMARK                            x       y       z     vdW  Elec       q    Type
REMARK                         _______ _______ _______ _____ _____    ______ ____
ROOT
ATOM      1  C   LIG    1        0.002  -0.004   0.002  0.00  0.00    +0.135 C 
ENDROOT
BRANCH   1   2
ATOM      2  O   LIG    1       -0.017   1.425   0.010  0.00  0.00    -0.390 OA
ATOM      3  H   LIG    1        0.861   1.830   0.004  0.00  0.00    +0.210 HD
ENDBRANCH   1   2
BRANCH   1   4
ATOM      4  C   LIG    1        0.742  -0.511   1.242  0.00  0.00    +0.258 C 
BRANCH   4   5
ATOM      5  O   LIG    1        0.010  -0.149   2.414  0.00  0.00    -0.489 OA
BRANCH   5  11
ATOM      6  C   LIG    1       -0.303  -0.248   7.284  0.00  0.00    +0.044 C 
ATOM      7  C   LIG    1        0.411  -0.593   6.003  0.00  0.00    -0.047 A 
ATOM      8  C   LIG    1        1.602  -1.296   6.043  0.00  0.00    +0.003 A 
ATOM      9  C   LIG    1        2.260  -1.614   4.870  0.00  0.00    +0.004 A 
ATOM     10  C   LIG    1        1.729  -1.231   3.653  0.00  0.00    +0.045 A 
ATOM     11  C   LIG    1        0.535  -0.527   3.610  0.00  0.00    +0.121 A 
ATOM     12  C   LIG    1       -0.121  -0.204   4.789  0.00  0.00    +0.049 A 
ENDBRANCH   5  11
ENDBRANCH   4   5
ENDBRANCH   1   4
BRANCH   1  13
ATOM     13  C   LIG    1        0.718  -0.497  -1.257  0.00  0.00    -0.047 C 
BRANCH  13  14
ATOM     14  N   LIG    1       -0.001  -0.005  -2.447  0.00  0.00    +0.382 N 
ATOM     15  H   LIG    1       -0.964  -0.360  -2.432  0.00  0.00    -0.085 HD
ATOM     16  H   LIG    1       -0.015   1.022  -2.433  0.00  0.00    -0.085 HD
BRANCH  14  17
ATOM     17  C   LIG    1        0.668  -0.466  -3.677  0.00  0.00    -0.078 C 
ATOM     18  C   LIG    1        1.798   0.501  -4.037  0.00  0.00    -0.014 C 
ATOM     19  C   LIG    1       -0.350  -0.507  -4.818  0.00  0.00    -0.014 C 
ENDBRANCH  14  17
ENDBRANCH  13  14
ENDBRANCH   1  13
TORSDOF 7
