REMARK  Name = ZINC02379869
REMARK                            x       y       z     vdW  Elec       q    Type
REMARK                         _______ _______ _______ _____ _____    ______ ____
ROOT
ATOM      1  C   LIG    1       -1.332   2.114   0.020  0.00  0.00    +0.132 C 
ENDROOT
BRANCH   1   5
ATOM      2  C   LIG    1        2.396   0.029  -0.022  0.00  0.00    +0.000 A 
ATOM      3  C   LIG    1        1.208  -0.679  -0.014  0.00  0.00    +0.000 A 
ATOM      4  C   LIG    1        0.002  -0.004   0.002  0.00  0.00    +0.004 A 
ATOM      5  C   LIG    1       -0.017   1.378   0.010  0.00  0.00    -0.038 A 
ATOM      6  C   LIG    1        1.171   2.086   0.002  0.00  0.00    +0.004 A 
ATOM      7  C   LIG    1        2.377   1.411  -0.014  0.00  0.00    +0.000 A 
ENDBRANCH   1   5
BRANCH   1   8
ATOM      8  C   LIG    1       -1.764   2.351   1.444  0.00  0.00    +0.222 A 
ATOM      9  N   LIG    1       -1.458   3.386   2.155  0.00  0.00    -0.111 NA
ATOM     10  N   LIG    1       -2.051   3.232   3.417  0.00  0.00    -0.101 NA
ATOM     11  C   LIG    1       -2.705   2.051   3.397  0.00  0.00    +0.274 A 
ATOM     12  O   LIG    1       -2.523   1.515   2.178  0.00  0.00    -0.415 OA
BRANCH  11  13
ATOM     13  S   LIG    1       -3.601   1.365   4.685  0.00  0.00    -0.083 S 
ATOM     14  H   LIG    1       -3.560   2.197   5.760  0.00  0.00    +0.112 HD
ENDBRANCH  11  13
ENDBRANCH   1   8
TORSDOF 3
