REMARK  Name = ZINC01865441
REMARK                            x       y       z     vdW  Elec       q    Type
REMARK                         _______ _______ _______ _____ _____    ______ ____
ROOT
ATOM      1  C   LIG    1        1.252  -2.153  -0.021  0.00  0.00    +0.028 C 
ATOM      2  C   LIG    1        0.194  -2.848  -0.511  0.00  0.00    +0.080 C 
ATOM      3  C   LIG    1       -0.044  -4.305  -0.536  0.00  0.00    +0.258 C 
ATOM      4  N   LIG    1       -1.180  -4.710  -1.079  0.00  0.00    -0.243 N 
ATOM      5  H   LIG    1       -1.377  -5.659  -1.113  0.00  0.00    +0.159 HD
ATOM      6  C   LIG    1       -2.067  -3.834  -1.594  0.00  0.00    +0.283 C 
ATOM      7  O   LIG    1       -3.138  -4.066  -2.123  0.00  0.00    -0.262 OA
ATOM      8  O   LIG    1        0.761  -5.093  -0.077  0.00  0.00    -0.269 OA
ATOM      9  S   LIG    1       -1.290  -2.252  -1.310  0.00  0.00    -0.026 S 
ENDROOT
BRANCH   1  13
ATOM     10  C   LIG    1        1.107   2.081   0.160  0.00  0.00    +0.120 A 
ATOM     11  C   LIG    1       -0.036   1.362  -0.174  0.00  0.00    +0.046 A 
ATOM     12  C   LIG    1        0.006  -0.012  -0.235  0.00  0.00    +0.011 A 
ATOM     13  C   LIG    1        1.202  -0.687   0.041  0.00  0.00    -0.024 A 
ATOM     14  C   LIG    1        2.349   0.042   0.377  0.00  0.00    +0.011 A 
ATOM     15  C   LIG    1        2.296   1.416   0.435  0.00  0.00    +0.046 A 
BRANCH  10  17
ATOM     16  C   LIG    1        2.269   4.113   0.567  0.00  0.00    +0.277 C 
ATOM     17  O   LIG    1        1.060   3.436   0.218  0.00  0.00    -0.495 OA
ENDBRANCH  10  17
ENDBRANCH   1  13
TORSDOF 2
