REMARK  Name = ZINC02049562
REMARK                            x       y       z     vdW  Elec       q    Type
REMARK                         _______ _______ _______ _____ _____    ______ ____
ROOT
ATOM      1  C   LIG    1        2.288   2.670   1.469  0.00  0.00    +0.085 C 
ATOM      2  C   LIG    1        2.517   3.987   1.754  0.00  0.00    +0.053 C 
ATOM      3  C   LIG    1        2.681   4.423   3.188  0.00  0.00    +0.066 C 
ATOM      4  N   LIG    1        2.597   4.885   0.780  0.00  0.00    -0.228 NA
ATOM      5  C   LIG    1        2.471   4.617  -0.495  0.00  0.00    +0.178 A 
ATOM      6  N   LIG    1        2.236   3.358  -0.998  0.00  0.00    -0.275 N 
ATOM      7  C   LIG    1        2.126   3.207  -2.324  0.00  0.00    +0.268 A 
ATOM      8  C   LIG    1        2.262   4.401  -3.169  0.00  0.00    +0.081 A 
ATOM      9  C   LIG    1        2.192   4.515  -4.520  0.00  0.00    +0.028 C 
ATOM     10  O   LIG    1        1.918   2.112  -2.815  0.00  0.00    -0.266 OA
ATOM     11  S   LIG    1        2.545   5.662  -1.936  0.00  0.00    -0.046 S 
ATOM     12  C   LIG    1        2.130   2.274   0.019  0.00  0.00    +0.162 C 
ENDROOT
BRANCH   9  13
ATOM     13  C   LIG    1        2.190   5.843  -5.146  0.00  0.00    -0.024 A 
ATOM     14  C   LIG    1        1.918   6.982  -4.377  0.00  0.00    +0.011 A 
ATOM     15  C   LIG    1        1.924   8.226  -4.967  0.00  0.00    +0.046 A 
ATOM     16  C   LIG    1        2.186   8.351  -6.327  0.00  0.00    +0.121 A 
ATOM     17  C   LIG    1        2.451   7.224  -7.096  0.00  0.00    +0.046 A 
ATOM     18  C   LIG    1        2.454   5.976  -6.515  0.00  0.00    +0.011 A 
BRANCH  16  19
ATOM     19  O   LIG    1        2.185   9.580  -6.905  0.00  0.00    -0.481 OA
BRANCH  19  20
ATOM     20  C   LIG    1        1.905  10.695  -6.057  0.00  0.00    +0.349 C 
BRANCH  20  21
ATOM     21  C   LIG    1        1.947  11.965  -6.868  0.00  0.00    +0.343 C 
ATOM     22  O   LIG    1        2.191  11.919  -8.050  0.00  0.00    -0.247 OA
BRANCH  21  23
ATOM     23  O   LIG    1        1.713  13.147  -6.276  0.00  0.00    -0.478 OA
ATOM     24  H   LIG    1        1.524  13.183  -5.359  0.00  0.00    +0.295 HD
ENDBRANCH  21  23
ENDBRANCH  20  21
ENDBRANCH  19  20
ENDBRANCH  16  19
ENDBRANCH   9  13
BRANCH  12  25
ATOM     25  C   LIG    1        0.780   1.622  -0.139  0.00  0.00    -0.020 A 
ATOM     26  C   LIG    1       -0.356   2.404  -0.244  0.00  0.00    +0.007 A 
ATOM     27  C   LIG    1       -1.594   1.810  -0.389  0.00  0.00    +0.015 A 
ATOM     28  C   LIG    1       -1.698   0.425  -0.429  0.00  0.00    +0.008 A 
ATOM     29  C   LIG    1       -0.554  -0.358  -0.324  0.00  0.00    +0.015 A 
ATOM     30  C   LIG    1        0.681   0.243  -0.179  0.00  0.00    +0.007 A 
BRANCH  28  31
ATOM     31  S   LIG    1       -3.275  -0.337  -0.614  0.00  0.00    -0.129 S 
ATOM     32  C   LIG    1       -2.907  -2.114  -0.612  0.00  0.00    +0.090 C 
ENDBRANCH  28  31
ENDBRANCH  12  25
BRANCH   1  33
ATOM     33  C   LIG    1        2.202   1.713   2.493  0.00  0.00    +0.339 C 
ATOM     34  O   LIG    1        2.223   2.065   3.659  0.00  0.00    -0.245 OA
BRANCH  33  35
ATOM     35  O   LIG    1        2.094   0.402   2.185  0.00  0.00    -0.462 OA
BRANCH  35  37
ATOM     36  C   LIG    1        1.895  -1.942   2.736  0.00  0.00    +0.048 C 
ATOM     37  C   LIG    1        2.011  -0.516   3.277  0.00  0.00    +0.229 C 
ENDBRANCH  35  37
ENDBRANCH  33  35
ENDBRANCH   1  33
TORSDOF 10
