REMARK  Name = ZINC02041084
REMARK                            x       y       z     vdW  Elec       q    Type
REMARK                         _______ _______ _______ _____ _____    ______ ____
ROOT
ATOM      1  C   LIG    1       -4.306   1.101   0.172  0.00  0.00    -0.014 C 
ATOM      2  C   LIG    1       -2.861   1.601   0.109  0.00  0.00    -0.075 C 
ATOM      3  N   LIG    1       -2.120   1.081   1.274  0.00  0.00    +0.381 N 
ATOM      4  H   LIG    1       -2.585   1.388   2.136  0.00  0.00    -0.086 HD
ATOM      5  H   LIG    1       -2.110   0.054   1.237  0.00  0.00    -0.086 HD
ATOM      6  C   LIG    1       -0.731   1.580   1.266  0.00  0.00    -0.082 C 
ATOM      7  C   LIG    1       -0.013   1.086   0.008  0.00  0.00    -0.019 C 
ATOM      8  C   LIG    1       -0.755   1.594  -1.231  0.00  0.00    -0.003 C 
ATOM      9  C   LIG    1       -2.206   1.108  -1.183  0.00  0.00    -0.016 C 
ENDROOT
TORSDOF 0
