REMARK  Name = ZINC01920527
REMARK                            x       y       z     vdW  Elec       q    Type
REMARK                         _______ _______ _______ _____ _____    ______ ____
ROOT
ATOM      1  C   LIG    1        5.357  -0.144  -9.429  0.00  0.00    +0.112 A 
ATOM      2  N   LIG    1        4.816  -0.656 -10.517  0.00  0.00    -0.144 NA
ATOM      3  N   LIG    1        5.461  -1.409 -11.297  0.00  0.00    -0.126 NA
ATOM      4  C   LIG    1        6.726  -1.734 -11.069  0.00  0.00    +0.188 A 
ATOM      5  S   LIG    1        7.006  -0.831  -9.548  0.00  0.00    -0.035 S 
ENDROOT
BRANCH   4   6
ATOM      6  N   LIG    1        7.589  -2.539 -11.802  0.00  0.00    -0.259 N 
ATOM      7  H   LIG    1        8.499  -2.680 -11.497  0.00  0.00    +0.157 HD
ATOM      8  C   LIG    1        7.161  -3.125 -12.938  0.00  0.00    +0.250 C 
ATOM      9  O   LIG    1        6.021  -2.949 -13.321  0.00  0.00    -0.270 OA
BRANCH   8  10
ATOM     10  C   LIG    1        8.079  -3.981 -13.719  0.00  0.00    +0.037 A 
ATOM     11  C   LIG    1        9.387  -4.191 -13.279  0.00  0.00    +0.015 A 
ATOM     12  C   LIG    1       10.238  -4.992 -14.011  0.00  0.00    +0.033 A 
ATOM     13  C   LIG    1        9.798  -5.587 -15.180  0.00  0.00    +0.122 A 
ATOM     14  C   LIG    1        8.503  -5.383 -15.622  0.00  0.00    +0.033 A 
ATOM     15  C   LIG    1        7.639  -4.590 -14.896  0.00  0.00    +0.015 A 
BRANCH  13  16
ATOM     16  N   LIG    1       10.717  -6.445 -15.962  0.00  0.00    +0.006 N 
ATOM     17  O   LIG    1       11.849  -6.624 -15.578  0.00  0.00    -0.130 OA
BRANCH  16  18
ATOM     18  O   LIG    1       10.335  -6.966 -16.983  0.00  0.00    -0.396 OA
ATOM     19  H   LIG    1        9.457  -6.827 -17.281  0.00  0.00    +0.329 HD
ENDBRANCH  16  18
ENDBRANCH  13  16
ENDBRANCH   8  10
ENDBRANCH   4   6
BRANCH   1  20
ATOM     20  C   LIG    1        4.759   0.765  -8.386  0.00  0.00    +0.162 C 
BRANCH  20  23
ATOM     21  N   LIG    1        3.544   0.538  -6.244  0.00  0.00    -0.207 N 
ATOM     22  H   LIG    1        3.511   1.506  -6.196  0.00  0.00    +0.177 HD
ATOM     23  C   LIG    1        4.142  -0.065  -7.290  0.00  0.00    +0.239 C 
ATOM     24  O   LIG    1        4.184  -1.276  -7.350  0.00  0.00    -0.274 OA
BRANCH  21  26
ATOM     25  C   LIG    1        2.395   0.347  -4.217  0.00  0.00    +0.138 C 
ATOM     26  N   LIG    1        2.971  -0.233  -5.225  0.00  0.00    -0.188 NA
BRANCH  25  29
ATOM     27  C   LIG    1        0.606  -0.608  -1.056  0.00  0.00    +0.162 A 
ATOM     28  C   LIG    1        1.171   0.159  -2.059  0.00  0.00    +0.058 A 
ATOM     29  C   LIG    1        1.791  -0.465  -3.145  0.00  0.00    -0.002 A 
ATOM     30  C   LIG    1        1.838  -1.859  -3.212  0.00  0.00    +0.013 A 
ATOM     31  C   LIG    1        1.272  -2.617  -2.208  0.00  0.00    +0.050 A 
ATOM     32  C   LIG    1        0.661  -1.998  -1.127  0.00  0.00    +0.158 A 
BRANCH  27  34
ATOM     33  C   LIG    1       -0.017   1.425   0.010  0.00  0.00    +0.277 C 
ATOM     34  O   LIG    1        0.002  -0.004   0.002  0.00  0.00    -0.491 OA
ENDBRANCH  27  34
BRANCH  32  35
ATOM     35  O   LIG    1        0.110  -2.749  -0.138  0.00  0.00    -0.503 OA
ATOM     36  H   LIG    1       -0.819  -2.975  -0.286  0.00  0.00    +0.292 HD
ENDBRANCH  32  35
ENDBRANCH  25  29
ENDBRANCH  21  26
ENDBRANCH  20  23
ENDBRANCH   1  20
TORSDOF 10
