REMARK  Name = ZINC02046797
REMARK                            x       y       z     vdW  Elec       q    Type
REMARK                         _______ _______ _______ _____ _____    ______ ____
ROOT
ATOM      1  C   LIG    1        3.595   0.753   3.326  0.00  0.00    +0.162 A 
ATOM      2  C   LIG    1        2.876   1.918   3.120  0.00  0.00    +0.053 A 
ATOM      3  C   LIG    1        2.183   2.110   1.937  0.00  0.00    -0.038 A 
ATOM      4  C   LIG    1        2.206   1.135   0.957  0.00  0.00    -0.012 A 
ATOM      5  C   LIG    1        1.377   1.582  -0.229  0.00  0.00    +0.148 C 
ATOM      6  C   LIG    1        1.206   3.106  -0.054  0.00  0.00    +0.027 C 
ATOM      7  C   LIG    1        2.923  -0.032   1.159  0.00  0.00    +0.055 A 
ATOM      8  C   LIG    1        1.336   3.278   1.477  0.00  0.00    +0.042 C 
ATOM      9  C   LIG    1        3.618  -0.228   2.340  0.00  0.00    +0.162 A 
ENDROOT
BRANCH   1  11
ATOM     10  C   LIG    1        4.204   1.617   5.457  0.00  0.00    +0.277 C 
ATOM     11  O   LIG    1        4.274   0.567   4.490  0.00  0.00    -0.491 OA
ENDBRANCH   1  11
BRANCH   5  12
ATOM     12  O   LIG    1        0.103   0.935  -0.214  0.00  0.00    -0.387 OA
ATOM     13  H   LIG    1        0.149  -0.027  -0.299  0.00  0.00    +0.210 HD
ENDBRANCH   5  12
BRANCH   9  14
ATOM     14  O   LIG    1        4.322  -1.376   2.535  0.00  0.00    -0.491 OA
ATOM     15  C   LIG    1        4.300  -2.338   1.479  0.00  0.00    +0.277 C 
ENDBRANCH   9  14
BRANCH   6  16
ATOM     16  C   LIG    1       -0.172   3.558  -0.539  0.00  0.00    +0.010 C 
BRANCH  16  17
ATOM     17  C   LIG    1       -0.259   5.084  -0.481  0.00  0.00    -0.014 C 
ATOM     18  C   LIG    1       -1.681   5.530  -0.832  0.00  0.00    -0.015 C 
ATOM     19  C   LIG    1       -1.745   7.060  -0.832  0.00  0.00    -0.078 C 
ATOM     20  N   LIG    1       -0.795   7.580  -1.839  0.00  0.00    +0.382 N 
ATOM     21  H   LIG    1       -1.016   7.165  -2.751  0.00  0.00    -0.081 HD
ATOM     22  C   LIG    1        0.589   7.216  -1.467  0.00  0.00    -0.078 C 
ATOM     23  C   LIG    1        0.723   5.691  -1.487  0.00  0.00    -0.015 C 
BRANCH  20  24
ATOM     24  C   LIG    1       -0.920   9.049  -1.938  0.00  0.00    -0.043 C 
BRANCH  24  25
ATOM     25  C   LIG    1       -2.267   9.383  -2.526  0.00  0.00    -0.064 A 
ATOM     26  C   LIG    1       -2.415   9.488  -3.896  0.00  0.00    +0.002 A 
ATOM     27  C   LIG    1       -3.652   9.790  -4.436  0.00  0.00    +0.000 A 
ATOM     28  C   LIG    1       -4.737   9.995  -3.606  0.00  0.00    +0.000 A 
ATOM     29  C   LIG    1       -4.588   9.895  -2.235  0.00  0.00    +0.000 A 
ATOM     30  C   LIG    1       -3.352   9.589  -1.695  0.00  0.00    +0.002 A 
ENDBRANCH  24  25
ENDBRANCH  20  24
ENDBRANCH  16  17
ENDBRANCH   6  16
TORSDOF 7
