REMARK  Name = ZINC01999487
REMARK                            x       y       z     vdW  Elec       q    Type
REMARK                         _______ _______ _______ _____ _____    ______ ____
ROOT
ATOM      1  C   LIG    1       -0.017   1.369   0.010  0.00  0.00    +0.000 A 
ATOM      2  C   LIG    1        1.179   2.064   0.002  0.00  0.00    +0.000 A 
ATOM      3  C   LIG    1        2.361   1.363   0.012  0.00  0.00    +0.007 A 
ATOM      4  C   LIG    1        2.383  -0.035   0.013  0.00  0.00    -0.006 A 
ATOM      5  C   LIG    1        1.204  -0.725  -0.023  0.00  0.00    -0.037 A 
ATOM      6  C   LIG    1        1.024  -2.203  -0.149  0.00  0.00    +0.074 C 
ATOM      7  C   LIG    1        1.827  -3.041   0.790  0.00  0.00    -0.006 A 
ATOM      8  C   LIG    1        1.219  -3.825   1.750  0.00  0.00    +0.007 A 
ATOM      9  C   LIG    1        1.986  -4.650   2.553  0.00  0.00    +0.000 A 
ATOM     10  C   LIG    1        3.359  -4.697   2.392  0.00  0.00    +0.003 A 
ATOM     11  C   LIG    1        3.974  -3.892   1.453  0.00  0.00    +0.040 A 
ATOM     12  C   LIG    1        3.208  -3.034   0.676  0.00  0.00    +0.098 A 
ATOM     13  N   LIG    1        3.819  -2.070  -0.123  0.00  0.00    -0.185 N 
ATOM     14  C   LIG    1        4.583  -2.315  -1.238  0.00  0.00    +0.335 C 
ATOM     15  N   LIG    1        5.059  -1.248  -1.794  0.00  0.00    -0.278 N 
ATOM     16  H   LIG    1        5.620  -1.236  -2.585  0.00  0.00    +0.258 HD
ATOM     17  C   LIG    1        4.625  -0.057  -1.050  0.00  0.00    +0.239 C 
ATOM     18  C   LIG    1        3.757  -0.633   0.089  0.00  0.00    +0.208 C 
ATOM     19  C   LIG    1        0.002  -0.004   0.002  0.00  0.00    +0.004 A 
ENDROOT
BRANCH  14  20
ATOM     20  N   LIG    1        4.821  -3.580  -1.721  0.00  0.00    -0.254 N 
ATOM     21  H   LIG    1        5.368  -3.703  -2.512  0.00  0.00    +0.241 HD
ATOM     22  H   LIG    1        4.442  -4.351  -1.269  0.00  0.00    +0.241 HD
ENDBRANCH  14  20
TORSDOF 1
