REMARK  Name = ZINC02044729
REMARK                            x       y       z     vdW  Elec       q    Type
REMARK                         _______ _______ _______ _____ _____    ______ ____
ROOT
ATOM      1  CD  PRO A  1       -0.013   1.086   0.008  0.00  0.00    -0.054 C 
ATOM      2  N   PRO A  1       -0.783   1.587  -1.119  0.00  0.00    +0.392 N 
ATOM      3  H1  PRO A  1       -0.405   2.486  -1.439  0.00  0.00    -0.084 HD
ATOM      4  H2  PRO A  1       -0.765   0.913  -1.893  0.00  0.00    -0.084 HD
ATOM      5  CA  PRO A  1       -2.139   1.754  -0.623  0.00  0.00    +0.063 C 
ATOM      6  CB  PRO A  1       -1.963   1.970   0.863  0.00  0.00    -0.038 C 
ATOM      7  CG  PRO A  1       -0.759   1.593   1.220  0.00  0.00    -0.051 C 
ENDROOT
BRANCH   5   8
ATOM      8  C   PRO A  1       -2.811   2.949  -1.248  0.00  0.00    +0.294 C 
ATOM      9  O   PRO A  1       -2.221   3.615  -2.065  0.00  0.00    -0.253 OA
BRANCH   8  10
ATOM     10  OXT PRO A  1       -4.066   3.272  -0.898  0.00  0.00    -0.482 OA
ATOM     11  HXT PRO A  1       -4.524   2.756  -0.265  0.00  0.00    +0.295 HD
ENDBRANCH   8  10
ENDBRANCH   5   8
TORSDOF 2
