REMARK  Name = ZINC01670654
REMARK                            x       y       z     vdW  Elec       q    Type
REMARK                         _______ _______ _______ _____ _____    ______ ____
ROOT
ATOM      1  C   LIG    1       -0.718   1.572   1.248  0.00  0.00    +0.037 A 
ATOM      2  C   LIG    1       -1.630   0.792   1.866  0.00  0.00    +0.096 A 
ATOM      3  N   LIG    1       -2.258   1.247   2.994  0.00  0.00    -0.314 N 
ATOM      4  C   LIG    1       -1.982   2.468   3.486  0.00  0.00    +0.327 A 
ATOM      5  N   LIG    1       -1.081   3.268   2.887  0.00  0.00    -0.275 N 
ATOM      6  H   LIG    1       -0.889   4.173   3.266  0.00  0.00    +0.173 HD
ATOM      7  O   LIG    1       -2.555   2.854   4.487  0.00  0.00    -0.247 OA
ATOM      8  H   LIG    1       -2.928   0.666   3.456  0.00  0.00    +0.170 HD
ATOM      9  C   LIG    1       -0.438   2.855   1.776  0.00  0.00    +0.257 A 
ATOM     10  O   LIG    1        0.378   3.579   1.233  0.00  0.00    -0.267 OA
ENDROOT
BRANCH   1  11
ATOM     11  C   LIG    1       -0.013   1.086   0.008  0.00  0.00    +0.077 C 
BRANCH  11  15
ATOM     12  C   LIG    1       -2.079   2.501  -3.453  0.00  0.00    +0.000 A 
ATOM     13  C   LIG    1       -1.066   3.259  -2.894  0.00  0.00    +0.000 A 
ATOM     14  C   LIG    1       -0.398   2.801  -1.774  0.00  0.00    +0.004 A 
ATOM     15  C   LIG    1       -0.742   1.585  -1.213  0.00  0.00    -0.043 A 
ATOM     16  C   LIG    1       -1.750   0.825  -1.775  0.00  0.00    +0.004 A 
ATOM     17  C   LIG    1       -2.422   1.285  -2.892  0.00  0.00    +0.000 A 
ENDBRANCH  11  15
ENDBRANCH   1  11
TORSDOF 2
