REMARK  Name = ZINC01895310
REMARK                            x       y       z     vdW  Elec       q    Type
REMARK                         _______ _______ _______ _____ _____    ______ ____
ROOT
ATOM      1  C   LIG    1       -3.287   3.845  -1.031  0.00  0.00    -0.032 C 
ATOM      2  C   LIG    1       -2.516   3.760   0.083  0.00  0.00    -0.007 C 
ENDROOT
BRANCH   1   3
ATOM      3  C   LIG    1       -4.448   4.747  -1.054  0.00  0.00    -0.021 A 
ATOM      4  C   LIG    1       -5.540   4.509  -0.211  0.00  0.00    +0.008 A 
ATOM      5  C   LIG    1       -6.622   5.362  -0.235  0.00  0.00    +0.001 A 
ATOM      6  C   LIG    1       -6.636   6.445  -1.097  0.00  0.00    +0.000 A 
ATOM      7  C   LIG    1       -5.563   6.684  -1.938  0.00  0.00    +0.001 A 
ATOM      8  C   LIG    1       -4.470   5.843  -1.923  0.00  0.00    +0.008 A 
ENDBRANCH   1   3
BRANCH   2   9
ATOM      9  C   LIG    1       -2.758   4.671   1.220  0.00  0.00    -0.017 A 
ATOM     10  C   LIG    1       -2.548   6.046   1.071  0.00  0.00    +0.009 A 
ATOM     11  C   LIG    1       -2.776   6.889   2.120  0.00  0.00    +0.008 A 
ATOM     12  C   LIG    1       -3.210   6.377   3.349  0.00  0.00    -0.025 A 
ATOM     13  C   LIG    1       -3.415   4.999   3.498  0.00  0.00    +0.008 A 
ATOM     14  C   LIG    1       -3.191   4.158   2.446  0.00  0.00    +0.009 A 
BRANCH  12  15
ATOM     15  C   LIG    1       -3.450   7.283   4.480  0.00  0.00    +0.015 C 
ATOM     16  C   LIG    1       -3.252   8.612   4.335  0.00  0.00    +0.092 C 
BRANCH  16  17
ATOM     17  C   LIG    1       -3.490   9.513   5.460  0.00  0.00    +0.330 C 
ATOM     18  O   LIG    1       -3.867   9.067   6.527  0.00  0.00    -0.246 OA
BRANCH  17  19
ATOM     19  O   LIG    1       -3.292  10.840   5.315  0.00  0.00    -0.478 OA
ATOM     20  H   LIG    1       -3.002  11.183   4.493  0.00  0.00    +0.295 HD
ENDBRANCH  17  19
ENDBRANCH  16  17
ENDBRANCH  12  15
ENDBRANCH   2   9
BRANCH   2  21
ATOM     21  C   LIG    1       -1.433   2.754   0.158  0.00  0.00    -0.017 A 
ATOM     22  C   LIG    1       -1.739   1.393   0.134  0.00  0.00    +0.008 A 
ATOM     23  C   LIG    1       -0.725   0.460   0.210  0.00  0.00    +0.001 A 
ATOM     24  C   LIG    1        0.593   0.872   0.299  0.00  0.00    +0.000 A 
ATOM     25  C   LIG    1        0.903   2.220   0.318  0.00  0.00    +0.001 A 
ATOM     26  C   LIG    1       -0.102   3.163   0.248  0.00  0.00    +0.008 A 
ENDBRANCH   2  21
BRANCH   1  28
ATOM     27  C   LIG    1       -2.085   3.837  -3.200  0.00  0.00    +0.009 C 
ATOM     28  C   LIG    1       -2.953   3.016  -2.244  0.00  0.00    +0.033 C 
ENDBRANCH   1  28
TORSDOF 7
