REMARK  Name = ZINC02382960
REMARK                            x       y       z     vdW  Elec       q    Type
REMARK                         _______ _______ _______ _____ _____    ______ ____
ROOT
ATOM      1  C   LIG    1        1.190   2.078   0.002  0.00  0.00    +0.085 C 
ATOM      2  N   LIG    1        2.413   1.463  -0.013  0.00  0.00    -0.309 NA
ATOM      3  H   LIG    1        3.291   1.996  -0.019  0.00  0.00    +0.123 HD
ATOM      4  C   LIG    1        2.394   0.104  -0.020  0.00  0.00    +0.083 C 
ATOM      5  C   LIG    1        1.239  -0.650  -0.013  0.00  0.00    +0.033 C 
ATOM      6  C   LIG    1        0.002  -0.004   0.002  0.00  0.00    +0.054 C 
ATOM      7  C   LIG    1       -0.017   1.388   0.010  0.00  0.00    +0.042 C 
ENDROOT
BRANCH   1  11
ATOM      8  C   LIG    1        1.186   6.330   0.025  0.00  0.00    +0.000 A 
ATOM      9  C   LIG    1        2.386   5.643   0.010  0.00  0.00    +0.000 A 
ATOM     10  C   LIG    1        2.393   4.262   0.002  0.00  0.00    +0.005 A 
ATOM     11  C   LIG    1        1.189   3.562   0.010  0.00  0.00    -0.030 A 
ATOM     12  C   LIG    1       -0.017   4.260   0.019  0.00  0.00    +0.005 A 
ATOM     13  C   LIG    1       -0.013   5.640   0.033  0.00  0.00    +0.000 A 
ENDBRANCH   1  11
BRANCH   6  14
ATOM     14  N   LIG    1       -1.183  -0.734   0.010  0.00  0.00    -0.327 NA
ATOM     15  H   LIG    1       -1.156  -1.703   0.004  0.00  0.00    +0.118 HD
ATOM     16  H   LIG    1       -2.037  -0.272   0.021  0.00  0.00    +0.118 HD
ENDBRANCH   6  14
TORSDOF 2
