REMARK  Name = ZINC01683100
REMARK                            x       y       z     vdW  Elec       q    Type
REMARK                         _______ _______ _______ _____ _____    ______ ____
ROOT
ATOM      1  C   LIG    1        1.144   3.821   0.012  0.00  0.00    +0.003 A 
ATOM      2  C   LIG    1       -0.044   4.518   0.026  0.00  0.00    +0.026 A 
ATOM      3  C   LIG    1       -1.252   3.827   0.034  0.00  0.00    +0.048 A 
ATOM      4  C   LIG    1       -1.244   2.418   0.021  0.00  0.00    +0.019 A 
ATOM      5  C   LIG    1       -0.021   1.732   0.012  0.00  0.00    +0.050 A 
ATOM      6 CL   LIG    1        0.002  -0.004   0.002  0.00  0.00    -0.083 Cl
ATOM      7  C   LIG    1       -2.595   1.997   0.025  0.00  0.00    +0.044 A 
ATOM      8  CA  LIG    1       -3.376   3.110   0.034  0.00  0.00    +0.125 A 
ATOM      9  N   LIG    1       -2.566   4.231   0.048  0.00  0.00    -0.349 N 
ATOM     10  H   LIG    1       -2.874   5.150   0.056  0.00  0.00    +0.166 HD
ATOM     11  C   LIG    1        1.151   2.433   0.004  0.00  0.00    +0.021 A 
ENDROOT
BRANCH   8  12
ATOM     12  C   LIG    1       -4.844   3.121   0.041  0.00  0.00    +0.353 C 
ATOM     13  O   LIG    1       -5.459   2.072   0.038  0.00  0.00    -0.243 OA
BRANCH  12  14
ATOM     14  OXT LIG    1       -5.510   4.293   0.050  0.00  0.00    -0.476 OA
ATOM     15  HXT LIG    1       -5.036   5.101   0.052  0.00  0.00    +0.295 HD
ENDBRANCH  12  14
ENDBRANCH   8  12
TORSDOF 2
