REMARK  Name = ZINC01915508
REMARK                            x       y       z     vdW  Elec       q    Type
REMARK                         _______ _______ _______ _____ _____    ______ ____
ROOT
ATOM      1  N   LIG    1       -0.993   6.174   0.046  0.00  0.00    -0.318 N 
ATOM      2  C   LIG    1       -1.826   5.983  -1.149  0.00  0.00    +0.088 C 
ATOM      3  C   LIG    1       -3.062   6.881  -1.056  0.00  0.00    -0.060 C 
ATOM      4  N   LIG    1       -2.621   8.288  -0.955  0.00  0.00    +0.382 N 
ATOM      5  H   LIG    1       -2.052   8.520  -1.777  0.00  0.00    -0.082 HD
ATOM      6  C   LIG    1       -1.804   8.474   0.263  0.00  0.00    -0.060 C 
ATOM      7  C   LIG    1       -0.568   7.576   0.169  0.00  0.00    +0.088 C 
ENDROOT
BRANCH   1  13
ATOM      8  C   LIG    1       -0.185   3.036   3.058  0.00  0.00    +0.001 A 
ATOM      9  C   LIG    1        0.970   2.287   2.873  0.00  0.00    +0.001 A 
ATOM     10  C   LIG    1        1.780   2.538   1.797  0.00  0.00    +0.017 A 
ATOM     11  C   LIG    1        1.440   3.539   0.911  0.00  0.00    +0.041 A 
ATOM     12  C   LIG    1        0.274   4.321   1.077  0.00  0.00    +0.031 A 
ATOM     13  C   LIG    1        0.109   5.317   0.030  0.00  0.00    +0.138 A 
ATOM     14  N   LIG    1        0.993   5.407  -0.921  0.00  0.00    -0.194 NA
ATOM     15  S   LIG    1        2.152   4.203  -0.570  0.00  0.00    +0.014 S 
ATOM     16  C   LIG    1       -0.534   4.031   2.199  0.00  0.00    +0.012 A 
ENDBRANCH   1  13
BRANCH   4  17
ATOM     17  C   LIG    1       -3.797   9.184  -0.916  0.00  0.00    -0.079 C 
BRANCH  17  18
ATOM     18  C   LIG    1       -4.498   9.138  -2.275  0.00  0.00    -0.017 C 
BRANCH  18  19
ATOM     19  C   LIG    1       -5.706  10.077  -2.258  0.00  0.00    +0.018 C 
BRANCH  19  20
ATOM     20  C   LIG    1       -6.407  10.031  -3.617  0.00  0.00    +0.116 C 
BRANCH  20  21
ATOM     21  N   LIG    1       -7.564  10.930  -3.600  0.00  0.00    -0.242 N 
ATOM     22  C   LIG    1       -8.752  10.440  -3.217  0.00  0.00    +0.222 C 
ATOM     23  C   LIG    1       -9.983  11.308  -3.189  0.00  0.00    +0.103 C 
ATOM     24  C   LIG    1       -9.572  12.760  -2.952  0.00  0.00    -0.013 C 
ATOM     25  C   LIG    1       -8.540  13.179  -3.998  0.00  0.00    +0.103 C 
ATOM     26  C   LIG    1      -10.802  13.677  -3.026  0.00  0.00    +0.008 C 
ATOM     27  C   LIG    1      -10.920  14.361  -1.647  0.00  0.00    +0.001 C 
ATOM     28  C   LIG    1       -9.484  14.302  -1.069  0.00  0.00    +0.001 C 
ATOM     29  C   LIG    1       -8.981  12.914  -1.540  0.00  0.00    +0.008 C 
ATOM     30  O   LIG    1       -8.836   9.278  -2.882  0.00  0.00    -0.275 OA
ATOM     31  C   LIG    1       -7.389  12.206  -3.974  0.00  0.00    +0.222 C 
ATOM     32  O   LIG    1       -6.285  12.585  -4.300  0.00  0.00    -0.275 OA
ENDBRANCH  20  21
ENDBRANCH  19  20
ENDBRANCH  18  19
ENDBRANCH  17  18
ENDBRANCH   4  17
TORSDOF 6
