REMARK  Name = ZINC01861886
REMARK                            x       y       z     vdW  Elec       q    Type
REMARK                         _______ _______ _______ _____ _____    ______ ____
ROOT
ATOM      1  C   LIG    1        1.111   3.165   1.003  0.00  0.00    +0.108 C 
ATOM      2  C   LIG    1        1.271   2.012   0.001  0.00  0.00    +0.106 C 
ATOM      3  C   LIG    1       -0.014   1.209   0.009  0.00  0.00    +0.167 C 
ATOM      4  C   LIG    1       -1.280   1.953   0.019  0.00  0.00    +0.042 A 
ATOM      5  C   LIG    1       -2.488   1.312  -0.281  0.00  0.00    +0.062 A 
ATOM      6  C   LIG    1       -3.664   2.030  -0.262  0.00  0.00    +0.167 A 
ATOM      7  C   LIG    1       -3.652   3.393   0.054  0.00  0.00    +0.168 A 
ATOM      8  O   LIG    1       -4.932   3.861   0.003  0.00  0.00    -0.453 OA
ATOM      9  C   LIG    1       -5.673   2.879  -0.745  0.00  0.00    +0.466 C 
ATOM     10  C   LIG    1       -2.457   4.033   0.362  0.00  0.00    +0.073 A 
ATOM     11  O   LIG    1       -4.954   1.653  -0.510  0.00  0.00    -0.453 OA
ATOM     12  C   LIG    1       -1.266   3.325   0.340  0.00  0.00    +0.042 A 
ATOM     13  O   LIG    1        0.002  -0.004   0.002  0.00  0.00    -0.292 OA
ATOM     14  N   LIG    1       -0.064   3.959   0.626  0.00  0.00    -0.336 N 
ATOM     15  H   LIG    1       -0.002   4.926   0.577  0.00  0.00    +0.147 HD
ENDROOT
BRANCH   1  20
ATOM     16  C   LIG    1        1.815   2.043   4.542  0.00  0.00    +0.120 A 
ATOM     17  C   LIG    1        0.569   1.575   4.935  0.00  0.00    +0.045 A 
ATOM     18  C   LIG    1       -0.494   1.624   4.055  0.00  0.00    +0.004 A 
ATOM     19  C   LIG    1       -0.318   2.138   2.783  0.00  0.00    +0.006 A 
ATOM     20  C   LIG    1        0.922   2.605   2.390  0.00  0.00    -0.023 A 
ATOM     21  C   LIG    1        1.990   2.554   3.265  0.00  0.00    +0.051 A 
BRANCH  16  23
ATOM     22  C   LIG    1        2.610   1.453   6.704  0.00  0.00    +0.277 C 
ATOM     23  O   LIG    1        2.863   1.997   5.406  0.00  0.00    -0.495 OA
ENDBRANCH  16  23
ENDBRANCH   1  20
TORSDOF 2
