REMARK  Name = ZINC01851149
REMARK                            x       y       z     vdW  Elec       q    Type
REMARK                         _______ _______ _______ _____ _____    ______ ____
ROOT
ATOM      1  C   LIG    1        8.445   3.118   1.068  0.00  0.00    +0.019 C 
ENDROOT
BRANCH   1   2
ATOM      2  C   LIG    1        7.773   2.347  -0.070  0.00  0.00    +0.084 C 
BRANCH   2   6
ATOM      3  N   LIG    1        3.582   2.126  -0.021  0.00  0.00    -0.326 N 
ATOM      4  C   LIG    1        4.215   2.524  -1.288  0.00  0.00    +0.120 C 
ATOM      5  C   LIG    1        5.681   2.079  -1.260  0.00  0.00    +0.103 C 
ATOM      6  N   LIG    1        6.327   2.605  -0.050  0.00  0.00    -0.299 NA
ATOM      7  C   LIG    1        5.711   2.056   1.165  0.00  0.00    +0.103 C 
ATOM      8  C   LIG    1        4.243   2.506   1.237  0.00  0.00    +0.120 C 
BRANCH   3  11
ATOM      9  C   LIG    1       -0.017   1.378   0.010  0.00  0.00    +0.003 A 
ATOM     10  C   LIG    1        1.169   2.087   0.002  0.00  0.00    +0.025 A 
ATOM     11  C   LIG    1        2.382   1.411  -0.013  0.00  0.00    +0.050 A 
ATOM     12  C   LIG    1        2.399   0.021  -0.021  0.00  0.00    +0.080 A 
ATOM     13 CL   LIG    1        3.912  -0.830  -0.040  0.00  0.00    -0.080 Cl
ATOM     14  C   LIG    1        1.208  -0.683  -0.013  0.00  0.00    +0.061 A 
ATOM     15 CL   LIG    1        1.227  -2.419  -0.023  0.00  0.00    -0.082 Cl
ATOM     16  C   LIG    1        0.002  -0.004   0.002  0.00  0.00    +0.021 A 
ENDBRANCH   3  11
ENDBRANCH   2   6
ENDBRANCH   1   2
BRANCH   1  17
ATOM     17  C   LIG    1        9.951   2.849   1.047  0.00  0.00    +0.042 C 
BRANCH  17  18
ATOM     18  C   LIG    1       10.623   3.620   2.185  0.00  0.00    +0.229 C 
BRANCH  18  19
ATOM     19  O   LIG    1       12.029   3.369   2.165  0.00  0.00    -0.492 OA
BRANCH  19  20
ATOM     20  C   LIG    1       12.779   3.983   3.118  0.00  0.00    +0.122 A 
ATOM     21  C   LIG    1       12.171   4.806   4.056  0.00  0.00    +0.046 A 
ATOM     22  C   LIG    1       12.932   5.432   5.025  0.00  0.00    +0.009 A 
ATOM     23  C   LIG    1       14.300   5.239   5.063  0.00  0.00    -0.025 A 
ATOM     24  C   LIG    1       14.913   4.416   4.128  0.00  0.00    +0.040 A 
ATOM     25  N   LIG    1       16.297   4.223   4.170  0.00  0.00    -0.285 N 
ATOM     26  H   LIG    1       16.760   3.883   3.388  0.00  0.00    +0.155 HD
ATOM     27  C   LIG    1       16.991   4.503   5.288  0.00  0.00    +0.218 C 
ATOM     28  C   LIG    1       16.294   5.013   6.520  0.00  0.00    +0.101 C 
ATOM     29  O   LIG    1       18.194   4.343   5.302  0.00  0.00    -0.275 OA
ATOM     30  C   LIG    1       15.130   5.921   6.120  0.00  0.00    +0.046 C 
ATOM     31  C   LIG    1       14.150   3.783   3.157  0.00  0.00    +0.069 A 
ENDBRANCH  19  20
ENDBRANCH  18  19
ENDBRANCH  17  18
ENDBRANCH   1  17
TORSDOF 7
