REMARK  Name = ZINC01681686
REMARK                            x       y       z     vdW  Elec       q    Type
REMARK                         _______ _______ _______ _____ _____    ______ ____
ROOT
ATOM      1  C   LIG    1        3.197   3.066  -0.013  0.00  0.00    +0.225 A 
ATOM      2  N   LIG    1        3.981   2.003  -0.026  0.00  0.00    -0.219 NA
ATOM      3  C   LIG    1        3.474   0.775  -0.027  0.00  0.00    +0.147 A 
ATOM      4  C   LIG    1        2.077   0.626  -0.014  0.00  0.00    +0.147 A 
ATOM      5  C   LIG    1        1.287   1.788  -0.001  0.00  0.00    +0.168 A 
ATOM      6  N   LIG    1       -0.016   1.359   0.009  0.00  0.00    -0.282 N 
ATOM      7  C   LIG    1        0.002  -0.004   0.002  0.00  0.00    +0.204 A 
ATOM      8  N   LIG    1        1.231  -0.432  -0.012  0.00  0.00    -0.231 NA
ATOM      9  N   LIG    1        1.884   2.975   0.000  0.00  0.00    -0.216 NA
ENDROOT
BRANCH   3  10
ATOM     10  N   LIG    1        4.304  -0.333  -0.042  0.00  0.00    -0.341 N 
ATOM     11  H   LIG    1        5.267  -0.218  -0.051  0.00  0.00    +0.144 HD
ATOM     12  H   LIG    1        4.134  -0.887   0.773  0.00  0.00    +0.144 HD
ENDBRANCH   3  10
BRANCH   6  13
ATOM     13  C   LIG    1       -1.209   2.210   0.020  0.00  0.00    +0.286 C 
BRANCH  13  14
ATOM     14  C   LIG    1       -1.554   2.609  -1.392  0.00  0.00    +0.277 C 
ATOM     15  O   LIG    1       -2.625   2.308  -1.860  0.00  0.00    -0.296 OA
ENDBRANCH  13  14
BRANCH  13  16
ATOM     16  O   LIG    1       -2.303   1.489   0.592  0.00  0.00    -0.337 OA
BRANCH  16  17
ATOM     17  C   LIG    1       -3.255   2.316   1.265  0.00  0.00    +0.209 C 
BRANCH  17  18
ATOM     18  C   LIG    1       -2.861   2.460   2.712  0.00  0.00    +0.257 C 
ATOM     19  O   LIG    1       -1.867   1.911   3.124  0.00  0.00    -0.298 OA
ENDBRANCH  17  18
BRANCH  17  20
ATOM     20  C   LIG    1       -4.641   1.674   1.175  0.00  0.00    +0.195 C 
BRANCH  20  21
ATOM     21  O   LIG    1       -4.640   0.438   1.891  0.00  0.00    -0.392 OA
ATOM     22  H   LIG    1       -5.489  -0.026   1.877  0.00  0.00    +0.210 HD
ENDBRANCH  20  21
ENDBRANCH  17  20
ENDBRANCH  16  17
ENDBRANCH  13  16
ENDBRANCH   6  13
TORSDOF 8
