REMARK  Name = ZINC02204479
REMARK                            x       y       z     vdW  Elec       q    Type
REMARK                         _______ _______ _______ _____ _____    ______ ____
ROOT
ATOM      1  C   LIG    1        5.123   0.969  -0.236  0.00  0.00    +0.114 C 
ATOM      2  C   LIG    1        6.444   1.359  -0.269  0.00  0.00    +0.032 C 
ENDROOT
BRANCH   1  11
ATOM      3  C   LIG    1        1.809  -4.658  -0.124  0.00  0.00    +0.000 A 
ATOM      4  C   LIG    1        3.186  -4.578  -0.012  0.00  0.00    +0.002 A 
ATOM      5  C   LIG    1        3.812  -3.350  -0.020  0.00  0.00    +0.024 A 
ATOM      6  C   LIG    1        3.062  -2.178  -0.142  0.00  0.00    +0.040 A 
ATOM      7  C   LIG    1        1.684  -2.269  -0.254  0.00  0.00    -0.024 A 
ATOM      8  C   LIG    1        1.117  -0.872  -0.371  0.00  0.00    +0.056 C 
ATOM      9  C   LIG    1        2.346   0.050  -0.314  0.00  0.00    +0.119 C 
ATOM     10  N   LIG    1        3.495  -0.849  -0.172  0.00  0.00    -0.266 N 
ATOM     11  C   LIG    1        4.780  -0.453  -0.083  0.00  0.00    +0.261 C 
ATOM     12  O   LIG    1        5.656  -1.271   0.125  0.00  0.00    -0.269 OA
ATOM     13  C   LIG    1        1.061  -3.502  -0.245  0.00  0.00    +0.005 A 
ENDBRANCH   1  11
BRANCH   2  14
ATOM     14  C   LIG    1        6.788   2.783  -0.265  0.00  0.00    -0.020 A 
ATOM     15  C   LIG    1        7.965   3.224  -0.886  0.00  0.00    +0.012 A 
ATOM     16  C   LIG    1        8.285   4.563  -0.880  0.00  0.00    +0.050 A 
ATOM     17  C   LIG    1        7.444   5.480  -0.261  0.00  0.00    +0.158 A 
ATOM     18  C   LIG    1        6.271   5.049   0.360  0.00  0.00    +0.159 A 
ATOM     19  C   LIG    1        5.938   3.710   0.354  0.00  0.00    +0.057 A 
BRANCH  17  20
ATOM     20  O   LIG    1        7.766   6.799  -0.258  0.00  0.00    -0.503 OA
ATOM     21  H   LIG    1        7.418   7.290  -1.016  0.00  0.00    +0.292 HD
ENDBRANCH  17  20
BRANCH  18  22
ATOM     22  O   LIG    1        5.452   5.951   0.966  0.00  0.00    -0.503 OA
ATOM     23  H   LIG    1        4.775   6.320   0.383  0.00  0.00    +0.292 HD
ENDBRANCH  18  22
ENDBRANCH   2  14
BRANCH   1  24
ATOM     24  C   LIG    1        4.084   1.948  -0.350  0.00  0.00    +0.104 C 
ATOM     25  N   LIG    1        3.260   2.725  -0.441  0.00  0.00    -0.191 NA
ENDBRANCH   1  24
TORSDOF 5
