REMARK  Name = ZINC01999529
REMARK                            x       y       z     vdW  Elec       q    Type
REMARK                         _______ _______ _______ _____ _____    ______ ____
ROOT
ATOM      1  C   LIG    1        3.807  -5.889  -1.503  0.00  0.00    -0.017 C 
ENDROOT
BRANCH   1   2
ATOM      2  C   LIG    1        3.296  -4.447  -1.491  0.00  0.00    +0.019 C 
BRANCH   2   3
ATOM      3  C   LIG    1        3.258  -3.932  -0.051  0.00  0.00    +0.135 C 
BRANCH   3  10
ATOM      4  C   LIG    1       -0.017   1.372   0.010  0.00  0.00    +0.001 A 
ATOM      5  C   LIG    1        1.161   2.099   0.002  0.00  0.00    +0.002 A 
ATOM      6  C   LIG    1        2.377   1.432  -0.013  0.00  0.00    +0.029 A 
ATOM      7  C   LIG    1        2.399   0.066  -0.020  0.00  0.00    +0.121 A 
ATOM      8  C   LIG    1        1.225  -0.698  -0.013  0.00  0.00    +0.065 A 
ATOM      9  C   LIG    1        1.491  -2.142  -0.024  0.00  0.00    +0.268 C 
ATOM     10  N   LIG    1        2.769  -2.551  -0.039  0.00  0.00    -0.168 N 
ATOM     11  O   LIG    1        0.579  -2.946  -0.020  0.00  0.00    -0.268 OA
ATOM     12  S   LIG    1        3.686  -1.151  -0.040  0.00  0.00    +0.078 S 
ATOM     13  O   LIG    1        4.343  -1.066  -1.297  0.00  0.00    -0.150 OA
ATOM     14  O   LIG    1        4.367  -1.080   1.206  0.00  0.00    -0.150 OA
ATOM     15  C   LIG    1        0.002  -0.004   0.002  0.00  0.00    +0.015 A 
ENDBRANCH   3  10
ENDBRANCH   2   3
ENDBRANCH   1   2
BRANCH   1  16
ATOM     16  C   LIG    1        3.846  -6.404  -2.943  0.00  0.00    -0.079 C 
BRANCH  16  17
ATOM     17  N   LIG    1        4.336  -7.789  -2.955  0.00  0.00    +0.382 N 
ATOM     18  H   LIG    1        3.765  -8.352  -2.343  0.00  0.00    -0.082 HD
ATOM     19  C   LIG    1        5.727  -7.817  -2.484  0.00  0.00    -0.060 C 
ATOM     20  C   LIG    1        6.202  -9.271  -2.387  0.00  0.00    +0.089 C 
ATOM     21  N   LIG    1        5.989  -9.919  -3.690  0.00  0.00    -0.303 N 
ATOM     22  C   LIG    1        4.662  -9.800  -4.315  0.00  0.00    +0.089 C 
ATOM     23  C   LIG    1        4.260  -8.322  -4.321  0.00  0.00    -0.060 C 
BRANCH  21  24
ATOM     24  C   LIG    1        7.007 -10.621  -4.311  0.00  0.00    +0.218 A 
ATOM     25  N   LIG    1        8.187 -10.711  -3.715  0.00  0.00    -0.223 NA
ATOM     26  C   LIG    1        9.181 -11.376  -4.281  0.00  0.00    +0.116 A 
ATOM     27  C   LIG    1        8.977 -11.980  -5.511  0.00  0.00    +0.039 A 
ATOM     28  C   LIG    1        7.730 -11.867  -6.106  0.00  0.00    +0.116 A 
ATOM     29  N   LIG    1        6.777 -11.192  -5.484  0.00  0.00    -0.223 NA
ENDBRANCH  21  24
ENDBRANCH  16  17
ENDBRANCH   1  16
TORSDOF 6
