REMARK  Name = ZINC02001180
REMARK                            x       y       z     vdW  Elec       q    Type
REMARK                         _______ _______ _______ _____ _____    ______ ____
ROOT
ATOM      1  C   LIG    1       -0.787   2.893   1.346  0.00  0.00    +0.121 A 
ATOM      2  C   LIG    1       -0.253   3.750   0.396  0.00  0.00    +0.049 A 
ATOM      3  C   LIG    1       -0.366   5.117   0.558  0.00  0.00    +0.049 A 
ATOM      4  C   LIG    1       -1.003   5.633   1.677  0.00  0.00    +0.126 A 
ATOM      5  C   LIG    1       -1.532   4.775   2.630  0.00  0.00    +0.024 A 
ATOM      6  C   LIG    1       -1.425   3.408   2.465  0.00  0.00    +0.055 A 
ENDROOT
BRANCH   1   8
ATOM      7  C   LIG    1       -0.013   1.086   0.008  0.00  0.00    +0.277 C 
ATOM      8  O   LIG    1       -0.682   1.547   1.184  0.00  0.00    -0.495 OA
ENDBRANCH   1   8
BRANCH   4   9
ATOM      9  O   LIG    1       -1.109   6.979   1.839  0.00  0.00    -0.495 OA
ATOM     10  C   LIG    1       -0.542   7.802   0.819  0.00  0.00    +0.277 C 
ENDBRANCH   4   9
BRANCH   5  11
ATOM     11  C   LIG    1       -2.224   5.335   3.846  0.00  0.00    +0.131 C 
BRANCH  11  12
ATOM     12  O   LIG    1       -2.161   4.384   4.910  0.00  0.00    -0.389 OA
ATOM     13  H   LIG    1       -2.582   3.538   4.707  0.00  0.00    +0.210 HD
ENDBRANCH  11  12
BRANCH  11  14
ATOM     14  C   LIG    1       -3.688   5.628   3.510  0.00  0.00    -0.050 C 
BRANCH  14  15
ATOM     15  N   LIG    1       -4.318   6.305   4.657  0.00  0.00    +0.380 N 
ATOM     16  H   LIG    1       -3.838   7.197   4.828  0.00  0.00    -0.090 HD
ATOM     17  H   LIG    1       -4.243   5.724   5.490  0.00  0.00    -0.090 HD
ATOM     18  H   LIG    1       -5.300   6.488   4.459  0.00  0.00    -0.090 HD
ENDBRANCH  14  15
ENDBRANCH  11  14
ENDBRANCH   5  11
TORSDOF 6
