REMARK  Name = ZINC02141063
REMARK                            x       y       z     vdW  Elec       q    Type
REMARK                         _______ _______ _______ _____ _____    ______ ____
ROOT
ATOM      1  N   LIG    1        4.123  -0.938  -1.426  0.00  0.00    -0.297 NA
ATOM      2  H   LIG    1        3.566  -0.626  -2.156  0.00  0.00    +0.124 HD
ENDROOT
BRANCH   1   9
ATOM      3  C   LIG    1        8.179  -3.207   0.183  0.00  0.00    +0.007 C 
ATOM      4  C   LIG    1        7.290  -2.709  -0.927  0.00  0.00    -0.010 C 
ATOM      5  C   LIG    1        7.638  -2.904  -2.257  0.00  0.00    +0.018 C 
ATOM      6  C   LIG    1        6.802  -2.436  -3.251  0.00  0.00    +0.082 C 
ATOM      7  N   LIG    1        5.634  -1.783  -3.010  0.00  0.00    -0.301 NA
ATOM      8  H   LIG    1        5.031  -1.445  -3.769  0.00  0.00    +0.123 HD
ATOM      9  C   LIG    1        5.313  -1.603  -1.696  0.00  0.00    +0.122 C 
ATOM     10  C   LIG    1        6.111  -2.043  -0.644  0.00  0.00    +0.038 C 
ENDBRANCH   1   9
BRANCH   1  11
ATOM     11  C   LIG    1        3.711  -0.707  -0.039  0.00  0.00    +0.117 C 
BRANCH  11  12
ATOM     12  C   LIG    1        2.396   0.029  -0.022  0.00  0.00    -0.034 A 
ATOM     13  C   LIG    1        1.208  -0.679  -0.014  0.00  0.00    +0.005 A 
ATOM     14  C   LIG    1        0.002  -0.004   0.002  0.00  0.00    +0.000 A 
ATOM     15  C   LIG    1       -0.017   1.378   0.010  0.00  0.00    +0.000 A 
ATOM     16  C   LIG    1        1.171   2.086   0.002  0.00  0.00    +0.000 A 
ATOM     17  C   LIG    1        2.377   1.411  -0.014  0.00  0.00    +0.005 A 
ENDBRANCH  11  12
ENDBRANCH   1  11
TORSDOF 3
