REMARK  Name = ZINC02021474
REMARK                            x       y       z     vdW  Elec       q    Type
REMARK                         _______ _______ _______ _____ _____    ______ ____
ROOT
ATOM      1  N   LIG    1       -1.377  -1.737   2.629  0.00  0.00    -0.313 N 
ATOM      2  H   LIG    1       -1.666  -1.136   1.925  0.00  0.00    +0.149 HD
ATOM      3  C   LIG    1       -2.177  -1.969   3.688  0.00  0.00    +0.251 C 
ATOM      4  O   LIG    1       -1.814  -2.723   4.571  0.00  0.00    -0.270 OA
ENDROOT
BRANCH   3   5
ATOM      5  C   LIG    1       -3.491  -1.310   3.776  0.00  0.00    +0.122 A 
ATOM      6  C   LIG    1       -4.629  -1.929   3.237  0.00  0.00    +0.151 A 
ATOM      7  C   LIG    1       -5.861  -1.300   3.325  0.00  0.00    +0.085 A 
ATOM      8 CL   LIG    1       -7.270  -2.062   2.658  0.00  0.00    -0.080 Cl
ATOM      9  C   LIG    1       -5.971  -0.067   3.942  0.00  0.00    +0.047 A 
ATOM     10  C   LIG    1       -4.855   0.551   4.477  0.00  0.00    +0.085 A 
ATOM     11 CL   LIG    1       -5.010   2.100   5.247  0.00  0.00    -0.080 Cl
ATOM     12  C   LIG    1       -3.615  -0.064   4.405  0.00  0.00    +0.154 A 
BRANCH   6  13
ATOM     13  O   LIG    1       -4.523  -3.138   2.630  0.00  0.00    -0.504 OA
ATOM     14  H   LIG    1       -4.641  -3.889   3.227  0.00  0.00    +0.292 HD
ENDBRANCH   6  13
BRANCH  12  15
ATOM     15  O   LIG    1       -2.522   0.542   4.936  0.00  0.00    -0.493 OA
ATOM     16  C   LIG    1       -1.783   1.414   4.079  0.00  0.00    +0.277 C 
ENDBRANCH  12  15
ENDBRANCH   3   5
BRANCH   1  17
ATOM     17  C   LIG    1       -0.070  -2.393   2.541  0.00  0.00    +0.089 C 
BRANCH  17  23
ATOM     18  N   LIG    1        0.713  -0.491   1.192  0.00  0.00    +0.382 N 
ATOM     19  H   LIG    1        0.298  -0.094   2.022  0.00  0.00    -0.081 HD
ATOM     20  C   LIG    1        2.136  -0.100   1.116  0.00  0.00    -0.078 C 
ATOM     21  C   LIG    1        2.907  -1.290   1.740  0.00  0.00    -0.020 C 
ATOM     22  C   LIG    1        2.078  -2.500   1.235  0.00  0.00    -0.016 C 
ATOM     23  C   LIG    1        0.632  -1.962   1.251  0.00  0.00    -0.051 C 
BRANCH  18  25
ATOM     24  C   LIG    1       -0.019   1.526   0.010  0.00  0.00    -0.017 C 
ATOM     25  C   LIG    1        0.002  -0.004   0.002  0.00  0.00    -0.082 C 
ENDBRANCH  18  25
ENDBRANCH  17  23
ENDBRANCH   1  17
TORSDOF 6
