REMARK  Name = ZINC01668454
REMARK                            x       y       z     vdW  Elec       q    Type
REMARK                         _______ _______ _______ _____ _____    ______ ____
ROOT
ATOM      1  C   LIG    1        2.397   0.011  -0.021  0.00  0.00    +0.051 A 
ATOM      2  C   LIG    1        2.385   1.407  -0.014  0.00  0.00    +0.056 A 
ATOM      3  C   LIG    1        1.167   2.088   0.002  0.00  0.00    +0.051 A 
ATOM      4  C   LIG    1       -0.017   1.379   0.010  0.00  0.00    +0.125 A 
ATOM      5  C   LIG    1        0.002  -0.004   0.002  0.00  0.00    +0.065 A 
ATOM      6  C   LIG    1        1.206  -0.686  -0.013  0.00  0.00    +0.125 A 
ENDROOT
BRANCH   2   7
ATOM      7  C   LIG    1        3.617   2.136  -0.023  0.00  0.00    +0.099 C 
ATOM      8  N   LIG    1        4.595   2.715  -0.030  0.00  0.00    -0.191 NA
ENDBRANCH   2   7
BRANCH   4   9
ATOM      9  N   LIG    1       -1.309   2.100   0.020  0.00  0.00    +0.006 N 
ATOM     10  O   LIG    1       -2.355   1.476   0.021  0.00  0.00    -0.130 OA
BRANCH   9  11
ATOM     11  O   LIG    1       -1.327   3.318   0.026  0.00  0.00    -0.396 OA
ATOM     12  H   LIG    1       -0.523   3.799   0.025  0.00  0.00    +0.329 HD
ENDBRANCH   9  11
ENDBRANCH   4   9
BRANCH   6  13
ATOM     13  N   LIG    1        1.216  -2.166  -0.020  0.00  0.00    +0.006 N 
ATOM     14  O   LIG    1        0.166  -2.782  -0.013  0.00  0.00    -0.130 OA
BRANCH  13  15
ATOM     15  O   LIG    1        2.275  -2.768  -0.033  0.00  0.00    -0.396 OA
ATOM     16  H   LIG    1        3.083  -2.294  -0.039  0.00  0.00    +0.329 HD
ENDBRANCH  13  15
ENDBRANCH   6  13
TORSDOF 5
