REMARK  Name = ZINC01687010
REMARK                            x       y       z     vdW  Elec       q    Type
REMARK                         _______ _______ _______ _____ _____    ______ ____
ROOT
ATOM      1  C   LIG    1       -1.131  -0.855   0.008  0.00  0.00    +0.271 C 
ATOM      2  O   LIG    1       -2.250  -0.378   0.020  0.00  0.00    -0.280 OA
ENDROOT
BRANCH   1   5
ATOM      3  C   LIG    1        1.320   1.795  -0.001  0.00  0.00    +0.042 A 
ATOM      4  C   LIG    1       -0.017   1.379   0.010  0.00  0.00    +0.053 A 
ATOM      5  C   LIG    1        0.002  -0.004   0.002  0.00  0.00    +0.178 A 
ATOM      6  O   LIG    1        1.293  -0.398  -0.012  0.00  0.00    -0.460 OA
ATOM      7  C   LIG    1        2.087   0.679  -0.014  0.00  0.00    +0.196 A 
ENDBRANCH   1   5
BRANCH   1   8
ATOM      8  C   LIG    1       -0.952  -2.332  -0.002  0.00  0.00    +0.271 C 
ATOM      9  O   LIG    1        0.167  -2.809  -0.015  0.00  0.00    -0.280 OA
BRANCH   8  10
ATOM     10  C   LIG    1       -2.085  -3.183   0.004  0.00  0.00    +0.178 A 
ATOM     11  C   LIG    1       -2.066  -4.566  -0.004  0.00  0.00    +0.053 A 
ATOM     12  C   LIG    1       -3.402  -4.982   0.006  0.00  0.00    +0.042 A 
ATOM     13  C   LIG    1       -4.170  -3.866   0.020  0.00  0.00    +0.196 A 
ATOM     14  O   LIG    1       -3.376  -2.789   0.023  0.00  0.00    -0.460 OA
ENDBRANCH   8  10
ENDBRANCH   1   8
TORSDOF 3
