REMARK  Name = ZINC01681688
REMARK                            x       y       z     vdW  Elec       q    Type
REMARK                         _______ _______ _______ _____ _____    ______ ____
ROOT
ATOM      1  C   LIG    1        1.162  -2.035   0.292  0.00  0.00    +0.225 A 
ATOM      2  N   LIG    1        1.139  -0.715   0.347  0.00  0.00    -0.219 NA
ATOM      3  C   LIG    1       -0.008  -0.046   0.330  0.00  0.00    +0.147 A 
ATOM      4  C   LIG    1       -1.208  -0.774   0.258  0.00  0.00    +0.147 A 
ATOM      5  C   LIG    1       -1.130  -2.176   0.196  0.00  0.00    +0.168 A 
ATOM      6  N   LIG    1       -2.425  -2.624   0.126  0.00  0.00    -0.282 N 
ATOM      7  C   LIG    1       -3.238  -1.530   0.157  0.00  0.00    +0.204 A 
ATOM      8  N   LIG    1       -2.522  -0.446   0.227  0.00  0.00    -0.231 NA
ATOM      9  N   LIG    1        0.065  -2.758   0.219  0.00  0.00    -0.216 NA
ENDROOT
BRANCH   3  10
ATOM     10  N   LIG    1       -0.022   1.337   0.387  0.00  0.00    -0.341 N 
ATOM     11  H   LIG    1       -0.866   1.815   0.370  0.00  0.00    +0.144 HD
ATOM     12  H   LIG    1        0.409   1.640   1.237  0.00  0.00    +0.144 HD
ENDBRANCH   3  10
BRANCH   6  13
ATOM     13  C   LIG    1       -2.856  -4.022   0.049  0.00  0.00    +0.286 C 
BRANCH  13  14
ATOM     14  C   LIG    1       -2.941  -4.598   1.439  0.00  0.00    +0.277 C 
ATOM     15  O   LIG    1       -3.969  -5.102   1.822  0.00  0.00    -0.296 OA
ENDBRANCH  13  14
BRANCH  13  16
ATOM     16  O   LIG    1       -4.139  -4.091  -0.575  0.00  0.00    -0.337 OA
BRANCH  16  17
ATOM     17  C   LIG    1       -4.349  -5.278  -1.343  0.00  0.00    +0.209 C 
BRANCH  17  18
ATOM     18  C   LIG    1       -5.820  -5.601  -1.377  0.00  0.00    +0.257 C 
ATOM     19  O   LIG    1       -6.598  -4.947  -0.724  0.00  0.00    -0.298 OA
ENDBRANCH  17  18
BRANCH  17  20
ATOM     20  C   LIG    1       -3.841  -5.059  -2.769  0.00  0.00    +0.195 C 
BRANCH  20  21
ATOM     21  O   LIG    1       -4.631  -4.052  -3.406  0.00  0.00    -0.392 OA
ATOM     22  H   LIG    1       -4.365  -3.860  -4.316  0.00  0.00    +0.210 HD
ENDBRANCH  20  21
ENDBRANCH  17  20
ENDBRANCH  16  17
ENDBRANCH  13  16
ENDBRANCH   6  13
TORSDOF 8
