REMARK  Name = ZINC01710915
REMARK                            x       y       z     vdW  Elec       q    Type
REMARK                         _______ _______ _______ _____ _____    ______ ____
ROOT
ATOM      1  C   LIG    1       -1.197   2.378   0.021  0.00  0.00    +0.039 C 
ATOM      2  C   LIG    1       -0.021   1.732   0.012  0.00  0.00    +0.096 C 
ATOM      3 CL   LIG    1        0.002  -0.004   0.002  0.00  0.00    -0.079 Cl
ATOM      4  C   LIG    1        1.253   2.478   0.003  0.00  0.00    +0.205 C 
ATOM      5  C   LIG    1        1.237   3.957   0.011  0.00  0.00    +0.034 A 
ATOM      6  C   LIG    1        2.422   4.683   0.004  0.00  0.00    +0.012 A 
ATOM      7  C   LIG    1        2.380   6.069   0.012  0.00  0.00    +0.001 A 
ATOM      8  C   LIG    1        1.168   6.732   0.027  0.00  0.00    +0.001 A 
ATOM      9  C   LIG    1       -0.022   6.021   0.034  0.00  0.00    +0.012 A 
ATOM     10  C   LIG    1        0.004   4.632   0.026  0.00  0.00    +0.033 A 
ATOM     11  O   LIG    1        2.310   1.880  -0.009  0.00  0.00    -0.286 OA
ATOM     12  C   LIG    1       -1.252   3.850   0.034  0.00  0.00    +0.192 C 
ATOM     13  O   LIG    1       -2.325   4.420   0.047  0.00  0.00    -0.287 OA
ENDROOT
BRANCH   1  14
ATOM     14  C   LIG    1       -2.480   1.587   0.023  0.00  0.00    +0.156 C 
BRANCH  14  16
ATOM     15  C   LIG    1       -4.606   1.260   1.501  0.00  0.00    +0.087 C 
ATOM     16  C   LIG    1       -3.274   1.921   1.259  0.00  0.00    +0.145 C 
ATOM     17  O   LIG    1       -2.843   2.720   2.056  0.00  0.00    -0.297 OA
ENDBRANCH  14  16
BRANCH  14  18
ATOM     18  C   LIG    1       -3.233   0.573  -0.799  0.00  0.00    +0.145 C 
ATOM     19  O   LIG    1       -3.944   0.937  -1.704  0.00  0.00    -0.297 OA
ATOM     20  C   LIG    1       -3.099  -0.896  -0.491  0.00  0.00    +0.087 C 
ENDBRANCH  14  18
ENDBRANCH   1  14
TORSDOF 3
