REMARK  Name = ZINC01811552
REMARK                            x       y       z     vdW  Elec       q    Type
REMARK                         _______ _______ _______ _____ _____    ______ ____
ROOT
ATOM      1  C   LIG    1       -1.743   8.439  -0.249  0.00  0.00    +0.001 A 
ATOM      2  C   LIG    1       -0.851   9.498  -0.207  0.00  0.00    +0.002 A 
ATOM      3  C   LIG    1        0.505   9.272  -0.089  0.00  0.00    +0.024 A 
ATOM      4  C   LIG    1        0.993   7.972  -0.023  0.00  0.00    +0.045 A 
ATOM      5  C   LIG    1        0.088   6.902  -0.069  0.00  0.00    +0.010 A 
ATOM      6  C   LIG    1        0.895   5.667   0.024  0.00  0.00    +0.065 C 
ATOM      7  C   LIG    1        2.295   6.131   0.114  0.00  0.00    +0.253 C 
ATOM      8  O   LIG    1        3.280   5.423   0.203  0.00  0.00    -0.270 OA
ATOM      9  C   LIG    1        0.441   4.363   0.021  0.00  0.00    +0.089 C 
ATOM     10  C   LIG    1       -0.953   3.843   0.092  0.00  0.00    +0.259 C 
ATOM     11  N   LIG    1       -1.089   2.528   0.064  0.00  0.00    -0.255 N 
ATOM     12  C   LIG    1       -0.022   1.708  -0.011  0.00  0.00    +0.121 C 
ATOM     13  S   LIG    1        0.000  -0.003  -0.051  0.00  0.00    -0.027 S 
ATOM     14  O   LIG    1       -1.911   4.586   0.165  0.00  0.00    -0.269 OA
ATOM     15  S   LIG    1        1.363   2.834  -0.068  0.00  0.00    -0.060 S 
ATOM     16  N   LIG    1        2.287   7.475   0.082  0.00  0.00    -0.256 N 
ATOM     17  C   LIG    1       -1.279   7.141  -0.181  0.00  0.00    +0.010 A 
ENDROOT
BRANCH  11  18
ATOM     18  C   LIG    1       -2.433   1.948   0.122  0.00  0.00    +0.126 C 
BRANCH  18  19
ATOM     19  C   LIG    1       -2.825   1.714   1.583  0.00  0.00    +0.140 C 
BRANCH  19  20
ATOM     20  C   LIG    1       -4.207   1.117   1.643  0.00  0.00    +0.306 C 
ATOM     21  O   LIG    1       -4.817   0.901   0.622  0.00  0.00    -0.251 OA
BRANCH  20  22
ATOM     22  O   LIG    1       -4.761   0.826   2.830  0.00  0.00    -0.481 OA
ATOM     23  H   LIG    1       -4.288   0.993   3.622  0.00  0.00    +0.295 HD
ENDBRANCH  20  22
ENDBRANCH  19  20
ENDBRANCH  18  19
ENDBRANCH  11  18
BRANCH  16  24
ATOM     24  C   LIG    1        3.490   8.309   0.149  0.00  0.00    +0.234 C 
BRANCH  24  25
ATOM     25  C   LIG    1        4.005   8.561  -1.244  0.00  0.00    +0.323 C 
ATOM     26  O   LIG    1        3.427   8.092  -2.196  0.00  0.00    -0.249 OA
BRANCH  25  27
ATOM     27  O   LIG    1        5.106   9.307  -1.428  0.00  0.00    -0.480 OA
ATOM     28  H   LIG    1        5.554   9.671  -0.690  0.00  0.00    +0.295 HD
ENDBRANCH  25  27
ENDBRANCH  24  25
ENDBRANCH  16  24
TORSDOF 7
