REMARK  Name = ZINC01689026
REMARK                            x       y       z     vdW  Elec       q    Type
REMARK                         _______ _______ _______ _____ _____    ______ ____
ROOT
ATOM      1  C   LIG    1       -1.218   1.749   0.017  0.00  0.00    +0.023 A 
ATOM      2  C   LIG    1       -0.013   1.076   0.008  0.00  0.00    +0.047 A 
ATOM      3  C   LIG    1        1.179   1.784   0.000  0.00  0.00    +0.129 A 
ATOM      4  C   LIG    1        1.155   3.186   0.008  0.00  0.00    +0.079 A 
ATOM      5  C   LIG    1       -0.071   3.855   0.022  0.00  0.00    +0.036 A 
ATOM      6  C   LIG    1       -1.247   3.135   0.030  0.00  0.00    +0.042 A 
ATOM      7 CL   LIG    1       -2.771   3.967   0.048  0.00  0.00    -0.084 Cl
ENDROOT
BRANCH   4   8
ATOM      8  C   LIG    1        2.417   3.950  -0.001  0.00  0.00    +0.248 C 
ATOM      9  N   LIG    1        2.389   5.297   0.006  0.00  0.00    -0.311 N 
ATOM     10  H   LIG    1        1.539   5.765   0.017  0.00  0.00    +0.149 HD
ATOM     11  O   LIG    1        3.482   3.364  -0.014  0.00  0.00    -0.270 OA
BRANCH   9  12
ATOM     12  C   LIG    1        3.642   6.056  -0.002  0.00  0.00    +0.107 C 
BRANCH  12  13
ATOM     13  C   LIG    1        3.332   7.554   0.009  0.00  0.00    +0.046 C 
BRANCH  13  14
ATOM     14  C   LIG    1        4.641   8.346  -0.000  0.00  0.00    +0.157 C 
BRANCH  14  15
ATOM     15  O   LIG    1        4.350   9.745   0.010  0.00  0.00    -0.395 OA
ATOM     16  H   LIG    1        5.135  10.310   0.005  0.00  0.00    +0.209 HD
ENDBRANCH  14  15
ENDBRANCH  13  14
ENDBRANCH  12  13
ENDBRANCH   9  12
ENDBRANCH   4   8
BRANCH   3  17
ATOM     17  O   LIG    1        2.364   1.124  -0.015  0.00  0.00    -0.506 OA
ATOM     18  H   LIG    1        2.699   0.937  -0.902  0.00  0.00    +0.292 HD
ENDBRANCH   3  17
TORSDOF 6
