REMARK  Name = ZINC02164945
REMARK                            x       y       z     vdW  Elec       q    Type
REMARK                         _______ _______ _______ _____ _____    ______ ____
ROOT
ATOM      1  S   LIG    1        3.891   2.312  -0.024  0.00  0.00    +0.155 S 
ATOM      2  O   LIG    1        3.597   3.593  -0.566  0.00  0.00    -0.132 OA
ATOM      3  O   LIG    1        4.872   1.453  -0.588  0.00  0.00    -0.132 OA
ENDROOT
BRANCH   1   6
ATOM      4  C   LIG    1       -0.017   1.378   0.010  0.00  0.00    +0.034 A 
ATOM      5  C   LIG    1        1.171   2.086   0.002  0.00  0.00    +0.032 A 
ATOM      6  C   LIG    1        2.377   1.411  -0.013  0.00  0.00    +0.127 A 
ATOM      7  C   LIG    1        2.396   0.029  -0.020  0.00  0.00    +0.032 A 
ATOM      8  C   LIG    1        1.208  -0.679  -0.012  0.00  0.00    +0.034 A 
ATOM      9  C   LIG    1        0.002  -0.004   0.002  0.00  0.00    +0.122 A 
BRANCH   9  10
ATOM     10  N   LIG    1       -1.270  -0.761   0.011  0.00  0.00    +0.006 N 
ATOM     11  O   LIG    1       -2.325  -0.171   0.024  0.00  0.00    -0.130 OA
BRANCH  10  12
ATOM     12  O   LIG    1       -1.253  -1.970   0.004  0.00  0.00    -0.396 OA
ATOM     13  H   LIG    1       -0.435  -2.428  -0.007  0.00  0.00    +0.329 HD
ENDBRANCH  10  12
ENDBRANCH   9  10
ENDBRANCH   1   6
BRANCH   1  14
ATOM     14  N   LIG    1        4.327   2.556   1.555  0.00  0.00    +0.061 NA
ATOM     15  C   LIG    1        5.422   3.205   1.836  0.00  0.00    +0.403 C 
BRANCH  15  16
ATOM     16  N   LIG    1        5.784   3.407   3.147  0.00  0.00    -0.288 N 
ATOM     17  H   LIG    1        6.599   3.890   3.356  0.00  0.00    +0.255 HD
ATOM     18  H   LIG    1        5.225   3.066   3.863  0.00  0.00    +0.255 HD
ENDBRANCH  15  16
BRANCH  15  19
ATOM     19  N   LIG    1        6.215   3.687   0.822  0.00  0.00    -0.288 N 
ATOM     20  H   LIG    1        7.029   4.170   1.031  0.00  0.00    +0.255 HD
ATOM     21  H   LIG    1        5.959   3.545  -0.103  0.00  0.00    +0.255 HD
ENDBRANCH  15  19
ENDBRANCH   1  14
TORSDOF 6
