REMARK  Name = ZINC02019975
REMARK                            x       y       z     vdW  Elec       q    Type
REMARK                         _______ _______ _______ _____ _____    ______ ____
ROOT
ATOM      1  C   LIG    1       -2.527   3.870   0.045  0.00  0.00    -0.013 C 
ATOM      2  C   LIG    1       -2.879   4.630  -0.998  0.00  0.00    -0.018 C 
ENDROOT
BRANCH   1   6
ATOM      3  C   LIG    1        1.177   1.782   0.000  0.00  0.00    +0.000 A 
ATOM      4  C   LIG    1       -0.013   1.076   0.008  0.00  0.00    +0.001 A 
ATOM      5  C   LIG    1       -1.218   1.748   0.017  0.00  0.00    +0.008 A 
ATOM      6  C   LIG    1       -1.235   3.142   0.029  0.00  0.00    -0.018 A 
ATOM      7  C   LIG    1       -0.034   3.849   0.021  0.00  0.00    +0.008 A 
ATOM      8  C   LIG    1        1.166   3.166   0.007  0.00  0.00    +0.001 A 
ENDBRANCH   1   6
BRANCH   1   9
ATOM      9  C   LIG    1       -3.428   3.756   1.217  0.00  0.00    +0.000 A 
ATOM     10  C   LIG    1       -3.699   4.871   2.017  0.00  0.00    +0.011 A 
ATOM     11  C   LIG    1       -4.551   4.713   3.096  0.00  0.00    +0.020 A 
ATOM     12  C   LIG    1       -5.093   3.467   3.353  0.00  0.00    +0.111 A 
ATOM     13  N   LIG    1       -4.815   2.432   2.584  0.00  0.00    -0.263 NA
ATOM     14  C   LIG    1       -4.015   2.535   1.543  0.00  0.00    +0.119 A 
ENDBRANCH   1   9
BRANCH   2  15
ATOM     15  C   LIG    1       -4.192   5.370  -0.983  0.00  0.00    +0.028 C 
BRANCH  15  16
ATOM     16  C   LIG    1       -3.941   6.859  -1.228  0.00  0.00    +0.005 C 
BRANCH  16  17
ATOM     17  C   LIG    1       -5.274   7.611  -1.212  0.00  0.00    +0.011 C 
BRANCH  17  18
ATOM     18  C   LIG    1       -5.022   9.100  -1.458  0.00  0.00    +0.120 C 
BRANCH  18  19
ATOM     19  C   LIG    1       -6.335   9.840  -1.442  0.00  0.00    +0.305 C 
ATOM     20  O   LIG    1       -7.366   9.238  -1.253  0.00  0.00    -0.251 OA
BRANCH  19  21
ATOM     21  O   LIG    1       -6.359  11.168  -1.637  0.00  0.00    -0.481 OA
ATOM     22  H   LIG    1       -5.560  11.634  -1.784  0.00  0.00    +0.295 HD
ENDBRANCH  19  21
ENDBRANCH  18  19
ENDBRANCH  17  18
ENDBRANCH  16  17
ENDBRANCH  15  16
ENDBRANCH   2  15
TORSDOF 8
