REMARK  Name = ZINC02004584
REMARK                            x       y       z     vdW  Elec       q    Type
REMARK                         _______ _______ _______ _____ _____    ______ ____
ROOT
ATOM      1  C   LIG    1       -1.452  -2.041  -0.013  0.00  0.00    -0.018 A 
ATOM      2  C   LIG    1       -1.648  -2.776  -1.186  0.00  0.00    +0.054 A 
ATOM      3  C   LIG    1       -1.574  -4.171  -1.138  0.00  0.00    +0.053 A 
ATOM      4  N   LIG    1       -1.324  -4.799  -0.009  0.00  0.00    -0.250 NA
ATOM      5  C   LIG    1       -1.131  -4.145   1.129  0.00  0.00    +0.086 A 
ATOM      6  C   LIG    1       -1.184  -2.738   1.167  0.00  0.00    +0.089 A 
ENDROOT
BRANCH   5   7
ATOM      7  C   LIG    1       -0.853  -4.902   2.371  0.00  0.00    +0.001 A 
ATOM      8  C   LIG    1       -1.498  -4.558   3.559  0.00  0.00    +0.010 A 
ATOM      9  C   LIG    1       -1.235  -5.268   4.713  0.00  0.00    +0.001 A 
ATOM     10  C   LIG    1       -0.333  -6.317   4.693  0.00  0.00    +0.000 A 
ATOM     11  C   LIG    1        0.310  -6.662   3.518  0.00  0.00    +0.001 A 
ATOM     12  C   LIG    1        0.050  -5.965   2.356  0.00  0.00    +0.010 A 
ENDBRANCH   5   7
BRANCH   2  13
ATOM     13  C   LIG    1       -1.930  -2.086  -2.461  0.00  0.00    +0.222 C 
ATOM     14  O   LIG    1       -1.013  -1.754  -3.189  0.00  0.00    -0.280 OA
BRANCH  13  15
ATOM     15  S   LIG    1       -3.594  -1.745  -2.929  0.00  0.00    -0.083 S 
BRANCH  15  16
ATOM     16  C   LIG    1       -3.436  -0.908  -4.531  0.00  0.00    +0.074 C 
ATOM     17  C   LIG    1       -4.827  -0.550  -5.058  0.00  0.00    +0.016 C 
ENDBRANCH  15  16
ENDBRANCH  13  15
ENDBRANCH   2  13
BRANCH   3  18
ATOM     18  C   LIG    1       -1.784  -4.969  -2.399  0.00  0.00    +0.053 C 
ATOM     19  C   LIG    1       -0.441  -5.173  -3.103  0.00  0.00    +0.010 C 
ENDBRANCH   3  18
BRANCH   6  20
ATOM     20  C   LIG    1       -0.963  -2.013   2.433  0.00  0.00    +0.342 C 
ATOM     21  O   LIG    1       -1.913  -1.660   3.104  0.00  0.00    -0.245 OA
BRANCH  20  22
ATOM     22  O   LIG    1        0.291  -1.743   2.845  0.00  0.00    -0.461 OA
BRANCH  22  23
ATOM     23  C   LIG    1        0.430  -1.038   4.080  0.00  0.00    +0.232 C 
BRANCH  23  24
ATOM     24  C   LIG    1        1.915  -0.824   4.380  0.00  0.00    +0.038 C 
ATOM     25  C   LIG    1        2.064  -0.070   5.703  0.00  0.00    +0.007 C 
ENDBRANCH  23  24
ENDBRANCH  22  23
ENDBRANCH  20  22
ENDBRANCH   6  20
BRANCH   1  26
ATOM     26  C   LIG    1       -1.523  -0.536  -0.022  0.00  0.00    +0.036 C 
BRANCH  26  28
ATOM     27  C   LIG    1       -0.207   1.567  -0.318  0.00  0.00    +0.004 C 
ATOM     28  C   LIG    1       -0.135   0.039  -0.308  0.00  0.00    +0.001 C 
ENDBRANCH  26  28
ENDBRANCH   1  26
TORSDOF 11
