REMARK  Name = ZINC01910234
REMARK                            x       y       z     vdW  Elec       q    Type
REMARK                         _______ _______ _______ _____ _____    ______ ____
ROOT
ATOM      1  C   LIG    1        1.413  -2.176  -0.060  0.00  0.00    +0.087 C 
ATOM      2  C   LIG    1        1.054  -2.866  -1.209  0.00  0.00    +0.082 C 
ENDROOT
BRANCH   1   7
ATOM      3  C   LIG    1        0.453   1.456  -0.116  0.00  0.00    +0.001 A 
ATOM      4  C   LIG    1        1.696   2.063  -0.128  0.00  0.00    +0.001 A 
ATOM      5  C   LIG    1        2.847   1.296  -0.118  0.00  0.00    +0.013 A 
ATOM      6  C   LIG    1        2.762  -0.081  -0.096  0.00  0.00    +0.063 A 
ATOM      7  C   LIG    1        1.512  -0.700  -0.083  0.00  0.00    +0.006 A 
ATOM      8  C   LIG    1        0.354   0.080  -0.094  0.00  0.00    +0.010 A 
BRANCH   6   9
ATOM      9  C   LIG    1        4.017  -0.915  -0.086  0.00  0.00    +0.418 C 
ATOM     10  F   LIG    1        4.038  -1.741  -1.215  0.00  0.00    -0.166 F 
ATOM     11  F   LIG    1        4.043  -1.704   1.069  0.00  0.00    -0.166 F 
ATOM     12  F   LIG    1        5.136  -0.075  -0.102  0.00  0.00    -0.166 F 
ENDBRANCH   6   9
ENDBRANCH   1   7
BRANCH   2  13
ATOM     13  N   LIG    1        0.790  -2.179  -2.368  0.00  0.00    -0.352 N 
ATOM     14  H   LIG    1        0.629  -2.663  -3.193  0.00  0.00    +0.143 HD
ATOM     15  H   LIG    1        0.763  -1.209  -2.361  0.00  0.00    +0.143 HD
ENDBRANCH   2  13
BRANCH   1  16
ATOM     16  C   LIG    1        1.688  -2.893   1.148  0.00  0.00    +0.102 C 
ATOM     17  N   LIG    1        1.907  -3.462   2.107  0.00  0.00    -0.191 NA
ENDBRANCH   1  16
BRANCH   2  18
ATOM     18  S   LIG    1        0.936  -4.624  -1.182  0.00  0.00    -0.073 S 
BRANCH  18  19
ATOM     19  C   LIG    1        0.602  -5.055  -2.857  0.00  0.00    +0.014 A 
ATOM     20  C   LIG    1        1.650  -5.334  -3.725  0.00  0.00    +0.017 A 
ATOM     21  C   LIG    1        1.387  -5.672  -5.038  0.00  0.00    +0.024 A 
ATOM     22  C   LIG    1        0.076  -5.732  -5.491  0.00  0.00    +0.025 A 
ATOM     23  C   LIG    1       -0.972  -5.453  -4.623  0.00  0.00    +0.024 A 
ATOM     24  C   LIG    1       -0.710  -5.122  -3.308  0.00  0.00    +0.017 A 
BRANCH  22  25
ATOM     25  N   LIG    1       -0.190  -6.074  -6.821  0.00  0.00    -0.358 N 
ATOM     26  H   LIG    1       -1.106  -6.116  -7.137  0.00  0.00    +0.142 HD
ATOM     27  H   LIG    1        0.542  -6.269  -7.427  0.00  0.00    +0.142 HD
ENDBRANCH  22  25
ENDBRANCH  18  19
ENDBRANCH   2  18
TORSDOF 7
