REMARK  Name = ZINC02168376
REMARK                            x       y       z     vdW  Elec       q    Type
REMARK                         _______ _______ _______ _____ _____    ______ ____
ROOT
ATOM      1  C   LIG    1       -1.293  -0.775   0.010  0.00  0.00    +0.079 C 
ENDROOT
BRANCH   1   2
ATOM      2  C   LIG    1        0.002  -0.004   0.002  0.00  0.00    +0.163 C 
ATOM      3  O   LIG    1        1.060  -0.596  -0.011  0.00  0.00    -0.292 OA
BRANCH   2   7
ATOM      4  C   LIG    1       -0.056   4.237   0.025  0.00  0.00    +0.000 A 
ATOM      5  C   LIG    1        1.154   3.565   0.010  0.00  0.00    +0.001 A 
ATOM      6  C   LIG    1        1.181   2.187   0.003  0.00  0.00    +0.011 A 
ATOM      7  C   LIG    1       -0.018   1.467   0.010  0.00  0.00    +0.017 A 
ATOM      8  C   LIG    1       -1.236   2.154   0.020  0.00  0.00    +0.011 A 
ATOM      9  C   LIG    1       -1.247   3.533   0.032  0.00  0.00    +0.001 A 
ENDBRANCH   2   7
ENDBRANCH   1   2
BRANCH   1  10
ATOM     10  C   LIG    1       -0.993  -2.276  -0.001  0.00  0.00    +0.008 C 
BRANCH  10  11
ATOM     11  C   LIG    1       -2.307  -3.058   0.008  0.00  0.00    +0.000 C 
BRANCH  11  12
ATOM     12  C   LIG    1       -2.007  -4.559  -0.003  0.00  0.00    +0.001 C 
BRANCH  12  13
ATOM     13  C   LIG    1       -3.322  -5.342   0.005  0.00  0.00    +0.011 C 
BRANCH  13  14
ATOM     14  C   LIG    1       -3.022  -6.842  -0.006  0.00  0.00    +0.120 C 
BRANCH  14  15
ATOM     15  C   LIG    1       -4.316  -7.613   0.002  0.00  0.00    +0.305 C 
ATOM     16  O   LIG    1       -5.371  -7.023   0.016  0.00  0.00    -0.251 OA
BRANCH  15  17
ATOM     17  O   LIG    1       -4.298  -8.955  -0.005  0.00  0.00    -0.481 OA
ATOM     18  H   LIG    1       -3.480  -9.413  -0.015  0.00  0.00    +0.295 HD
ENDBRANCH  15  17
ENDBRANCH  14  15
ENDBRANCH  13  14
ENDBRANCH  12  13
ENDBRANCH  11  12
ENDBRANCH  10  11
ENDBRANCH   1  10
TORSDOF 9
