REMARK  Name = ZINC01713960
REMARK                            x       y       z     vdW  Elec       q    Type
REMARK                         _______ _______ _______ _____ _____    ______ ____
ROOT
ATOM      1  C   LIG    1        1.259  -4.041   2.571  0.00  0.00    +0.051 C 
ATOM      2  C   LIG    1       -0.197  -4.361   2.638  0.00  0.00    -0.026 A 
ATOM      3  C   LIG    1       -0.877  -4.528   1.435  0.00  0.00    +0.005 A 
ATOM      4  C   LIG    1       -2.227  -4.808   1.419  0.00  0.00    +0.000 A 
ATOM      5  C   LIG    1       -2.927  -4.923   2.607  0.00  0.00    +0.001 A 
ATOM      6  C   LIG    1       -2.264  -4.766   3.805  0.00  0.00    +0.015 A 
ATOM      7  C   LIG    1       -0.898  -4.493   3.823  0.00  0.00    +0.016 A 
ATOM      8  S   LIG    1       -0.082  -4.344   5.376  0.00  0.00    -0.089 S 
ATOM      9  C   LIG    1        1.607  -4.672   5.002  0.00  0.00    +0.016 A 
ATOM     10  C   LIG    1        2.451  -5.098   6.024  0.00  0.00    +0.015 A 
ATOM     11  C   LIG    1        3.776  -5.376   5.763  0.00  0.00    +0.001 A 
ATOM     12  C   LIG    1        4.263  -5.230   4.477  0.00  0.00    +0.000 A 
ATOM     13  C   LIG    1        3.430  -4.803   3.465  0.00  0.00    +0.005 A 
ATOM     14  C   LIG    1        2.092  -4.513   3.716  0.00  0.00    -0.026 A 
ENDROOT
BRANCH   1  15
ATOM     15  C   LIG    1        1.408  -2.521   2.470  0.00  0.00    +0.014 C 
BRANCH  15  22
ATOM     16  C   LIG    1       -0.018   1.465   0.010  0.00  0.00    -0.096 C 
ATOM     17  N   LIG    1        0.002  -0.004   0.002  0.00  0.00    +0.378 N 
ATOM     18  H   LIG    1       -0.945  -0.352   0.012  0.00  0.00    -0.082 HD
ATOM     19  C   LIG    1        0.681  -0.476  -1.210  0.00  0.00    -0.079 C 
ATOM     20  C   LIG    1        0.634  -2.005  -1.264  0.00  0.00    -0.018 C 
ATOM     21  C   LIG    1        1.336  -2.575  -0.029  0.00  0.00    -0.000 C 
ATOM     22  C   LIG    1        0.666  -2.018   1.230  0.00  0.00    -0.027 C 
ATOM     23  C   LIG    1        0.712  -0.489   1.192  0.00  0.00    -0.076 C 
ENDBRANCH  15  22
ENDBRANCH   1  15
TORSDOF 2
