REMARK  Name = ZINC01694402
REMARK                            x       y       z     vdW  Elec       q    Type
REMARK                         _______ _______ _______ _____ _____    ______ ____
ROOT
ATOM      1  C   LIG    1        1.699   2.779   1.256  0.00  0.00    +0.016 C 
ATOM      2  C   LIG    1        1.410   1.957  -0.001  0.00  0.00    +0.061 C 
ATOM      3  C   LIG    1        2.273   0.688  -0.016  0.00  0.00    +0.047 C 
ATOM      4  C   LIG    1        1.313  -0.478  -0.013  0.00  0.00    -0.036 A 
ATOM      5  C   LIG    1        1.554  -1.839  -0.023  0.00  0.00    +0.004 A 
ATOM      6  C   LIG    1        0.501  -2.735  -0.018  0.00  0.00    +0.000 A 
ATOM      7  C   LIG    1       -0.804  -2.274  -0.003  0.00  0.00    +0.001 A 
ATOM      8  C   LIG    1       -1.061  -0.921   0.008  0.00  0.00    +0.011 A 
ATOM      9  C   LIG    1        0.002  -0.004   0.002  0.00  0.00    +0.021 A 
ATOM     10  C   LIG    1       -0.018   1.468   0.010  0.00  0.00    +0.167 C 
ATOM     11  O   LIG    1       -1.009   2.167   0.019  0.00  0.00    -0.292 OA
ENDROOT
TORSDOF 0
