REMARK  Name = ZINC01996578
REMARK                            x       y       z     vdW  Elec       q    Type
REMARK                         _______ _______ _______ _____ _____    ______ ____
ROOT
ATOM      1  C   LIG    1       -1.050  -0.679   0.764  0.00  0.00    +0.244 C 
ATOM      2  N   LIG    1       -1.970   0.046   1.431  0.00  0.00    -0.282 N 
ATOM      3  H   LIG    1       -1.895   1.012   1.464  0.00  0.00    +0.155 HD
ATOM      4  O   LIG    1       -1.096  -1.895   0.792  0.00  0.00    -0.270 OA
ENDROOT
BRANCH   1  11
ATOM      5  C   LIG    1        3.894  -1.644  -2.567  0.00  0.00    -0.017 A 
ATOM      6  C   LIG    1        4.441  -0.397  -2.871  0.00  0.00    +0.009 A 
ATOM      7  C   LIG    1        3.808   0.743  -2.437  0.00  0.00    +0.005 A 
ATOM      8  C   LIG    1        2.628   0.691  -1.696  0.00  0.00    -0.040 A 
ATOM      9  C   LIG    1        2.075  -0.543  -1.378  0.00  0.00    -0.021 A 
ATOM     10  C   LIG    1        0.864  -0.770  -0.612  0.00  0.00    +0.017 C 
ATOM     11  C   LIG    1        0.006  -0.004   0.008  0.00  0.00    +0.015 C 
ATOM     12  C   LIG    1       -0.007   1.480   0.026  0.00  0.00    +0.041 C 
ATOM     13  C   LIG    1        1.380   2.068   0.024  0.00  0.00    +0.009 C 
ATOM     14  C   LIG    1        2.051   2.015  -1.311  0.00  0.00    +0.036 C 
ATOM     15  C   LIG    1        2.727  -1.713  -1.830  0.00  0.00    +0.016 A 
BRANCH   5  20
ATOM     16  C   LIG    1        6.484  -6.466  -4.361  0.00  0.00    +0.044 C 
ATOM     17  C   LIG    1        5.806  -5.205  -3.892  0.00  0.00    -0.050 A 
ATOM     18  C   LIG    1        6.355  -3.972  -4.199  0.00  0.00    +0.004 A 
ATOM     19  C   LIG    1        5.738  -2.814  -3.772  0.00  0.00    +0.009 A 
ATOM     20  C   LIG    1        4.561  -2.887  -3.029  0.00  0.00    -0.018 A 
ATOM     21  C   LIG    1        4.016  -4.131  -2.718  0.00  0.00    +0.009 A 
ATOM     22  C   LIG    1        4.638  -5.283  -3.155  0.00  0.00    +0.004 A 
ENDBRANCH   5  20
ENDBRANCH   1  11
BRANCH   2  23
ATOM     23  C   LIG    1       -3.033  -0.595   2.073  0.00  0.00    +0.034 A 
ATOM     24  C   LIG    1       -4.283   0.009   2.122  0.00  0.00    +0.023 A 
ATOM     25  C   LIG    1       -5.332  -0.629   2.754  0.00  0.00    +0.003 A 
ATOM     26  C   LIG    1       -5.137  -1.864   3.346  0.00  0.00    -0.063 A 
ATOM     27  C   LIG    1       -3.893  -2.465   3.304  0.00  0.00    +0.003 A 
ATOM     28  C   LIG    1       -2.841  -1.835   2.669  0.00  0.00    +0.023 A 
BRANCH  26  29
ATOM     29  C   LIG    1       -6.283  -2.554   4.039  0.00  0.00    -0.040 C 
BRANCH  29  30
ATOM     30  N   LIG    1       -6.314  -2.155   5.453  0.00  0.00    +0.381 N 
ATOM     31  C   LIG    1       -6.490  -0.699   5.546  0.00  0.00    -0.091 C 
ATOM     32  C   LIG    1       -5.050  -2.537   6.097  0.00  0.00    -0.091 C 
BRANCH  30  33
ATOM     33  C   LIG    1       -7.431  -2.828   6.128  0.00  0.00    -0.061 C 
ATOM     34  C   LIG    1       -8.750  -2.422   5.465  0.00  0.00    +0.013 C 
ATOM     35  C   LIG    1       -9.913  -3.066   6.225  0.00  0.00    +0.158 C 
ATOM     36  O   LIG    1       -9.867  -2.662   7.595  0.00  0.00    -0.380 OA
ATOM     37  C   LIG    1       -8.676  -3.056   8.279  0.00  0.00    +0.158 C 
ATOM     38  C   LIG    1       -7.463  -2.412   7.602  0.00  0.00    +0.013 C 
ENDBRANCH  30  33
ENDBRANCH  29  30
ENDBRANCH  26  29
ENDBRANCH   2  23
TORSDOF 6
