REMARK  Name = ZINC01694590
REMARK                            x       y       z     vdW  Elec       q    Type
REMARK                         _______ _______ _______ _____ _____    ______ ____
ROOT
ATOM      1  N   LIG    1        6.168  -4.170  -0.083  0.00  0.00    -0.281 N 
ATOM      2  H   LIG    1        5.825  -5.074  -0.008  0.00  0.00    +0.155 HD
ATOM      3  C   LIG    1        7.495  -3.960  -0.198  0.00  0.00    +0.249 C 
ATOM      4  O   LIG    1        7.934  -2.826  -0.195  0.00  0.00    -0.270 OA
ENDROOT
BRANCH   1  13
ATOM      5  C   LIG    1        1.792   2.854  -0.839  0.00  0.00    +0.000 A 
ATOM      6  C   LIG    1        1.090   2.024   0.017  0.00  0.00    +0.001 A 
ATOM      7  C   LIG    1        1.581   0.774   0.331  0.00  0.00    +0.009 A 
ATOM      8  C   LIG    1        2.792   0.343  -0.215  0.00  0.00    -0.014 A 
ATOM      9  C   LIG    1        3.491   1.186  -1.075  0.00  0.00    -0.035 A 
ATOM     10  C   LIG    1        4.745   0.462  -1.502  0.00  0.00    +0.071 C 
ATOM     11  C   LIG    1        4.708  -0.879  -0.810  0.00  0.00    -0.034 A 
ATOM     12  C   LIG    1        5.575  -1.948  -0.822  0.00  0.00    +0.028 A 
ATOM     13  C   LIG    1        5.288  -3.084  -0.073  0.00  0.00    +0.034 A 
ATOM     14  C   LIG    1        4.125  -3.140   0.685  0.00  0.00    +0.024 A 
ATOM     15  C   LIG    1        3.255  -2.071   0.698  0.00  0.00    +0.010 A 
ATOM     16  C   LIG    1        3.540  -0.928  -0.052  0.00  0.00    -0.014 A 
ATOM     17  C   LIG    1        2.992   2.434  -1.384  0.00  0.00    +0.004 A 
ENDBRANCH   1  13
BRANCH   3  18
ATOM     18  C   LIG    1        8.415  -5.108  -0.326  0.00  0.00    +0.045 A 
ATOM     19  C   LIG    1        7.916  -6.410  -0.335  0.00  0.00    +0.013 A 
ATOM     20  C   LIG    1        8.780  -7.479  -0.455  0.00  0.00    +0.001 A 
ATOM     21  C   LIG    1       10.145  -7.268  -0.567  0.00  0.00    +0.001 A 
ATOM     22  C   LIG    1       10.657  -5.986  -0.560  0.00  0.00    +0.009 A 
ATOM     23  C   LIG    1        9.801  -4.894  -0.445  0.00  0.00    -0.005 A 
BRANCH  23  24
ATOM     24  C   LIG    1       10.345  -3.518  -0.444  0.00  0.00    -0.003 A 
ATOM     25  C   LIG    1       10.968  -3.010  -1.581  0.00  0.00    +0.009 A 
ATOM     26  C   LIG    1       11.475  -1.725  -1.575  0.00  0.00    +0.001 A 
ATOM     27  C   LIG    1       11.369  -0.933  -0.444  0.00  0.00    +0.001 A 
ATOM     28  C   LIG    1       10.755  -1.417   0.693  0.00  0.00    +0.015 A 
ATOM     29  C   LIG    1       10.231  -2.712   0.705  0.00  0.00    +0.067 A 
BRANCH  29  30
ATOM     30  C   LIG    1        9.568  -3.232   1.913  0.00  0.00    +0.337 C 
ATOM     31  O   LIG    1        9.471  -2.529   2.909  0.00  0.00    -0.245 OA
BRANCH  30  32
ATOM     32  O   LIG    1        9.115  -4.369   1.921  0.00  0.00    -0.477 OA
ATOM     33  H   LIG    1        9.189  -4.908   1.158  0.00  0.00    +0.295 HD
ENDBRANCH  30  32
ENDBRANCH  29  30
ENDBRANCH  23  24
ENDBRANCH   3  18
TORSDOF 5
