REMARK  Name = ZINC01770352
REMARK                            x       y       z     vdW  Elec       q    Type
REMARK                         _______ _______ _______ _____ _____    ______ ____
ROOT
ATOM      1  N   LIG    1        0.029  -6.075  -7.968  0.00  0.00    -0.282 N 
ATOM      2  H   LIG    1       -0.798  -6.387  -8.368  0.00  0.00    +0.155 HD
ATOM      3  C   LIG    1        1.188  -6.185  -8.647  0.00  0.00    +0.248 C 
ATOM      4  O   LIG    1        2.236  -5.881  -8.112  0.00  0.00    -0.270 OA
ENDROOT
BRANCH   1   8
ATOM      5  C   LIG    1       -0.001  -4.394  -4.157  0.00  0.00    +0.109 A 
ATOM      6  C   LIG    1       -0.891  -5.405  -4.473  0.00  0.00    +0.030 A 
ATOM      7  C   LIG    1       -0.884  -5.964  -5.736  0.00  0.00    +0.025 A 
ATOM      8  C   LIG    1        0.018  -5.510  -6.689  0.00  0.00    +0.034 A 
ATOM      9  C   LIG    1        0.910  -4.495  -6.369  0.00  0.00    +0.025 A 
ATOM     10  C   LIG    1        0.894  -3.936  -5.106  0.00  0.00    +0.030 A 
BRANCH   5  11
ATOM     11  S   LIG    1       -0.014  -3.684  -2.545  0.00  0.00    +0.073 S 
ATOM     12  O   LIG    1       -0.574  -4.659  -1.676  0.00  0.00    -0.150 OA
ATOM     13  O   LIG    1        1.278  -3.129  -2.336  0.00  0.00    -0.150 OA
BRANCH  11  14
ATOM     14  N   LIG    1       -1.076  -2.414  -2.578  0.00  0.00    -0.199 N 
ATOM     15  H   LIG    1       -1.554  -2.194  -3.409  0.00  0.00    +0.175 HD
BRANCH  14  19
ATOM     16  C   LIG    1       -3.315   1.300  -0.248  0.00  0.00    +0.066 C 
ATOM     17  C   LIG    1       -2.363   0.132  -0.284  0.00  0.00    +0.044 A 
ATOM     18  C   LIG    1       -2.183  -0.588  -1.450  0.00  0.00    +0.068 A 
ATOM     19  C   LIG    1       -1.290  -1.661  -1.435  0.00  0.00    +0.141 A 
ATOM     20  N   LIG    1       -0.650  -1.950  -0.305  0.00  0.00    -0.216 NA
ATOM     21  C   LIG    1       -0.852  -1.236   0.784  0.00  0.00    +0.128 A 
ATOM     22  C   LIG    1       -0.107  -1.595   2.043  0.00  0.00    +0.088 C 
ATOM     23  N   LIG    1       -1.685  -0.214   0.800  0.00  0.00    -0.237 NA
ENDBRANCH  14  19
ENDBRANCH  11  14
ENDBRANCH   5  11
ENDBRANCH   1   8
BRANCH   3  24
ATOM     24  C   LIG    1        1.185  -6.677 -10.043  0.00  0.00    +0.037 A 
ATOM     25  C   LIG    1       -0.020  -7.021 -10.658  0.00  0.00    +0.014 A 
ATOM     26  C   LIG    1       -0.025  -7.479 -11.957  0.00  0.00    +0.012 A 
ATOM     27  C   LIG    1        1.179  -7.598 -12.660  0.00  0.00    +0.026 A 
ATOM     28  C   LIG    1        2.385  -7.253 -12.043  0.00  0.00    +0.012 A 
ATOM     29  C   LIG    1        2.386  -6.791 -10.745  0.00  0.00    +0.014 A 
BRANCH  27  30
ATOM     30  C   LIG    1        1.175  -8.089 -14.052  0.00  0.00    +0.233 C 
ATOM     31  O   LIG    1        0.123  -8.297 -14.620  0.00  0.00    -0.283 OA
BRANCH  30  32
ATOM     32  C   LIG    1        2.465  -8.330 -14.761  0.00  0.00    +0.233 C 
ATOM     33  O   LIG    1        3.136  -9.304 -14.487  0.00  0.00    -0.283 OA
BRANCH  32  34
ATOM     34  C   LIG    1        2.926  -7.385 -15.795  0.00  0.00    +0.026 A 
ATOM     35  C   LIG    1        2.217  -6.202 -16.032  0.00  0.00    +0.012 A 
ATOM     36  C   LIG    1        2.655  -5.324 -17.000  0.00  0.00    +0.001 A 
ATOM     37  C   LIG    1        3.791  -5.610 -17.738  0.00  0.00    +0.000 A 
ATOM     38  C   LIG    1        4.497  -6.778 -17.509  0.00  0.00    +0.001 A 
ATOM     39  C   LIG    1        4.076  -7.664 -16.540  0.00  0.00    +0.012 A 
ENDBRANCH  32  34
ENDBRANCH  30  32
ENDBRANCH  27  30
ENDBRANCH   3  24
TORSDOF 8
