REMARK  Name = ZINC01854466
REMARK                            x       y       z     vdW  Elec       q    Type
REMARK                         _______ _______ _______ _____ _____    ______ ____
ROOT
ATOM      1  C   LIG    1        3.747   2.872   0.545  0.00  0.00    +0.239 A 
ATOM      2  C   LIG    1        4.691   1.835   0.655  0.00  0.00    +0.263 A 
ATOM      3  N   LIG    1        5.698   1.793  -0.206  0.00  0.00    -0.195 NA
ATOM      4  C   LIG    1        5.819   2.703  -1.153  0.00  0.00    +0.132 A 
ATOM      5  C   LIG    1        6.981   2.612  -2.107  0.00  0.00    +0.088 C 
ATOM      6  N   LIG    1        4.957   3.690  -1.290  0.00  0.00    -0.217 NA
ATOM      7  C   LIG    1        3.916   3.808  -0.478  0.00  0.00    +0.178 A 
ATOM      8 CL   LIG    1        2.785   5.110  -0.677  0.00  0.00    -0.058 Cl
ENDROOT
BRANCH   1  14
ATOM      9  C   LIG    1       -0.013   1.086   0.008  0.00  0.00    +0.219 C 
ATOM     10  C   LIG    1       -0.620   1.607   1.323  0.00  0.00    +0.219 C 
ATOM     11  N   LIG    1        0.460   2.389   1.942  0.00  0.00    -0.235 N 
ATOM     12  H   LIG    1        0.401   2.856   2.791  0.00  0.00    +0.245 HD
ATOM     13  C   LIG    1        1.559   2.352   1.132  0.00  0.00    +0.371 C 
ATOM     14  N   LIG    1        2.688   2.958   1.413  0.00  0.00    -0.068 NA
ATOM     15  N   LIG    1        1.357   1.617  -0.002  0.00  0.00    -0.235 N 
ATOM     16  H   LIG    1        2.013   1.470  -0.702  0.00  0.00    +0.245 HD
ENDBRANCH   1  14
BRANCH   2  17
ATOM     17  O   LIG    1        4.573   0.896   1.626  0.00  0.00    -0.477 OA
ATOM     18  C   LIG    1        5.574  -0.122   1.668  0.00  0.00    +0.279 C 
ENDBRANCH   2  17
TORSDOF 2
