REMARK  Name = ZINC02027132
REMARK                            x       y       z     vdW  Elec       q    Type
REMARK                         _______ _______ _______ _____ _____    ______ ____
ROOT
ATOM      1  O   LIG    1        1.718   4.365   1.327  0.00  0.00    -0.343 OA
ENDROOT
BRANCH   1   5
ATOM      2  C   LIG    1        5.826   3.985   1.462  0.00  0.00    +0.059 A 
ATOM      3  C   LIG    1        5.247   5.169   0.998  0.00  0.00    +0.018 A 
ATOM      4  C   LIG    1        3.876   5.292   0.955  0.00  0.00    +0.049 A 
ATOM      5  C   LIG    1        3.068   4.240   1.371  0.00  0.00    +0.157 A 
ATOM      6  C   LIG    1        3.640   3.062   1.838  0.00  0.00    +0.049 A 
ATOM      7  C   LIG    1        5.010   2.929   1.880  0.00  0.00    +0.018 A 
BRANCH   2   8
ATOM      8  C   LIG    1        7.293   3.848   1.509  0.00  0.00    +0.339 C 
ATOM      9  O   LIG    1        8.001   4.766   1.145  0.00  0.00    -0.245 OA
BRANCH   8  10
ATOM     10  O   LIG    1        7.850   2.705   1.957  0.00  0.00    -0.461 OA
BRANCH  10  12
ATOM     11  C   LIG    1        9.744   1.278   2.510  0.00  0.00    +0.048 C 
ATOM     12  C   LIG    1        9.300   2.642   1.976  0.00  0.00    +0.229 C 
ENDBRANCH  10  12
ENDBRANCH   8  10
ENDBRANCH   2   8
ENDBRANCH   1   5
BRANCH   1  13
ATOM     13  S   LIG    1        1.097   3.914   0.013  0.00  0.00    +0.144 S 
ATOM     14  O   LIG    1       -0.270   4.301   0.055  0.00  0.00    -0.132 OA
ATOM     15  O   LIG    1        1.978   4.338  -1.019  0.00  0.00    -0.132 OA
BRANCH  13  16
ATOM     16  C   LIG    1        1.121   2.152   0.003  0.00  0.00    +0.178 C 
ATOM     17  C   LIG    1       -0.018   1.474   0.010  0.00  0.00    +0.030 C 
BRANCH  17  18
ATOM     18  C   LIG    1        0.002  -0.004   0.002  0.00  0.00    -0.024 A 
ATOM     19  C   LIG    1        1.218  -0.688  -0.019  0.00  0.00    +0.008 A 
ATOM     20  C   LIG    1        1.230  -2.068  -0.022  0.00  0.00    +0.001 A 
ATOM     21  C   LIG    1        0.040  -2.773  -0.014  0.00  0.00    +0.000 A 
ATOM     22  C   LIG    1       -1.169  -2.100   0.002  0.00  0.00    +0.001 A 
ATOM     23  C   LIG    1       -1.195  -0.721   0.010  0.00  0.00    +0.008 A 
ENDBRANCH  17  18
ENDBRANCH  13  16
ENDBRANCH   1  13
TORSDOF 7
