REMARK  Name = ZINC02040859
REMARK                            x       y       z     vdW  Elec       q    Type
REMARK                         _______ _______ _______ _____ _____    ______ ____
ROOT
ATOM      1  C   LIG    1        1.331   7.274  -1.649  0.00  0.00    +0.066 C 
ATOM      2  C   LIG    1        1.423   5.790  -2.019  0.00  0.00    +0.024 C 
ATOM      3  C   LIG    1        0.652   4.968  -0.984  0.00  0.00    -0.035 C 
ATOM      4  N   LIG    1       -0.758   5.391  -0.988  0.00  0.00    +0.385 N 
ATOM      5  H   LIG    1       -1.129   5.305  -1.941  0.00  0.00    -0.081 HD
ATOM      6  C   LIG    1       -0.866   6.804  -0.557  0.00  0.00    -0.072 C 
ATOM      7  C   LIG    1       -1.541   4.521  -0.087  0.00  0.00    -0.073 C 
ATOM      8  C   LIG    1       -1.682   3.158  -0.764  0.00  0.00    +0.017 C 
ATOM      9  C   LIG    1       -0.332   2.659  -1.210  0.00  0.00    -0.044 A 
ATOM     10  C   LIG    1       -0.196   1.314  -1.525  0.00  0.00    +0.053 A 
ATOM     11  C   LIG    1        1.024   0.812  -1.939  0.00  0.00    +0.162 A 
ATOM     12  C   LIG    1        2.119   1.665  -2.050  0.00  0.00    +0.162 A 
ATOM     13  C   LIG    1        1.978   3.005  -1.737  0.00  0.00    +0.051 A 
ATOM     14  C   LIG    1        0.753   3.503  -1.316  0.00  0.00    -0.054 A 
ATOM     15  C   LIG    1       -0.141   7.686  -1.576  0.00  0.00    +0.004 C 
ENDROOT
BRANCH   1  17
ATOM     16  C   LIG    1        3.483   7.613  -2.874  0.00  0.00    +0.007 C 
ATOM     17  C   LIG    1        2.044   8.110  -2.714  0.00  0.00    +0.031 C 
ENDBRANCH   1  17
BRANCH   1  18
ATOM     18  O   LIG    1        1.951   7.489  -0.380  0.00  0.00    -0.388 OA
ATOM     19  H   LIG    1        2.887   7.248  -0.353  0.00  0.00    +0.210 HD
ENDBRANCH   1  18
BRANCH  11  20
ATOM     20  O   LIG    1        1.153  -0.507  -2.243  0.00  0.00    -0.491 OA
ATOM     21  C   LIG    1       -0.014  -1.321  -2.106  0.00  0.00    +0.277 C 
ENDBRANCH  11  20
BRANCH  12  22
ATOM     22  O   LIG    1        3.322   1.183  -2.463  0.00  0.00    -0.491 OA
ATOM     23  C   LIG    1        4.399   2.117  -2.552  0.00  0.00    +0.277 C 
ENDBRANCH  12  22
BRANCH  15  24
ATOM     24  C   LIG    1       -0.788   7.515  -2.952  0.00  0.00    +0.007 C 
BRANCH  24  25
ATOM     25  C   LIG    1       -2.070   8.347  -3.020  0.00  0.00    -0.017 C 
ATOM     26  C   LIG    1       -3.106   7.768  -2.054  0.00  0.00    +0.007 C 
ATOM     27  C   LIG    1       -2.626   8.312  -4.445  0.00  0.00    +0.007 C 
ENDBRANCH  24  25
ENDBRANCH  15  24
TORSDOF 6
