REMARK  Name = ZINC02034892
REMARK                            x       y       z     vdW  Elec       q    Type
REMARK                         _______ _______ _______ _____ _____    ______ ____
ROOT
ATOM      1  C   LIG    1       -0.019   1.526   0.010  0.00  0.00    +0.050 C 
ATOM      2  C   LIG    1        0.002  -0.004   0.002  0.00  0.00    +0.157 C 
ENDROOT
BRANCH   2   3
ATOM      3  O   LIG    1       -1.339  -0.499   0.012  0.00  0.00    -0.460 OA
BRANCH   3   4
ATOM      4  C   LIG    1       -1.924  -0.704  -1.184  0.00  0.00    +0.339 C 
ATOM      5  O   LIG    1       -1.313  -0.469  -2.207  0.00  0.00    -0.245 OA
BRANCH   4   6
ATOM      6  C   LIG    1       -3.308  -1.214  -1.250  0.00  0.00    +0.059 A 
ATOM      7  C   LIG    1       -4.016  -1.479  -0.076  0.00  0.00    +0.015 A 
ATOM      8  C   LIG    1       -5.308  -1.956  -0.146  0.00  0.00    +0.001 A 
ATOM      9  C   LIG    1       -5.904  -2.171  -1.376  0.00  0.00    +0.000 A 
ATOM     10  C   LIG    1       -5.209  -1.911  -2.544  0.00  0.00    +0.001 A 
ATOM     11  C   LIG    1       -3.918  -1.428  -2.488  0.00  0.00    +0.015 A 
ENDBRANCH   4   6
ENDBRANCH   3   4
ENDBRANCH   2   3
BRANCH   2  12
ATOM     12  C   LIG    1        0.742  -0.511   1.242  0.00  0.00    -0.037 C 
BRANCH  12  13
ATOM     13  N   LIG    1        0.867  -1.973   1.174  0.00  0.00    +0.383 N 
ATOM     14  H   LIG    1        1.384  -2.228   0.346  0.00  0.00    -0.085 HD
ATOM     15  H   LIG    1       -0.052  -2.388   1.138  0.00  0.00    -0.085 HD
BRANCH  13  16
ATOM     16  C   LIG    1        1.577  -2.460   2.364  0.00  0.00    -0.072 C 
ATOM     17  C   LIG    1        3.013  -1.930   2.353  0.00  0.00    -0.016 C 
ATOM     18  C   LIG    1        3.753  -2.437   3.592  0.00  0.00    -0.002 C 
ATOM     19  C   LIG    1        3.773  -3.967   3.584  0.00  0.00    -0.000 C 
ATOM     20  C   LIG    1        2.338  -4.496   3.595  0.00  0.00    -0.002 C 
ATOM     21  C   LIG    1        1.598  -3.990   2.355  0.00  0.00    -0.016 C 
ENDBRANCH  13  16
ENDBRANCH  12  13
ENDBRANCH   2  12
TORSDOF 6
