REMARK  Name = ZINC01701550
REMARK                            x       y       z     vdW  Elec       q    Type
REMARK                         _______ _______ _______ _____ _____    ______ ____
ROOT
ATOM      1  C   LIG    1        1.173   3.563   0.009  0.00  0.00    +0.140 C 
ATOM      2  N   LIG    1        2.291   4.221   0.002  0.00  0.00    -0.180 NA
ENDROOT
BRANCH   1   4
ATOM      3  C   LIG    1       -0.017   1.376   0.010  0.00  0.00    +0.029 A 
ATOM      4  C   LIG    1        1.185   2.088   0.002  0.00  0.00    -0.003 A 
ATOM      5  C   LIG    1        2.399   1.397  -0.013  0.00  0.00    +0.029 A 
ATOM      6  C   LIG    1        2.404   0.017  -0.021  0.00  0.00    +0.043 A 
ATOM      7 CL   LIG    1        3.911  -0.844  -0.040  0.00  0.00    -0.083 Cl
ATOM      8  C   LIG    1        1.209  -0.683  -0.013  0.00  0.00    +0.040 A 
ATOM      9  C   LIG    1        0.002  -0.004   0.002  0.00  0.00    +0.043 A 
ATOM     10 CL   LIG    1       -1.490  -0.891   0.012  0.00  0.00    -0.083 Cl
ENDBRANCH   1   4
BRANCH   2  11
ATOM     11  N   LIG    1        2.279   5.622   0.009  0.00  0.00    -0.259 N 
ATOM     12  H   LIG    1        1.435   6.100   0.020  0.00  0.00    +0.191 HD
ATOM     13  C   LIG    1        3.458   6.316   0.002  0.00  0.00    +0.142 C 
BRANCH  13  14
ATOM     14  N   LIG    1        3.446   7.684   0.009  0.00  0.00    -0.338 N 
ATOM     15  H   LIG    1        4.282   8.176   0.004  0.00  0.00    +0.144 HD
ATOM     16  H   LIG    1        2.602   8.161   0.019  0.00  0.00    +0.144 HD
ENDBRANCH  13  14
BRANCH  13  17
ATOM     17  S   LIG    1        4.902   5.499  -0.016  0.00  0.00    -0.109 S 
ATOM     18  H   LIG    1        4.665   4.159  -0.020  0.00  0.00    +0.110 HD
ENDBRANCH  13  17
ENDBRANCH   2  11
TORSDOF 4
