REMARK  Name = ZINC02183614
REMARK                            x       y       z     vdW  Elec       q    Type
REMARK                         _______ _______ _______ _____ _____    ______ ____
ROOT
ATOM      1  N   LIG    1       -0.069   5.239   0.031  0.00  0.00    -0.333 N 
ATOM      2  C   LIG    1       -0.850   5.762  -1.099  0.00  0.00    +0.086 C 
ATOM      3  C   LIG    1       -0.913   7.288  -1.009  0.00  0.00    -0.060 C 
ATOM      4  N   LIG    1        0.464   7.825  -1.042  0.00  0.00    +0.382 N 
ATOM      5  H   LIG    1        0.921   7.520  -1.910  0.00  0.00    -0.082 HD
ATOM      6  C   LIG    1        1.233   7.311   0.111  0.00  0.00    -0.060 C 
ATOM      7  C   LIG    1        1.296   5.784   0.022  0.00  0.00    +0.086 C 
ENDROOT
BRANCH   1  12
ATOM      8  C   LIG    1        1.177   1.782   0.000  0.00  0.00    +0.002 A 
ATOM      9  C   LIG    1       -0.013   1.076   0.008  0.00  0.00    +0.012 A 
ATOM     10  C   LIG    1       -1.220   1.749   0.017  0.00  0.00    +0.057 A 
ATOM     11  C   LIG    1       -1.242   3.130   0.031  0.00  0.00    +0.035 A 
ATOM     12  C   LIG    1       -0.050   3.842   0.023  0.00  0.00    +0.030 A 
ATOM     13  C   LIG    1        1.161   3.163   0.008  0.00  0.00    +0.023 A 
BRANCH  10  14
ATOM     14  C   LIG    1       -2.513   0.976   0.019  0.00  0.00    +0.417 C 
ATOM     15  F   LIG    1       -3.257   1.308  -1.118  0.00  0.00    -0.166 F 
ATOM     16  F   LIG    1       -3.247   1.296   1.167  0.00  0.00    -0.166 F 
ATOM     17  F   LIG    1       -2.236  -0.396   0.011  0.00  0.00    -0.166 F 
ENDBRANCH  10  14
ENDBRANCH   1  12
BRANCH   4  18
ATOM     18  C   LIG    1        0.432   9.303  -1.010  0.00  0.00    -0.079 C 
BRANCH  18  19
ATOM     19  C   LIG    1       -0.583   9.805  -2.039  0.00  0.00    -0.017 C 
BRANCH  19  20
ATOM     20  C   LIG    1       -0.604  11.335  -2.030  0.00  0.00    +0.017 C 
BRANCH  20  21
ATOM     21  C   LIG    1       -1.619  11.837  -3.059  0.00  0.00    +0.108 C 
BRANCH  21  22
ATOM     22  N   LIG    1       -1.639  13.302  -3.050  0.00  0.00    -0.291 N 
ATOM     23  C   LIG    1       -2.567  13.993  -2.157  0.00  0.00    +0.203 C 
ATOM     24  C   LIG    1       -3.042  15.272  -2.798  0.00  0.00    +0.234 C 
ATOM     25  N   LIG    1       -2.195  15.930  -3.614  0.00  0.00    -0.289 N 
ATOM     26  C   LIG    1       -2.437  17.166  -4.358  0.00  0.00    +0.108 C 
ATOM     27  C   LIG    1       -1.413  17.221  -5.506  0.00  0.00    +0.021 C 
ATOM     28  C   LIG    1       -0.554  15.950  -5.354  0.00  0.00    +0.033 C 
ATOM     29  C   LIG    1       -0.822  15.478  -3.911  0.00  0.00    +0.162 C 
ATOM     30  O   LIG    1       -4.159  15.696  -2.587  0.00  0.00    -0.274 OA
ATOM     31  C   LIG    1       -0.806  13.970  -3.868  0.00  0.00    +0.237 C 
ATOM     32  O   LIG    1       -0.038  13.356  -4.577  0.00  0.00    -0.274 OA
ENDBRANCH  21  22
ENDBRANCH  20  21
ENDBRANCH  19  20
ENDBRANCH  18  19
ENDBRANCH   4  18
TORSDOF 7
