REMARK  Name = ZINC01706757
REMARK                            x       y       z     vdW  Elec       q    Type
REMARK                         _______ _______ _______ _____ _____    ______ ____
ROOT
ATOM      1  C   LIG    1        1.345   7.766   0.185  0.00  0.00    -0.096 C 
ATOM      2  N   LIG    1        1.518   6.296   0.184  0.00  0.00    +0.380 N 
ATOM      3  H   LIG    1        2.489   6.074   0.435  0.00  0.00    -0.082 HD
ATOM      4  C   LIG    1        0.612   5.681   1.172  0.00  0.00    -0.051 C 
ATOM      5  C   LIG    1        0.679   4.185   1.061  0.00  0.00    -0.041 C 
ATOM      6  C   LIG    1        1.168   3.564   0.010  0.00  0.00    -0.048 C 
ATOM      7  C   LIG    1        1.707   4.297  -1.187  0.00  0.00    +0.017 C 
ATOM      8  C   LIG    1        1.231   5.752  -1.159  0.00  0.00    -0.074 C 
ENDROOT
BRANCH   6   9
ATOM      9  C   LIG    1        1.184   2.087   0.002  0.00  0.00    -0.022 A 
ATOM     10  C   LIG    1       -0.017   1.374   0.010  0.00  0.00    +0.012 A 
ATOM     11  C   LIG    1        0.002  -0.004   0.002  0.00  0.00    +0.046 A 
ATOM     12  C   LIG    1        1.213  -0.684  -0.013  0.00  0.00    +0.117 A 
ATOM     13  C   LIG    1        2.409   0.021  -0.021  0.00  0.00    +0.046 A 
ATOM     14  C   LIG    1        2.399   1.400  -0.013  0.00  0.00    +0.012 A 
BRANCH  12  15
ATOM     15  O   LIG    1        1.227  -2.042  -0.020  0.00  0.00    -0.507 OA
ATOM     16  H   LIG    1        1.223  -2.431  -0.905  0.00  0.00    +0.292 HD
ENDBRANCH  12  15
ENDBRANCH   6   9
TORSDOF 2
