REMARK  Name = ZINC02022399
REMARK                            x       y       z     vdW  Elec       q    Type
REMARK                         _______ _______ _______ _____ _____    ______ ____
ROOT
ATOM      1  C   LIG    1       -0.017   1.378   0.010  0.00  0.00    +0.046 A 
ATOM      2  C   LIG    1        1.171   2.086   0.002  0.00  0.00    +0.059 A 
ATOM      3  C   LIG    1        2.378   1.412  -0.013  0.00  0.00    +0.046 A 
ATOM      4  C   LIG    1        2.398   0.030  -0.021  0.00  0.00    +0.143 A 
ATOM      5  C   LIG    1        1.210  -0.679  -0.013  0.00  0.00    +0.101 A 
ATOM      6 CL   LIG    1        1.234  -2.415  -0.023  0.00  0.00    -0.079 Cl
ATOM      7  C   LIG    1        0.002  -0.004   0.002  0.00  0.00    +0.143 A 
ENDROOT
BRANCH   2   8
ATOM      8  C   LIG    1        1.150   3.592   0.010  0.00  0.00    +0.418 C 
ATOM      9  F   LIG    1       -0.005   4.046  -0.637  0.00  0.00    -0.166 F 
ATOM     10  F   LIG    1        2.279   4.078  -0.658  0.00  0.00    -0.166 F 
ATOM     11  F   LIG    1        1.155   4.052   1.331  0.00  0.00    -0.166 F 
ENDBRANCH   2   8
BRANCH   4  12
ATOM     12  N   LIG    1        3.690  -0.692  -0.037  0.00  0.00    +0.007 N 
ATOM     13  O   LIG    1        4.728  -0.072  -0.044  0.00  0.00    -0.130 OA
BRANCH  12  14
ATOM     14  O   LIG    1        3.707  -1.901  -0.044  0.00  0.00    -0.396 OA
ATOM     15  H   LIG    1        2.903  -2.381  -0.038  0.00  0.00    +0.329 HD
ENDBRANCH  12  14
ENDBRANCH   4  12
BRANCH   7  16
ATOM     16  N   LIG    1       -1.270  -0.762   0.011  0.00  0.00    +0.007 N 
ATOM     17  O   LIG    1       -2.325  -0.172   0.024  0.00  0.00    -0.130 OA
BRANCH  16  18
ATOM     18  O   LIG    1       -1.253  -1.970   0.004  0.00  0.00    -0.396 OA
ATOM     19  H   LIG    1       -0.435  -2.428  -0.007  0.00  0.00    +0.329 HD
ENDBRANCH  16  18
ENDBRANCH   7  16
TORSDOF 5
