MODEL 1
REMARK VINA RESULT:      -5.3      0.000      0.000
REMARK  Name = ZINC00000802
REMARK                            x       y       z     vdW  Elec       q    Type
REMARK                         _______ _______ _______ _____ _____    ______ ____
ROOT
ATOM      1  C   LIG    1       19.138  33.376  56.161  0.00  0.00    -0.036 C 
ATOM      2  N   LIG    1       17.793  33.100  55.640  0.00  0.00    +0.384 N 
ATOM      3  H   LIG    1       17.646  33.632  54.774  0.00  0.00    -0.085 HD
ATOM      4  H   LIG    1       17.705  32.096  55.443  0.00  0.00    -0.085 HD
ATOM      5  C   LIG    1       16.777  33.494  56.634  0.00  0.00    -0.077 C 
ATOM      6  C   LIG    1       16.732  35.020  56.703  0.00  0.00    +0.016 C 
ATOM      7  C   LIG    1       18.123  35.569  56.885  0.00  0.00    -0.044 A 
ATOM      8  C   LIG    1       18.264  36.880  57.319  0.00  0.00    +0.053 A 
ATOM      9  C   LIG    1       19.522  37.429  57.490  0.00  0.00    +0.158 A 
ATOM     10  C   LIG    1       20.651  36.659  57.225  0.00  0.00    +0.158 A 
ATOM     11  C   LIG    1       20.506  35.355  56.790  0.00  0.00    +0.051 A 
ATOM     12  C   LIG    1       19.242  34.805  56.627  0.00  0.00    -0.054 A 
ENDROOT
BRANCH   9  13
ATOM     13  O   LIG    1       19.655  38.714  57.915  0.00  0.00    -0.503 OA
ATOM     14  H   LIG    1       19.015  39.326  57.524  0.00  0.00    +0.292 HD
ENDBRANCH   9  13
BRANCH  10  15
ATOM     15  O   LIG    1       21.893  37.190  57.389  0.00  0.00    -0.503 OA
ATOM     16  H   LIG    1       21.915  37.967  57.965  0.00  0.00    +0.292 HD
ENDBRANCH  10  15
BRANCH   1  17
ATOM     17  C   LIG    1       20.165  33.130  55.055  0.00  0.00    +0.024 C 
BRANCH  17  20
ATOM     18  C   LIG    1       23.080  31.079  56.311  0.00  0.00    +0.165 A 
ATOM     19  C   LIG    1       22.283  32.160  55.969  0.00  0.00    +0.053 A 
ATOM     20  C   LIG    1       21.029  31.951  55.425  0.00  0.00    -0.041 A 
ATOM     21  C   LIG    1       20.563  30.665  55.226  0.00  0.00    +0.053 A 
ATOM     22  C   LIG    1       21.357  29.579  55.560  0.00  0.00    +0.165 A 
ATOM     23  C   LIG    1       22.618  29.784  56.107  0.00  0.00    +0.204 A 
BRANCH  18  25
ATOM     24  C   LIG    1       25.297  31.882  55.996  0.00  0.00    +0.277 C 
ATOM     25  O   LIG    1       24.314  31.285  56.845  0.00  0.00    -0.491 OA
ENDBRANCH  18  25
BRANCH  22  26
ATOM     26  O   LIG    1       20.899  28.314  55.359  0.00  0.00    -0.491 OA
ATOM     27  C   LIG    1       19.487  28.148  55.229  0.00  0.00    +0.277 C 
ENDBRANCH  22  26
BRANCH  23  28
ATOM     28  O   LIG    1       23.398  28.721  56.441  0.00  0.00    -0.488 OA
ATOM     29  C   LIG    1       24.270  28.212  55.429  0.00  0.00    +0.277 C 
ENDBRANCH  23  28
ENDBRANCH  17  20
ENDBRANCH   1  17
TORSDOF 7
ENDMDL
MODEL 2
REMARK VINA RESULT:      -5.3      0.047      2.567
REMARK  Name = ZINC00000802
REMARK                            x       y       z     vdW  Elec       q    Type
REMARK                         _______ _______ _______ _____ _____    ______ ____
ROOT
ATOM      1  C   LIG    1       19.109  33.359  56.162  0.00  0.00    -0.036 C 
ATOM      2  N   LIG    1       17.758  33.085  55.653  0.00  0.00    +0.384 N 
ATOM      3  H   LIG    1       17.605  33.615  54.788  0.00  0.00    -0.085 HD
ATOM      4  H   LIG    1       17.666  32.081  55.460  0.00  0.00    -0.085 HD
ATOM      5  C   LIG    1       16.753  33.485  56.656  0.00  0.00    -0.077 C 
ATOM      6  C   LIG    1       16.713  35.012  56.722  0.00  0.00    +0.016 C 
ATOM      7  C   LIG    1       18.107  35.557  56.889  0.00  0.00    -0.044 A 
ATOM      8  C   LIG    1       18.256  36.869  57.317  0.00  0.00    +0.053 A 
ATOM      9  C   LIG    1       19.517  37.415  57.475  0.00  0.00    +0.158 A 
ATOM     10  C   LIG    1       20.642  36.641  57.202  0.00  0.00    +0.158 A 
ATOM     11  C   LIG    1       20.489  35.336  56.772  0.00  0.00    +0.051 A 
ATOM     12  C   LIG    1       19.221  34.790  56.622  0.00  0.00    -0.054 A 
ENDROOT
BRANCH   9  13
ATOM     13  O   LIG    1       19.657  38.701  57.896  0.00  0.00    -0.503 OA
ATOM     14  H   LIG    1       20.195  38.797  58.695  0.00  0.00    +0.292 HD
ENDBRANCH   9  13
BRANCH  10  15
ATOM     15  O   LIG    1       21.886  37.169  57.353  0.00  0.00    -0.503 OA
ATOM     16  H   LIG    1       22.440  36.696  57.988  0.00  0.00    +0.292 HD
ENDBRANCH  10  15
BRANCH   1  17
ATOM     17  C   LIG    1       20.125  33.107  55.046  0.00  0.00    +0.024 C 
BRANCH  17  20
ATOM     18  C   LIG    1       21.344  29.573  55.603  0.00  0.00    +0.165 A 
ATOM     19  C   LIG    1       20.539  30.649  55.260  0.00  0.00    +0.053 A 
ATOM     20  C   LIG    1       21.003  31.941  55.421  0.00  0.00    -0.041 A 
ATOM     21  C   LIG    1       22.272  32.166  55.920  0.00  0.00    +0.053 A 
ATOM     22  C   LIG    1       23.081  31.097  56.271  0.00  0.00    +0.165 A 
ATOM     23  C   LIG    1       22.619  29.796  56.111  0.00  0.00    +0.204 A 
BRANCH  18  25
ATOM     24  C   LIG    1       19.485  28.141  55.217  0.00  0.00    +0.277 C 
ATOM     25  O   LIG    1       20.886  28.302  55.445  0.00  0.00    -0.491 OA
ENDBRANCH  18  25
BRANCH  22  26
ATOM     26  O   LIG    1       24.328  31.320  56.767  0.00  0.00    -0.491 OA
ATOM     27  C   LIG    1       25.297  31.858  55.867  0.00  0.00    +0.277 C 
ENDBRANCH  22  26
BRANCH  23  28
ATOM     28  O   LIG    1       23.411  28.743  56.449  0.00  0.00    -0.488 OA
ATOM     29  C   LIG    1       24.243  28.200  55.421  0.00  0.00    +0.277 C 
ENDBRANCH  23  28
ENDBRANCH  17  20
ENDBRANCH   1  17
TORSDOF 7
ENDMDL
MODEL 3
REMARK VINA RESULT:      -5.3      2.294      3.279
REMARK  Name = ZINC00000802
REMARK                            x       y       z     vdW  Elec       q    Type
REMARK                         _______ _______ _______ _____ _____    ______ ____
ROOT
ATOM      1  C   LIG    1       22.233  35.396  56.773  0.00  0.00    -0.036 C 
ATOM      2  N   LIG    1       23.456  36.076  57.222  0.00  0.00    +0.384 N 
ATOM      3  H   LIG    1       23.455  36.138  58.247  0.00  0.00    -0.085 HD
ATOM      4  H   LIG    1       24.275  35.539  56.913  0.00  0.00    -0.085 HD
ATOM      5  C   LIG    1       23.516  37.433  56.649  0.00  0.00    -0.077 C 
ATOM      6  C   LIG    1       22.457  38.298  57.335  0.00  0.00    +0.016 C 
ATOM      7  C   LIG    1       21.124  37.597  57.309  0.00  0.00    -0.044 A 
ATOM      8  C   LIG    1       19.981  38.344  57.556  0.00  0.00    +0.053 A 
ATOM      9  C   LIG    1       18.736  37.741  57.553  0.00  0.00    +0.158 A 
ATOM     10  C   LIG    1       18.633  36.376  57.299  0.00  0.00    +0.158 A 
ATOM     11  C   LIG    1       19.775  35.635  57.058  0.00  0.00    +0.051 A 
ATOM     12  C   LIG    1       21.021  36.245  57.054  0.00  0.00    -0.054 A 
ENDROOT
BRANCH   9  13
ATOM     13  O   LIG    1       17.619  38.478  57.796  0.00  0.00    -0.503 OA
ATOM     14  H   LIG    1       16.845  37.950  58.040  0.00  0.00    +0.292 HD
ENDBRANCH   9  13
BRANCH  10  15
ATOM     15  O   LIG    1       17.414  35.773  57.296  0.00  0.00    -0.503 OA
ATOM     16  H   LIG    1       16.682  36.367  57.078  0.00  0.00    +0.292 HD
ENDBRANCH  10  15
BRANCH   1  17
ATOM     17  C   LIG    1       22.099  34.065  57.515  0.00  0.00    +0.024 C 
BRANCH  17  20
ATOM     18  C   LIG    1       24.015  31.588  55.399  0.00  0.00    +0.165 A 
ATOM     19  C   LIG    1       23.725  32.630  56.266  0.00  0.00    +0.053 A 
ATOM     20  C   LIG    1       22.411  32.931  56.572  0.00  0.00    -0.041 A 
ATOM     21  C   LIG    1       21.382  32.190  56.021  0.00  0.00    +0.053 A 
ATOM     22  C   LIG    1       21.664  31.150  55.149  0.00  0.00    +0.165 A 
ATOM     23  C   LIG    1       22.984  30.845  54.838  0.00  0.00    +0.204 A 
BRANCH  18  25
ATOM     24  C   LIG    1       26.213  32.394  54.973  0.00  0.00    +0.277 C 
ATOM     25  O   LIG    1       25.309  31.294  55.097  0.00  0.00    -0.491 OA
ENDBRANCH  18  25
BRANCH  22  26
ATOM     26  O   LIG    1       20.650  30.426  54.604  0.00  0.00    -0.491 OA
ATOM     27  C   LIG    1       19.946  29.538  55.472  0.00  0.00    +0.277 C 
ENDBRANCH  22  26
BRANCH  23  28
ATOM     28  O   LIG    1       23.265  29.821  53.987  0.00  0.00    -0.488 OA
ATOM     29  C   LIG    1       23.448  28.527  54.566  0.00  0.00    +0.277 C 
ENDBRANCH  23  28
ENDBRANCH  17  20
ENDBRANCH   1  17
TORSDOF 7
ENDMDL
MODEL 4
REMARK VINA RESULT:      -5.3      2.130      3.836
REMARK  Name = ZINC00000802
REMARK                            x       y       z     vdW  Elec       q    Type
REMARK                         _______ _______ _______ _____ _____    ______ ____
ROOT
ATOM      1  C   LIG    1       21.452  34.556  56.873  0.00  0.00    -0.036 C 
ATOM      2  N   LIG    1       22.485  35.288  57.618  0.00  0.00    +0.384 N 
ATOM      3  H   LIG    1       22.264  35.265  58.620  0.00  0.00    -0.085 HD
ATOM      4  H   LIG    1       23.398  34.845  57.459  0.00  0.00    -0.085 HD
ATOM      5  C   LIG    1       22.536  36.690  57.161  0.00  0.00    -0.077 C 
ATOM      6  C   LIG    1       21.282  37.409  57.658  0.00  0.00    +0.016 C 
ATOM      7  C   LIG    1       20.055  36.612  57.300  0.00  0.00    -0.044 A 
ATOM      8  C   LIG    1       18.821  37.245  57.343  0.00  0.00    +0.053 A 
ATOM      9  C   LIG    1       17.666  36.550  57.032  0.00  0.00    +0.158 A 
ATOM     10  C   LIG    1       17.746  35.207  56.674  0.00  0.00    +0.158 A 
ATOM     11  C   LIG    1       18.977  34.580  56.636  0.00  0.00    +0.051 A 
ATOM     12  C   LIG    1       20.135  35.283  56.941  0.00  0.00    -0.054 A 
ENDROOT
BRANCH   9  13
ATOM     13  O   LIG    1       16.459  37.175  57.076  0.00  0.00    -0.503 OA
ATOM     14  H   LIG    1       16.512  38.118  57.290  0.00  0.00    +0.292 HD
ENDBRANCH   9  13
BRANCH  10  15
ATOM     15  O   LIG    1       16.616  34.514  56.368  0.00  0.00    -0.503 OA
ATOM     16  H   LIG    1       16.030  34.365  57.122  0.00  0.00    +0.292 HD
ENDBRANCH  10  15
BRANCH   1  17
ATOM     17  C   LIG    1       21.291  33.161  57.480  0.00  0.00    +0.024 C 
BRANCH  17  20
ATOM     18  C   LIG    1       21.317  30.113  55.245  0.00  0.00    +0.165 A 
ATOM     19  C   LIG    1       20.907  31.068  56.163  0.00  0.00    +0.053 A 
ATOM     20  C   LIG    1       21.740  32.124  56.481  0.00  0.00    -0.041 A 
ATOM     21  C   LIG    1       22.981  32.237  55.882  0.00  0.00    +0.053 A 
ATOM     22  C   LIG    1       23.400  31.283  54.967  0.00  0.00    +0.165 A 
ATOM     23  C   LIG    1       22.566  30.219  54.645  0.00  0.00    +0.204 A 
BRANCH  18  25
ATOM     24  C   LIG    1       20.343  28.050  55.920  0.00  0.00    +0.277 C 
ATOM     25  O   LIG    1       20.497  29.073  54.933  0.00  0.00    -0.491 OA
ENDBRANCH  18  25
BRANCH  22  26
ATOM     26  O   LIG    1       24.623  31.392  54.383  0.00  0.00    -0.491 OA
ATOM     27  C   LIG    1       25.654  32.018  55.147  0.00  0.00    +0.277 C 
ENDBRANCH  22  26
BRANCH  23  28
ATOM     28  O   LIG    1       22.971  29.283  53.744  0.00  0.00    -0.488 OA
ATOM     29  C   LIG    1       23.700  28.164  54.253  0.00  0.00    +0.277 C 
ENDBRANCH  23  28
ENDBRANCH  17  20
ENDBRANCH   1  17
TORSDOF 7
ENDMDL
MODEL 5
REMARK VINA RESULT:      -5.2      2.594      3.850
REMARK  Name = ZINC00000802
REMARK                            x       y       z     vdW  Elec       q    Type
REMARK                         _______ _______ _______ _____ _____    ______ ____
ROOT
ATOM      1  C   LIG    1       21.797  34.690  57.262  0.00  0.00    -0.036 C 
ATOM      2  N   LIG    1       22.850  35.530  57.849  0.00  0.00    +0.384 N 
ATOM      3  H   LIG    1       22.630  35.714  58.835  0.00  0.00    -0.085 HD
ATOM      4  H   LIG    1       23.750  35.039  57.786  0.00  0.00    -0.085 HD
ATOM      5  C   LIG    1       22.939  36.809  57.120  0.00  0.00    -0.077 C 
ATOM      6  C   LIG    1       21.705  37.647  57.458  0.00  0.00    +0.016 C 
ATOM      7  C   LIG    1       20.456  36.826  57.262  0.00  0.00    -0.044 A 
ATOM      8  C   LIG    1       19.239  37.488  57.172  0.00  0.00    +0.053 A 
ATOM      9  C   LIG    1       18.066  36.775  57.002  0.00  0.00    +0.158 A 
ATOM     10  C   LIG    1       18.110  35.386  56.921  0.00  0.00    +0.158 A 
ATOM     11  C   LIG    1       19.324  34.731  57.015  0.00  0.00    +0.051 A 
ATOM     12  C   LIG    1       20.500  35.451  57.177  0.00  0.00    -0.054 A 
ENDROOT
BRANCH   9  13
ATOM     13  O   LIG    1       16.876  37.429  56.914  0.00  0.00    -0.503 OA
ATOM     14  H   LIG    1       16.843  38.093  56.211  0.00  0.00    +0.292 HD
ENDBRANCH   9  13
BRANCH  10  15
ATOM     15  O   LIG    1       16.961  34.676  56.755  0.00  0.00    -0.503 OA
ATOM     16  H   LIG    1       16.659  34.225  57.555  0.00  0.00    +0.292 HD
ENDBRANCH  10  15
BRANCH   1  17
ATOM     17  C   LIG    1       21.600  33.450  58.136  0.00  0.00    +0.024 C 
BRANCH  17  20
ATOM     18  C   LIG    1       23.325  30.101  57.838  0.00  0.00    +0.165 A 
ATOM     19  C   LIG    1       22.536  31.137  58.315  0.00  0.00    +0.053 A 
ATOM     20  C   LIG    1       22.458  32.326  57.615  0.00  0.00    -0.041 A 
ATOM     21  C   LIG    1       23.161  32.486  56.435  0.00  0.00    +0.053 A 
ATOM     22  C   LIG    1       23.956  31.457  55.954  0.00  0.00    +0.165 A 
ATOM     23  C   LIG    1       24.037  30.259  56.655  0.00  0.00    +0.204 A 
BRANCH  18  25
ATOM     24  C   LIG    1       22.907  28.934  59.868  0.00  0.00    +0.277 C 
ATOM     25  O   LIG    1       23.402  28.931  58.527  0.00  0.00    -0.491 OA
ENDBRANCH  18  25
BRANCH  22  26
ATOM     26  O   LIG    1       24.650  31.618  54.797  0.00  0.00    -0.491 OA
ATOM     27  C   LIG    1       25.942  32.219  54.893  0.00  0.00    +0.277 C 
ENDBRANCH  22  26
BRANCH  23  28
ATOM     28  O   LIG    1       24.812  29.245  56.184  0.00  0.00    -0.488 OA
ATOM     29  C   LIG    1       24.164  28.248  55.391  0.00  0.00    +0.277 C 
ENDBRANCH  23  28
ENDBRANCH  17  20
ENDBRANCH   1  17
TORSDOF 7
ENDMDL
