MODEL 1
REMARK VINA RESULT:      -5.2      0.000      0.000
REMARK  Name = ZINC00000681
REMARK                            x       y       z     vdW  Elec       q    Type
REMARK                         _______ _______ _______ _____ _____    ______ ____
ROOT
ATOM      1  C   LIG    1       24.626  31.877  55.652  0.00  0.00    +0.004 C 
ENDROOT
BRANCH   1   2
ATOM      2  N   LIG    1       25.872  32.485  55.095  0.00  0.00    +0.386 N 
ATOM      3  H   LIG    1       25.757  32.619  54.083  0.00  0.00    -0.081 HD
ATOM      4  C   LIG    1       27.022  31.618  55.351  0.00  0.00    -0.078 C 
ATOM      5  C   LIG    1       28.225  32.555  55.566  0.00  0.00    -0.020 C 
ATOM      6  C   LIG    1       27.650  33.985  55.444  0.00  0.00    -0.020 C 
ATOM      7  C   LIG    1       26.144  33.778  55.740  0.00  0.00    -0.078 C 
ENDBRANCH   1   2
BRANCH   1   8
ATOM      8  C   LIG    1       23.837  31.257  54.528  0.00  0.00    +0.150 C 
ATOM      9  O   LIG    1       24.275  31.276  53.397  0.00  0.00    -0.294 OA
BRANCH   8  10
ATOM     10  C   LIG    1       22.535  30.627  54.801  0.00  0.00    +0.016 A 
ATOM     11  C   LIG    1       21.469  31.396  55.280  0.00  0.00    +0.011 A 
ATOM     12  C   LIG    1       20.251  30.801  55.527  0.00  0.00    +0.004 A 
ATOM     13  C   LIG    1       20.085  29.443  55.314  0.00  0.00    -0.050 A 
ATOM     14  C   LIG    1       18.751  28.799  55.595  0.00  0.00    +0.044 C 
ATOM     15  C   LIG    1       21.136  28.674  54.847  0.00  0.00    +0.004 A 
ATOM     16  C   LIG    1       22.358  29.256  54.589  0.00  0.00    +0.011 A 
ENDBRANCH   8  10
ENDBRANCH   1   8
BRANCH   1  17
ATOM     17  C   LIG    1       24.991  30.799  56.673  0.00  0.00    -0.008 C 
BRANCH  17  19
ATOM     18  C   LIG    1       23.275  29.789  58.184  0.00  0.00    +0.004 C 
ATOM     19  C   LIG    1       24.172  31.006  57.949  0.00  0.00    -0.005 C 
ENDBRANCH  17  19
ENDBRANCH   1  17
TORSDOF 5
ENDMDL
MODEL 2
REMARK VINA RESULT:      -4.9      2.056      2.797
REMARK  Name = ZINC00000681
REMARK                            x       y       z     vdW  Elec       q    Type
REMARK                         _______ _______ _______ _____ _____    ______ ____
ROOT
ATOM      1  C   LIG    1       24.390  32.268  56.370  0.00  0.00    +0.004 C 
ENDROOT
BRANCH   1   2
ATOM      2  N   LIG    1       25.507  32.690  55.473  0.00  0.00    +0.386 N 
ATOM      3  H   LIG    1       25.142  32.833  54.524  0.00  0.00    -0.081 HD
ATOM      4  C   LIG    1       26.557  31.670  55.450  0.00  0.00    -0.078 C 
ATOM      5  C   LIG    1       27.888  32.429  55.293  0.00  0.00    -0.020 C 
ATOM      6  C   LIG    1       27.499  33.925  55.266  0.00  0.00    -0.020 C 
ATOM      7  C   LIG    1       26.116  33.935  55.964  0.00  0.00    -0.078 C 
ENDBRANCH   1   2
BRANCH   1   8
ATOM      8  C   LIG    1       23.144  32.076  55.545  0.00  0.00    +0.150 C 
ATOM      9  O   LIG    1       23.149  31.306  54.608  0.00  0.00    -0.294 OA
BRANCH   8  10
ATOM     10  C   LIG    1       21.919  32.823  55.876  0.00  0.00    +0.016 A 
ATOM     11  C   LIG    1       21.966  33.880  56.790  0.00  0.00    +0.011 A 
ATOM     12  C   LIG    1       20.817  34.579  57.090  0.00  0.00    +0.004 A 
ATOM     13  C   LIG    1       19.615  34.228  56.497  0.00  0.00    -0.050 A 
ATOM     14  C   LIG    1       18.362  34.993  56.837  0.00  0.00    +0.044 C 
ATOM     15  C   LIG    1       19.560  33.180  55.596  0.00  0.00    +0.004 A 
ATOM     16  C   LIG    1       20.702  32.476  55.282  0.00  0.00    +0.011 A 
ENDBRANCH   8  10
ENDBRANCH   1   8
BRANCH   1  17
ATOM     17  C   LIG    1       24.752  30.951  57.060  0.00  0.00    -0.008 C 
BRANCH  17  19
ATOM     18  C   LIG    1       23.016  29.445  58.041  0.00  0.00    +0.004 C 
ATOM     19  C   LIG    1       23.821  30.729  58.254  0.00  0.00    -0.005 C 
ENDBRANCH  17  19
ENDBRANCH   1  17
TORSDOF 5
ENDMDL
MODEL 3
REMARK VINA RESULT:      -4.6      2.101      2.947
REMARK  Name = ZINC00000681
REMARK                            x       y       z     vdW  Elec       q    Type
REMARK                         _______ _______ _______ _____ _____    ______ ____
ROOT
ATOM      1  C   LIG    1       25.300  30.946  56.406  0.00  0.00    +0.004 C 
ENDROOT
BRANCH   1   2
ATOM      2  N   LIG    1       25.794  32.291  55.982  0.00  0.00    +0.386 N 
ATOM      3  H   LIG    1       25.063  32.989  56.161  0.00  0.00    -0.081 HD
ATOM      4  C   LIG    1       26.133  32.286  54.558  0.00  0.00    -0.078 C 
ATOM      5  C   LIG    1       27.325  33.247  54.399  0.00  0.00    -0.020 C 
ATOM      6  C   LIG    1       27.635  33.748  55.828  0.00  0.00    -0.020 C 
ATOM      7  C   LIG    1       27.014  32.646  56.722  0.00  0.00    -0.078 C 
ENDBRANCH   1   2
BRANCH   1   8
ATOM      8  C   LIG    1       24.245  31.122  57.466  0.00  0.00    +0.150 C 
ATOM      9  O   LIG    1       24.461  30.757  58.603  0.00  0.00    -0.294 OA
BRANCH   8  10
ATOM     10  C   LIG    1       22.952  31.736  57.124  0.00  0.00    +0.016 A 
ATOM     11  C   LIG    1       22.883  33.094  56.798  0.00  0.00    +0.011 A 
ATOM     12  C   LIG    1       21.670  33.661  56.472  0.00  0.00    +0.004 A 
ATOM     13  C   LIG    1       20.519  32.891  56.479  0.00  0.00    -0.050 A 
ATOM     14  C   LIG    1       19.195  33.521  56.129  0.00  0.00    +0.044 C 
ATOM     15  C   LIG    1       20.578  31.548  56.808  0.00  0.00    +0.004 A 
ATOM     16  C   LIG    1       21.784  30.966  57.129  0.00  0.00    +0.011 A 
ENDBRANCH   8  10
ENDBRANCH   1   8
BRANCH   1  17
ATOM     17  C   LIG    1       24.698  30.216  55.204  0.00  0.00    -0.008 C 
BRANCH  17  19
ATOM     18  C   LIG    1       23.145  28.277  54.936  0.00  0.00    +0.004 C 
ATOM     19  C   LIG    1       24.456  28.749  55.567  0.00  0.00    -0.005 C 
ENDBRANCH  17  19
ENDBRANCH   1  17
TORSDOF 5
ENDMDL
MODEL 4
REMARK VINA RESULT:      -4.6      1.527      2.228
REMARK  Name = ZINC00000681
REMARK                            x       y       z     vdW  Elec       q    Type
REMARK                         _______ _______ _______ _____ _____    ______ ____
ROOT
ATOM      1  C   LIG    1       24.465  31.713  55.570  0.00  0.00    +0.004 C 
ENDROOT
BRANCH   1   2
ATOM      2  N   LIG    1       25.873  32.213  55.567  0.00  0.00    +0.386 N 
ATOM      3  H   LIG    1       26.467  31.548  56.076  0.00  0.00    -0.081 HD
ATOM      4  C   LIG    1       25.950  33.530  56.200  0.00  0.00    -0.078 C 
ATOM      5  C   LIG    1       27.059  34.298  55.459  0.00  0.00    -0.020 C 
ATOM      6  C   LIG    1       27.557  33.330  54.362  0.00  0.00    -0.020 C 
ATOM      7  C   LIG    1       26.361  32.361  54.187  0.00  0.00    -0.078 C 
ENDBRANCH   1   2
BRANCH   1   8
ATOM      8  C   LIG    1       24.470  30.231  55.840  0.00  0.00    +0.150 C 
ATOM      9  O   LIG    1       25.517  29.657  56.053  0.00  0.00    -0.294 OA
BRANCH   8  10
ATOM     10  C   LIG    1       23.205  29.479  55.846  0.00  0.00    +0.016 A 
ATOM     11  C   LIG    1       22.826  28.749  56.977  0.00  0.00    +0.011 A 
ATOM     12  C   LIG    1       21.637  28.052  56.977  0.00  0.00    +0.004 A 
ATOM     13  C   LIG    1       20.824  28.065  55.856  0.00  0.00    -0.050 A 
ATOM     14  C   LIG    1       19.529  27.294  55.863  0.00  0.00    +0.044 C 
ATOM     15  C   LIG    1       21.194  28.780  54.731  0.00  0.00    +0.004 A 
ATOM     16  C   LIG    1       22.377  29.487  54.718  0.00  0.00    +0.011 A 
ENDBRANCH   8  10
ENDBRANCH   1   8
BRANCH   1  17
ATOM     17  C   LIG    1       23.668  32.427  56.663  0.00  0.00    -0.008 C 
BRANCH  17  19
ATOM     18  C   LIG    1       21.196  32.283  57.004  0.00  0.00    +0.004 C 
ATOM     19  C   LIG    1       22.303  32.845  56.110  0.00  0.00    -0.005 C 
ENDBRANCH  17  19
ENDBRANCH   1  17
TORSDOF 5
ENDMDL
MODEL 5
REMARK VINA RESULT:      -4.5      2.011      3.411
REMARK  Name = ZINC00000681
REMARK                            x       y       z     vdW  Elec       q    Type
REMARK                         _______ _______ _______ _____ _____    ______ ____
ROOT
ATOM      1  C   LIG    1       24.319  31.286  55.321  0.00  0.00    +0.004 C 
ENDROOT
BRANCH   1   2
ATOM      2  N   LIG    1       25.348  32.365  55.225  0.00  0.00    +0.386 N 
ATOM      3  H   LIG    1       24.876  33.273  55.143  0.00  0.00    -0.081 HD
ATOM      4  C   LIG    1       26.207  32.148  54.060  0.00  0.00    -0.078 C 
ATOM      5  C   LIG    1       27.604  32.658  54.459  0.00  0.00    -0.020 C 
ATOM      6  C   LIG    1       27.459  33.132  55.923  0.00  0.00    -0.020 C 
ATOM      7  C   LIG    1       26.211  32.358  56.415  0.00  0.00    -0.078 C 
ENDBRANCH   1   2
BRANCH   1   8
ATOM      8  C   LIG    1       23.126  31.811  56.077  0.00  0.00    +0.150 C 
ATOM      9  O   LIG    1       22.404  32.642  55.569  0.00  0.00    -0.294 OA
BRANCH   8  10
ATOM     10  C   LIG    1       22.835  31.315  57.432  0.00  0.00    +0.016 A 
ATOM     11  C   LIG    1       22.054  32.076  58.307  0.00  0.00    +0.011 A 
ATOM     12  C   LIG    1       21.780  31.602  59.571  0.00  0.00    +0.004 A 
ATOM     13  C   LIG    1       22.287  30.381  59.981  0.00  0.00    -0.050 A 
ATOM     14  C   LIG    1       21.989  29.874  61.369  0.00  0.00    +0.044 C 
ATOM     15  C   LIG    1       23.067  29.624  59.123  0.00  0.00    +0.004 A 
ATOM     16  C   LIG    1       23.343  30.082  57.853  0.00  0.00    +0.011 A 
ENDBRANCH   8  10
ENDBRANCH   1   8
BRANCH   1  17
ATOM     17  C   LIG    1       23.886  30.860  53.918  0.00  0.00    -0.008 C 
BRANCH  17  19
ATOM     18  C   LIG    1       23.651  28.441  54.501  0.00  0.00    +0.004 C 
ATOM     19  C   LIG    1       22.906  29.688  54.020  0.00  0.00    -0.005 C 
ENDBRANCH  17  19
ENDBRANCH   1  17
TORSDOF 5
ENDMDL
