MODEL 1
REMARK VINA RESULT:      -5.9      0.000      0.000
REMARK  Name = ZINC00000103
REMARK                            x       y       z     vdW  Elec       q    Type
REMARK                         _______ _______ _______ _____ _____    ______ ____
ROOT
ATOM      1  C   LIG    1       21.984  36.375  57.437  0.00  0.00    -0.095 C 
ATOM      2  N   LIG    1       20.869  35.419  57.422  0.00  0.00    +0.383 N 
ATOM      3  H   LIG    1       20.757  35.018  58.342  0.00  0.00    -0.081 HD
ATOM      4  C   LIG    1       19.638  36.112  57.041  0.00  0.00    -0.074 C 
ATOM      5  C   LIG    1       18.432  35.200  57.199  0.00  0.00    +0.017 C 
ATOM      6  C   LIG    1       18.728  33.790  56.770  0.00  0.00    -0.043 A 
ATOM      7  C   LIG    1       17.675  32.886  56.718  0.00  0.00    +0.053 A 
ATOM      8  C   LIG    1       17.879  31.581  56.304  0.00  0.00    +0.167 A 
ATOM      9  C   LIG    1       19.156  31.166  55.941  0.00  0.00    +0.174 A 
ATOM     10  O   LIG    1       19.097  29.856  55.562  0.00  0.00    -0.452 OA
ATOM     11  C   LIG    1       17.855  29.358  56.093  0.00  0.00    +0.466 C 
ATOM     12  C   LIG    1       20.216  32.065  56.013  0.00  0.00    +0.033 A 
ATOM     13  C   LIG    1       21.584  31.641  55.633  0.00  0.00    +0.034 A 
ATOM     14  C   LIG    1       21.788  30.484  54.883  0.00  0.00    +0.167 A 
ATOM     15  C   LIG    1       23.081  30.118  54.524  0.00  0.00    +0.162 A 
ATOM     16  C   LIG    1       24.155  30.903  54.913  0.00  0.00    +0.050 A 
ATOM     17  C   LIG    1       23.950  32.047  55.665  0.00  0.00    +0.008 A 
ATOM     18  C   LIG    1       22.672  32.415  56.032  0.00  0.00    -0.037 A 
ATOM     19  C   LIG    1       22.444  33.645  56.868  0.00  0.00    +0.025 C 
ATOM     20  O   LIG    1       17.020  30.528  56.165  0.00  0.00    -0.453 OA
ATOM     21  C   LIG    1       19.998  33.384  56.421  0.00  0.00    -0.046 A 
ATOM     22  C   LIG    1       21.154  34.350  56.454  0.00  0.00    -0.033 C 
ENDROOT
BRANCH  14  23
ATOM     23  O   LIG    1       20.730  29.719  54.504  0.00  0.00    -0.503 OA
ATOM     24  H   LIG    1       20.312  29.238  55.231  0.00  0.00    +0.292 HD
ENDBRANCH  14  23
BRANCH  15  25
ATOM     25  O   LIG    1       23.292  28.991  53.794  0.00  0.00    -0.491 OA
ATOM     26  C   LIG    1       23.900  27.886  54.466  0.00  0.00    +0.277 C 
ENDBRANCH  15  25
TORSDOF 2
ENDMDL
MODEL 2
REMARK VINA RESULT:      -5.8      2.230      4.991
REMARK  Name = ZINC00000103
REMARK                            x       y       z     vdW  Elec       q    Type
REMARK                         _______ _______ _______ _____ _____    ______ ____
ROOT
ATOM      1  C   LIG    1       15.498  32.911  56.904  0.00  0.00    -0.095 C 
ATOM      2  N   LIG    1       16.856  32.887  56.345  0.00  0.00    +0.383 N 
ATOM      3  H   LIG    1       16.818  33.096  55.359  0.00  0.00    -0.081 HD
ATOM      4  C   LIG    1       17.679  33.890  57.023  0.00  0.00    -0.074 C 
ATOM      5  C   LIG    1       19.033  34.027  56.345  0.00  0.00    +0.017 C 
ATOM      6  C   LIG    1       19.582  32.699  55.903  0.00  0.00    -0.043 A 
ATOM      7  C   LIG    1       20.878  32.658  55.406  0.00  0.00    +0.053 A 
ATOM      8  C   LIG    1       21.450  31.462  55.009  0.00  0.00    +0.167 A 
ATOM      9  C   LIG    1       20.715  30.285  55.103  0.00  0.00    +0.174 A 
ATOM     10  O   LIG    1       21.493  29.250  54.668  0.00  0.00    -0.452 OA
ATOM     11  C   LIG    1       22.559  29.861  53.918  0.00  0.00    +0.466 C 
ATOM     12  C   LIG    1       19.409  30.326  55.581  0.00  0.00    +0.033 A 
ATOM     13  C   LIG    1       18.609  29.083  55.686  0.00  0.00    +0.034 A 
ATOM     14  C   LIG    1       19.228  27.834  55.649  0.00  0.00    +0.167 A 
ATOM     15  C   LIG    1       18.457  26.683  55.767  0.00  0.00    +0.162 A 
ATOM     16  C   LIG    1       17.083  26.784  55.920  0.00  0.00    +0.050 A 
ATOM     17  C   LIG    1       16.471  28.025  55.948  0.00  0.00    +0.008 A 
ATOM     18  C   LIG    1       17.225  29.173  55.824  0.00  0.00    -0.037 A 
ATOM     19  C   LIG    1       16.565  30.524  55.831  0.00  0.00    +0.025 C 
ATOM     20  O   LIG    1       22.684  31.169  54.504  0.00  0.00    -0.453 OA
ATOM     21  C   LIG    1       18.844  31.539  55.990  0.00  0.00    -0.046 A 
ATOM     22  C   LIG    1       17.442  31.554  56.541  0.00  0.00    -0.033 C 
ENDROOT
BRANCH  14  23
ATOM     23  O   LIG    1       20.576  27.743  55.500  0.00  0.00    -0.503 OA
ATOM     24  H   LIG    1       20.934  26.864  55.686  0.00  0.00    +0.292 HD
ENDBRANCH  14  23
BRANCH  15  25
ATOM     25  O   LIG    1       19.049  25.460  55.732  0.00  0.00    -0.491 OA
ATOM     26  C   LIG    1       18.189  24.326  55.607  0.00  0.00    +0.277 C 
ENDBRANCH  15  25
TORSDOF 2
ENDMDL
MODEL 3
REMARK VINA RESULT:      -5.8      1.707      2.843
REMARK  Name = ZINC00000103
REMARK                            x       y       z     vdW  Elec       q    Type
REMARK                         _______ _______ _______ _____ _____    ______ ____
ROOT
ATOM      1  C   LIG    1       23.571  37.489  57.907  0.00  0.00    -0.095 C 
ATOM      2  N   LIG    1       22.126  37.223  57.895  0.00  0.00    +0.383 N 
ATOM      3  H   LIG    1       21.820  36.984  58.827  0.00  0.00    -0.081 HD
ATOM      4  C   LIG    1       21.414  38.418  57.440  0.00  0.00    -0.074 C 
ATOM      5  C   LIG    1       19.911  38.244  57.596  0.00  0.00    +0.017 C 
ATOM      6  C   LIG    1       19.462  36.854  57.240  0.00  0.00    -0.043 A 
ATOM      7  C   LIG    1       18.097  36.599  57.191  0.00  0.00    +0.053 A 
ATOM      8  C   LIG    1       17.621  35.348  56.843  0.00  0.00    +0.167 A 
ATOM      9  C   LIG    1       18.519  34.328  56.544  0.00  0.00    +0.174 A 
ATOM     10  O   LIG    1       17.813  33.206  56.221  0.00  0.00    -0.452 OA
ATOM     11  C   LIG    1       16.485  33.428  56.729  0.00  0.00    +0.466 C 
ATOM     12  C   LIG    1       19.887  34.576  56.613  0.00  0.00    +0.033 A 
ATOM     13  C   LIG    1       20.860  33.503  56.301  0.00  0.00    +0.034 A 
ATOM     14  C   LIG    1       20.460  32.360  55.610  0.00  0.00    +0.167 A 
ATOM     15  C   LIG    1       21.397  31.375  55.314  0.00  0.00    +0.162 A 
ATOM     16  C   LIG    1       22.716  31.535  55.706  0.00  0.00    +0.050 A 
ATOM     17  C   LIG    1       23.108  32.668  56.398  0.00  0.00    +0.008 A 
ATOM     18  C   LIG    1       22.186  33.647  56.704  0.00  0.00    -0.037 A 
ATOM     19  C   LIG    1       22.600  34.870  57.475  0.00  0.00    +0.025 C 
ATOM     20  O   LIG    1       16.351  34.862  56.720  0.00  0.00    -0.453 OA
ATOM     21  C   LIG    1       20.359  35.848  56.955  0.00  0.00    -0.046 A 
ATOM     22  C   LIG    1       21.843  36.103  56.985  0.00  0.00    -0.033 C 
ENDROOT
BRANCH  14  23
ATOM     23  O   LIG    1       19.164  32.209  55.228  0.00  0.00    -0.503 OA
ATOM     24  H   LIG    1       18.571  31.950  55.946  0.00  0.00    +0.292 HD
ENDBRANCH  14  23
BRANCH  15  25
ATOM     25  O   LIG    1       21.018  30.255  54.642  0.00  0.00    -0.491 OA
ATOM     26  C   LIG    1       21.987  29.213  54.520  0.00  0.00    +0.277 C 
ENDBRANCH  15  25
TORSDOF 2
ENDMDL
MODEL 4
REMARK VINA RESULT:      -5.7      3.146      5.009
REMARK  Name = ZINC00000103
REMARK                            x       y       z     vdW  Elec       q    Type
REMARK                         _______ _______ _______ _____ _____    ______ ____
ROOT
ATOM      1  C   LIG    1       15.884  33.802  56.712  0.00  0.00    -0.095 C 
ATOM      2  N   LIG    1       16.840  34.914  56.797  0.00  0.00    +0.383 N 
ATOM      3  H   LIG    1       16.832  35.432  55.931  0.00  0.00    -0.081 HD
ATOM      4  C   LIG    1       16.459  35.800  57.898  0.00  0.00    -0.074 C 
ATOM      5  C   LIG    1       17.311  37.060  57.897  0.00  0.00    +0.017 C 
ATOM      6  C   LIG    1       18.746  36.774  57.553  0.00  0.00    -0.043 A 
ATOM      7  C   LIG    1       19.666  37.809  57.664  0.00  0.00    +0.053 A 
ATOM      8  C   LIG    1       21.006  37.600  57.388  0.00  0.00    +0.167 A 
ATOM      9  C   LIG    1       21.438  36.340  56.989  0.00  0.00    +0.174 A 
ATOM     10  O   LIG    1       22.788  36.385  56.791  0.00  0.00    -0.452 OA
ATOM     11  C   LIG    1       23.112  37.782  56.669  0.00  0.00    +0.466 C 
ATOM     12  C   LIG    1       20.514  35.307  56.857  0.00  0.00    +0.033 A 
ATOM     13  C   LIG    1       20.955  33.958  56.430  0.00  0.00    +0.034 A 
ATOM     14  C   LIG    1       22.300  33.597  56.489  0.00  0.00    +0.167 A 
ATOM     15  C   LIG    1       22.685  32.319  56.099  0.00  0.00    +0.162 A 
ATOM     16  C   LIG    1       21.733  31.415  55.656  0.00  0.00    +0.050 A 
ATOM     17  C   LIG    1       20.399  31.779  55.592  0.00  0.00    +0.008 A 
ATOM     18  C   LIG    1       20.007  33.046  55.969  0.00  0.00    -0.037 A 
ATOM     19  C   LIG    1       18.563  33.456  55.880  0.00  0.00    +0.025 C 
ATOM     20  O   LIG    1       22.082  38.439  57.430  0.00  0.00    -0.453 OA
ATOM     21  C   LIG    1       19.164  35.525  57.149  0.00  0.00    -0.046 A 
ATOM     22  C   LIG    1       18.189  34.382  57.037  0.00  0.00    -0.033 C 
ENDROOT
BRANCH  14  23
ATOM     23  O   LIG    1       23.230  34.489  56.925  0.00  0.00    -0.503 OA
ATOM     24  H   LIG    1       23.213  34.639  57.879  0.00  0.00    +0.292 HD
ENDBRANCH  14  23
BRANCH  15  25
ATOM     25  O   LIG    1       23.995  31.957  56.151  0.00  0.00    -0.491 OA
ATOM     26  C   LIG    1       24.607  31.558  54.923  0.00  0.00    +0.277 C 
ENDBRANCH  15  25
TORSDOF 2
ENDMDL
MODEL 5
REMARK VINA RESULT:      -5.7      4.610      8.504
REMARK  Name = ZINC00000103
REMARK                            x       y       z     vdW  Elec       q    Type
REMARK                         _______ _______ _______ _____ _____    ______ ____
ROOT
ATOM      1  C   LIG    1       16.368  32.202  56.686  0.00  0.00    -0.095 C 
ATOM      2  N   LIG    1       17.603  32.979  56.855  0.00  0.00    +0.383 N 
ATOM      3  H   LIG    1       18.001  32.784  57.762  0.00  0.00    -0.081 HD
ATOM      4  C   LIG    1       18.560  32.605  55.813  0.00  0.00    -0.074 C 
ATOM      5  C   LIG    1       19.915  33.245  56.067  0.00  0.00    +0.017 C 
ATOM      6  C   LIG    1       19.789  34.653  56.578  0.00  0.00    -0.043 A 
ATOM      7  C   LIG    1       20.947  35.409  56.708  0.00  0.00    +0.053 A 
ATOM      8  C   LIG    1       20.893  36.721  57.146  0.00  0.00    +0.167 A 
ATOM      9  C   LIG    1       19.665  37.290  57.466  0.00  0.00    +0.174 A 
ATOM     10  O   LIG    1       19.871  38.582  57.855  0.00  0.00    -0.452 OA
ATOM     11  C   LIG    1       21.273  38.669  58.170  0.00  0.00    +0.466 C 
ATOM     12  C   LIG    1       18.506  36.527  57.356  0.00  0.00    +0.033 A 
ATOM     13  C   LIG    1       17.188  37.114  57.694  0.00  0.00    +0.034 A 
ATOM     14  C   LIG    1       17.027  38.496  57.787  0.00  0.00    +0.167 A 
ATOM     15  C   LIG    1       15.776  39.023  58.089  0.00  0.00    +0.162 A 
ATOM     16  C   LIG    1       14.700  38.173  58.294  0.00  0.00    +0.050 A 
ATOM     17  C   LIG    1       14.865  36.802  58.209  0.00  0.00    +0.008 A 
ATOM     18  C   LIG    1       16.103  36.269  57.918  0.00  0.00    -0.037 A 
ATOM     19  C   LIG    1       16.294  34.779  57.845  0.00  0.00    +0.025 C 
ATOM     20  O   LIG    1       21.872  37.652  57.346  0.00  0.00    -0.453 OA
ATOM     21  C   LIG    1       18.569  35.206  56.902  0.00  0.00    -0.046 A 
ATOM     22  C   LIG    1       17.297  34.413  56.753  0.00  0.00    -0.033 C 
ENDROOT
BRANCH  14  23
ATOM     23  O   LIG    1       18.087  39.323  57.584  0.00  0.00    -0.503 OA
ATOM     24  H   LIG    1       18.286  39.487  56.653  0.00  0.00    +0.292 HD
ENDBRANCH  14  23
BRANCH  15  25
ATOM     25  O   LIG    1       15.608  40.368  58.184  0.00  0.00    -0.491 OA
ATOM     26  C   LIG    1       14.461  40.926  57.541  0.00  0.00    +0.277 C 
ENDBRANCH  15  25
TORSDOF 2
ENDMDL
