MODEL 1
REMARK VINA RESULT:      -4.4      0.000      0.000
REMARK  Name = ZINC00000870
REMARK                            x       y       z     vdW  Elec       q    Type
REMARK                         _______ _______ _______ _____ _____    ______ ____
ROOT
ATOM      1  C   LIG    1       25.846  32.835  55.884  0.00  0.00    +0.018 A 
ATOM      2  C   LIG    1       26.305  31.521  55.688  0.00  0.00    +0.013 A 
ATOM      3  C   LIG    1       25.483  30.459  55.918  0.00  0.00    +0.027 A 
ATOM      4  C   LIG    1       24.174  30.663  56.353  0.00  0.00    +0.047 A 
ATOM      5  C   LIG    1       23.701  31.975  56.548  0.00  0.00    +0.003 A 
ATOM      6  C   LIG    1       22.312  31.841  57.001  0.00  0.00    -0.024 A 
ATOM      7  C   LIG    1       22.041  30.528  57.043  0.00  0.00    +0.087 A 
ATOM      8  N   LIG    1       23.141  29.811  56.657  0.00  0.00    -0.360 N 
ATOM      9  H   LIG    1       23.185  28.843  56.608  0.00  0.00    +0.165 HD
ATOM     10  C   LIG    1       24.540  33.060  56.319  0.00  0.00    +0.021 A 
ENDROOT
BRANCH   1  12
ATOM     11  C   LIG    1       27.662  33.956  54.438  0.00  0.00    +0.091 C 
ATOM     12  C   LIG    1       26.743  33.971  55.632  0.00  0.00    +0.160 C 
ATOM     13  O   LIG    1       26.744  34.922  56.384  0.00  0.00    -0.292 OA
ENDBRANCH   1  12
BRANCH   6  14
ATOM     14  C   LIG    1       21.369  32.964  57.349  0.00  0.00    +0.018 C 
BRANCH  14  15
ATOM     15  C   LIG    1       20.850  33.610  56.063  0.00  0.00    -0.082 C 
BRANCH  15  16
ATOM     16  N   LIG    1       21.474  34.936  55.907  0.00  0.00    +0.378 N 
ATOM     17  H   LIG    1       22.280  34.859  55.277  0.00  0.00    -0.090 HD
ATOM     18  H   LIG    1       21.791  35.282  56.812  0.00  0.00    -0.090 HD
ATOM     19  H   LIG    1       20.804  35.593  55.510  0.00  0.00    -0.090 HD
ENDBRANCH  15  16
ENDBRANCH  14  15
ENDBRANCH   6  14
TORSDOF 4
ENDMDL
MODEL 2
REMARK VINA RESULT:      -4.4      2.270      2.657
REMARK  Name = ZINC00000870
REMARK                            x       y       z     vdW  Elec       q    Type
REMARK                         _______ _______ _______ _____ _____    ______ ____
ROOT
ATOM      1  C   LIG    1       25.878  32.154  55.693  0.00  0.00    +0.018 A 
ATOM      2  C   LIG    1       25.335  31.842  54.435  0.00  0.00    +0.013 A 
ATOM      3  C   LIG    1       24.238  31.041  54.332  0.00  0.00    +0.027 A 
ATOM      4  C   LIG    1       23.640  30.517  55.478  0.00  0.00    +0.047 A 
ATOM      5  C   LIG    1       24.172  30.826  56.745  0.00  0.00    +0.003 A 
ATOM      6  C   LIG    1       23.327  30.127  57.720  0.00  0.00    -0.024 A 
ATOM      7  C   LIG    1       22.382  29.479  57.022  0.00  0.00    +0.087 A 
ATOM      8  N   LIG    1       22.554  29.703  55.683  0.00  0.00    -0.360 N 
ATOM      9  H   LIG    1       21.992  29.338  54.981  0.00  0.00    +0.165 HD
ATOM     10  C   LIG    1       25.295  31.641  56.851  0.00  0.00    +0.021 A 
ENDROOT
BRANCH   1  12
ATOM     11  C   LIG    1       27.526  33.797  54.583  0.00  0.00    +0.091 C 
ATOM     12  C   LIG    1       27.061  33.021  55.788  0.00  0.00    +0.160 C 
ATOM     13  O   LIG    1       27.663  33.113  56.837  0.00  0.00    -0.292 OA
ENDBRANCH   1  12
BRANCH   6  14
ATOM     14  C   LIG    1       23.488  30.139  59.218  0.00  0.00    +0.018 C 
BRANCH  14  15
ATOM     15  C   LIG    1       22.633  31.260  59.813  0.00  0.00    -0.082 C 
BRANCH  15  16
ATOM     16  N   LIG    1       23.124  31.570  61.167  0.00  0.00    +0.378 N 
ATOM     17  H   LIG    1       22.326  31.656  61.806  0.00  0.00    -0.090 HD
ATOM     18  H   LIG    1       23.639  32.450  61.158  0.00  0.00    -0.090 HD
ATOM     19  H   LIG    1       23.735  30.825  61.497  0.00  0.00    -0.090 HD
ENDBRANCH  15  16
ENDBRANCH  14  15
ENDBRANCH   6  14
TORSDOF 4
ENDMDL
MODEL 3
REMARK VINA RESULT:      -4.3      2.871      5.021
REMARK  Name = ZINC00000870
REMARK                            x       y       z     vdW  Elec       q    Type
REMARK                         _______ _______ _______ _____ _____    ______ ____
ROOT
ATOM      1  C   LIG    1       23.352  30.104  58.456  0.00  0.00    +0.018 A 
ATOM      2  C   LIG    1       22.326  29.584  57.649  0.00  0.00    +0.013 A 
ATOM      3  C   LIG    1       22.341  29.774  56.300  0.00  0.00    +0.027 A 
ATOM      4  C   LIG    1       23.378  30.490  55.702  0.00  0.00    +0.047 A 
ATOM      5  C   LIG    1       24.415  31.012  56.499  0.00  0.00    +0.003 A 
ATOM      6  C   LIG    1       25.327  31.699  55.578  0.00  0.00    -0.024 A 
ATOM      7  C   LIG    1       24.817  31.553  54.345  0.00  0.00    +0.087 A 
ATOM      8  N   LIG    1       23.655  30.833  54.401  0.00  0.00    -0.360 N 
ATOM      9  H   LIG    1       23.107  30.600  53.636  0.00  0.00    +0.165 HD
ATOM     10  C   LIG    1       24.398  30.822  57.877  0.00  0.00    +0.021 A 
ENDROOT
BRANCH   1  12
ATOM     11  C   LIG    1       22.006  29.720  60.620  0.00  0.00    +0.091 C 
ATOM     12  C   LIG    1       23.323  29.890  59.909  0.00  0.00    +0.160 C 
ATOM     13  O   LIG    1       24.360  29.849  60.537  0.00  0.00    -0.292 OA
ENDBRANCH   1  12
BRANCH   6  14
ATOM     14  C   LIG    1       26.594  32.426  55.946  0.00  0.00    +0.018 C 
BRANCH  14  15
ATOM     15  C   LIG    1       26.985  33.374  54.810  0.00  0.00    -0.082 C 
BRANCH  15  16
ATOM     16  N   LIG    1       26.724  34.761  55.232  0.00  0.00    +0.378 N 
ATOM     17  H   LIG    1       25.924  34.774  55.874  0.00  0.00    -0.090 HD
ATOM     18  H   LIG    1       26.509  35.338  54.420  0.00  0.00    -0.090 HD
ATOM     19  H   LIG    1       27.540  35.141  55.710  0.00  0.00    -0.090 HD
ENDBRANCH  15  16
ENDBRANCH  14  15
ENDBRANCH   6  14
TORSDOF 4
ENDMDL
MODEL 4
REMARK VINA RESULT:      -4.3      4.597      7.149
REMARK  Name = ZINC00000870
REMARK                            x       y       z     vdW  Elec       q    Type
REMARK                         _______ _______ _______ _____ _____    ______ ____
ROOT
ATOM      1  C   LIG    1       22.484  37.299  57.842  0.00  0.00    +0.018 A 
ATOM      2  C   LIG    1       22.404  38.630  57.400  0.00  0.00    +0.013 A 
ATOM      3  C   LIG    1       23.376  39.156  56.603  0.00  0.00    +0.027 A 
ATOM      4  C   LIG    1       24.467  38.377  56.217  0.00  0.00    +0.047 A 
ATOM      5  C   LIG    1       24.556  37.039  56.650  0.00  0.00    +0.003 A 
ATOM      6  C   LIG    1       25.801  36.512  56.080  0.00  0.00    -0.024 A 
ATOM      7  C   LIG    1       26.356  37.506  55.370  0.00  0.00    +0.087 A 
ATOM      8  N   LIG    1       25.571  38.625  55.440  0.00  0.00    -0.360 N 
ATOM      9  H   LIG    1       25.767  39.470  55.005  0.00  0.00    +0.165 HD
ATOM     10  C   LIG    1       23.566  36.503  57.467  0.00  0.00    +0.021 A 
ENDROOT
BRANCH   1  12
ATOM     11  C   LIG    1       20.513  37.670  59.462  0.00  0.00    +0.091 C 
ATOM     12  C   LIG    1       21.427  36.745  58.700  0.00  0.00    +0.160 C 
ATOM     13  O   LIG    1       21.290  35.544  58.794  0.00  0.00    -0.292 OA
ENDBRANCH   1  12
BRANCH   6  14
ATOM     14  C   LIG    1       26.349  35.119  56.256  0.00  0.00    +0.018 C 
BRANCH  14  15
ATOM     15  C   LIG    1       27.214  34.756  55.047  0.00  0.00    -0.082 C 
BRANCH  15  16
ATOM     16  N   LIG    1       28.232  33.776  55.463  0.00  0.00    +0.378 N 
ATOM     17  H   LIG    1       28.999  33.776  54.782  0.00  0.00    -0.090 HD
ATOM     18  H   LIG    1       27.823  32.843  55.502  0.00  0.00    -0.090 HD
ATOM     19  H   LIG    1       28.601  34.022  56.380  0.00  0.00    -0.090 HD
ENDBRANCH  15  16
ENDBRANCH  14  15
ENDBRANCH   6  14
TORSDOF 4
ENDMDL
MODEL 5
REMARK VINA RESULT:      -4.3      3.556      6.037
REMARK  Name = ZINC00000870
REMARK                            x       y       z     vdW  Elec       q    Type
REMARK                         _______ _______ _______ _____ _____    ______ ____
ROOT
ATOM      1  C   LIG    1       19.418  33.325  56.094  0.00  0.00    +0.018 A 
ATOM      2  C   LIG    1       20.183  34.257  56.815  0.00  0.00    +0.013 A 
ATOM      3  C   LIG    1       21.539  34.139  56.880  0.00  0.00    +0.027 A 
ATOM      4  C   LIG    1       22.185  33.088  56.230  0.00  0.00    +0.047 A 
ATOM      5  C   LIG    1       21.430  32.150  55.500  0.00  0.00    +0.003 A 
ATOM      6  C   LIG    1       22.395  31.191  54.953  0.00  0.00    -0.024 A 
ATOM      7  C   LIG    1       23.611  31.589  55.356  0.00  0.00    +0.087 A 
ATOM      8  N   LIG    1       23.504  32.721  56.118  0.00  0.00    -0.360 N 
ATOM      9  H   LIG    1       24.249  33.193  56.521  0.00  0.00    +0.165 HD
ATOM     10  C   LIG    1       20.045  32.267  55.438  0.00  0.00    +0.021 A 
ENDROOT
BRANCH   1  12
ATOM     11  C   LIG    1       17.322  34.822  56.197  0.00  0.00    +0.091 C 
ATOM     12  C   LIG    1       17.956  33.466  56.033  0.00  0.00    +0.160 C 
ATOM     13  O   LIG    1       17.260  32.490  55.849  0.00  0.00    -0.292 OA
ENDBRANCH   1  12
BRANCH   6  14
ATOM     14  C   LIG    1       22.081  29.990  54.098  0.00  0.00    +0.018 C 
BRANCH  14  15
ATOM     15  C   LIG    1       21.623  28.835  54.990  0.00  0.00    -0.082 C 
BRANCH  15  16
ATOM     16  N   LIG    1       20.165  28.672  54.852  0.00  0.00    +0.378 N 
ATOM     17  H   LIG    1       19.722  29.597  54.835  0.00  0.00    -0.090 HD
ATOM     18  H   LIG    1       19.797  28.141  55.641  0.00  0.00    -0.090 HD
ATOM     19  H   LIG    1       19.948  28.183  53.985  0.00  0.00    -0.090 HD
ENDBRANCH  15  16
ENDBRANCH  14  15
ENDBRANCH   6  14
TORSDOF 4
ENDMDL
