MODEL 1
REMARK VINA RESULT:      -4.8      0.000      0.000
REMARK  Name = ZINC00000276
REMARK                            x       y       z     vdW  Elec       q    Type
REMARK                         _______ _______ _______ _____ _____    ______ ____
ROOT
ATOM      1  C   LIG    1       22.342  33.046  57.061  0.00  0.00    +0.204 C 
ATOM      2  N   LIG    1       21.997  34.024  56.200  0.00  0.00    -0.286 N 
ATOM      3  H   LIG    1       22.178  33.923  55.253  0.00  0.00    +0.155 HD
ATOM      4  O   LIG    1       22.061  33.146  58.237  0.00  0.00    -0.277 OA
ENDROOT
BRANCH   2   5
ATOM      5  C   LIG    1       21.378  35.187  56.674  0.00  0.00    +0.039 A 
ATOM      6  C   LIG    1       22.147  36.268  57.080  0.00  0.00    -0.029 A 
ATOM      7  C   LIG    1       23.651  36.193  57.013  0.00  0.00    +0.045 C 
ATOM      8  C   LIG    1       21.534  37.414  57.547  0.00  0.00    +0.005 A 
ATOM      9  C   LIG    1       20.154  37.484  57.609  0.00  0.00    +0.001 A 
ATOM     10  C   LIG    1       19.385  36.409  57.205  0.00  0.00    +0.005 A 
ATOM     11  C   LIG    1       19.993  35.263  56.732  0.00  0.00    -0.029 A 
ATOM     12  C   LIG    1       19.153  34.093  56.285  0.00  0.00    +0.045 C 
ENDBRANCH   2   5
BRANCH   1  13
ATOM     13  C   LIG    1       23.075  31.828  56.562  0.00  0.00    +0.019 C 
BRANCH  13  14
ATOM     14  N   LIG    1       24.029  32.224  55.517  0.00  0.00    +0.387 N 
ATOM     15  H   LIG    1       23.693  33.054  55.052  0.00  0.00    -0.081 HD
BRANCH  14  16
ATOM     16  C   LIG    1       25.337  32.501  56.127  0.00  0.00    -0.081 C 
ATOM     17  C   LIG    1       26.405  32.566  55.034  0.00  0.00    -0.017 C 
ENDBRANCH  14  16
BRANCH  14  18
ATOM     18  C   LIG    1       24.165  31.136  54.541  0.00  0.00    -0.078 C 
BRANCH  18  20
ATOM     19  C   LIG    1       22.868  29.021  54.245  0.00  0.00    +0.002 C 
ATOM     20  C   LIG    1       22.786  30.548  54.235  0.00  0.00    -0.022 C 
ENDBRANCH  18  20
ENDBRANCH  14  18
ENDBRANCH  13  14
BRANCH  13  21
ATOM     21  C   LIG    1       23.831  31.177  57.723  0.00  0.00    -0.010 C 
ATOM     22  C   LIG    1       23.247  29.790  57.997  0.00  0.00    +0.002 C 
ENDBRANCH  13  21
ENDBRANCH   1  13
TORSDOF 7
ENDMDL
MODEL 2
REMARK VINA RESULT:      -4.8      0.061      1.916
REMARK  Name = ZINC00000276
REMARK                            x       y       z     vdW  Elec       q    Type
REMARK                         _______ _______ _______ _____ _____    ______ ____
ROOT
ATOM      1  C   LIG    1       22.335  33.053  57.063  0.00  0.00    +0.204 C 
ATOM      2  N   LIG    1       21.983  34.026  56.199  0.00  0.00    -0.286 N 
ATOM      3  H   LIG    1       22.160  33.922  55.252  0.00  0.00    +0.155 HD
ATOM      4  O   LIG    1       22.058  33.156  58.239  0.00  0.00    -0.277 OA
ENDROOT
BRANCH   2   5
ATOM      5  C   LIG    1       21.361  35.188  56.671  0.00  0.00    +0.039 A 
ATOM      6  C   LIG    1       19.977  35.258  56.739  0.00  0.00    -0.029 A 
ATOM      7  C   LIG    1       19.139  34.083  56.303  0.00  0.00    +0.045 C 
ATOM      8  C   LIG    1       19.367  36.406  57.205  0.00  0.00    +0.005 A 
ATOM      9  C   LIG    1       20.134  37.485  57.604  0.00  0.00    +0.001 A 
ATOM     10  C   LIG    1       21.514  37.418  57.538  0.00  0.00    +0.005 A 
ATOM     11  C   LIG    1       22.129  36.271  57.079  0.00  0.00    -0.029 A 
ATOM     12  C   LIG    1       23.634  36.196  57.014  0.00  0.00    +0.045 C 
ENDBRANCH   2   5
BRANCH   1  13
ATOM     13  C   LIG    1       23.071  31.835  56.566  0.00  0.00    +0.019 C 
BRANCH  13  14
ATOM     14  N   LIG    1       24.024  32.233  55.520  0.00  0.00    +0.387 N 
ATOM     15  H   LIG    1       23.681  33.055  55.047  0.00  0.00    -0.081 HD
BRANCH  14  16
ATOM     16  C   LIG    1       25.327  32.526  56.130  0.00  0.00    -0.081 C 
ATOM     17  C   LIG    1       26.434  32.313  55.096  0.00  0.00    -0.017 C 
ENDBRANCH  14  16
BRANCH  14  18
ATOM     18  C   LIG    1       24.173  31.137  54.552  0.00  0.00    -0.078 C 
BRANCH  18  20
ATOM     19  C   LIG    1       22.857  29.035  54.250  0.00  0.00    +0.002 C 
ATOM     20  C   LIG    1       22.795  30.563  54.216  0.00  0.00    -0.022 C 
ENDBRANCH  18  20
ENDBRANCH  14  18
ENDBRANCH  13  14
BRANCH  13  21
ATOM     21  C   LIG    1       23.829  31.188  57.727  0.00  0.00    -0.010 C 
ATOM     22  C   LIG    1       23.255  29.796  57.996  0.00  0.00    +0.002 C 
ENDBRANCH  13  21
ENDBRANCH   1  13
TORSDOF 7
ENDMDL
MODEL 3
REMARK VINA RESULT:      -4.6      1.501      2.757
REMARK  Name = ZINC00000276
REMARK                            x       y       z     vdW  Elec       q    Type
REMARK                         _______ _______ _______ _____ _____    ______ ____
ROOT
ATOM      1  C   LIG    1       21.083  32.803  55.831  0.00  0.00    +0.204 C 
ATOM      2  N   LIG    1       20.405  33.189  56.930  0.00  0.00    -0.286 N 
ATOM      3  H   LIG    1       20.582  32.764  57.783  0.00  0.00    +0.155 HD
ATOM      4  O   LIG    1       20.905  33.376  54.776  0.00  0.00    -0.277 OA
ENDROOT
BRANCH   2   5
ATOM      5  C   LIG    1       19.445  34.203  56.839  0.00  0.00    +0.039 A 
ATOM      6  C   LIG    1       18.140  33.896  56.479  0.00  0.00    -0.029 A 
ATOM      7  C   LIG    1       17.755  32.468  56.183  0.00  0.00    +0.045 C 
ATOM      8  C   LIG    1       17.194  34.898  56.390  0.00  0.00    +0.005 A 
ATOM      9  C   LIG    1       17.547  36.208  56.661  0.00  0.00    +0.001 A 
ATOM     10  C   LIG    1       18.846  36.518  57.020  0.00  0.00    +0.005 A 
ATOM     11  C   LIG    1       19.793  35.519  57.116  0.00  0.00    -0.029 A 
ATOM     12  C   LIG    1       21.208  35.856  57.515  0.00  0.00    +0.045 C 
ENDBRANCH   2   5
BRANCH   1  13
ATOM     13  C   LIG    1       22.062  31.661  55.913  0.00  0.00    +0.019 C 
BRANCH  13  14
ATOM     14  N   LIG    1       23.344  32.071  55.322  0.00  0.00    +0.387 N 
ATOM     15  H   LIG    1       23.197  32.867  54.720  0.00  0.00    -0.081 HD
BRANCH  14  16
ATOM     16  C   LIG    1       24.283  32.432  56.391  0.00  0.00    -0.081 C 
ATOM     17  C   LIG    1       25.715  32.163  55.925  0.00  0.00    -0.017 C 
ENDBRANCH  14  16
BRANCH  14  18
ATOM     18  C   LIG    1       23.899  30.960  54.538  0.00  0.00    -0.078 C 
BRANCH  18  20
ATOM     19  C   LIG    1       23.125  28.591  54.358  0.00  0.00    +0.002 C 
ATOM     20  C   LIG    1       22.763  30.049  54.068  0.00  0.00    -0.022 C 
ENDBRANCH  18  20
ENDBRANCH  14  18
ENDBRANCH  13  14
BRANCH  13  21
ATOM     21  C   LIG    1       22.276  31.276  57.378  0.00  0.00    -0.010 C 
ATOM     22  C   LIG    1       21.692  29.884  57.629  0.00  0.00    +0.002 C 
ENDBRANCH  13  21
ENDBRANCH   1  13
TORSDOF 7
ENDMDL
MODEL 4
REMARK VINA RESULT:      -4.4      1.717      3.496
REMARK  Name = ZINC00000276
REMARK                            x       y       z     vdW  Elec       q    Type
REMARK                         _______ _______ _______ _____ _____    ______ ____
ROOT
ATOM      1  C   LIG    1       20.971  32.714  55.774  0.00  0.00    +0.204 C 
ATOM      2  N   LIG    1       20.314  33.111  56.881  0.00  0.00    -0.286 N 
ATOM      3  H   LIG    1       20.475  32.667  57.727  0.00  0.00    +0.155 HD
ATOM      4  O   LIG    1       20.814  33.310  54.729  0.00  0.00    -0.277 OA
ENDROOT
BRANCH   2   5
ATOM      5  C   LIG    1       19.397  34.167  56.809  0.00  0.00    +0.039 A 
ATOM      6  C   LIG    1       18.076  33.919  56.460  0.00  0.00    -0.029 A 
ATOM      7  C   LIG    1       17.628  32.512  56.155  0.00  0.00    +0.045 C 
ATOM      8  C   LIG    1       17.174  34.962  56.390  0.00  0.00    +0.005 A 
ATOM      9  C   LIG    1       17.585  36.253  56.668  0.00  0.00    +0.001 A 
ATOM     10  C   LIG    1       18.900  36.503  57.016  0.00  0.00    +0.005 A 
ATOM     11  C   LIG    1       19.805  35.463  57.094  0.00  0.00    -0.029 A 
ATOM     12  C   LIG    1       21.236  35.736  57.481  0.00  0.00    +0.045 C 
ENDBRANCH   2   5
BRANCH   1  13
ATOM     13  C   LIG    1       21.902  31.530  55.834  0.00  0.00    +0.019 C 
BRANCH  13  14
ATOM     14  N   LIG    1       22.902  31.747  56.889  0.00  0.00    +0.387 N 
ATOM     15  H   LIG    1       22.485  32.265  57.647  0.00  0.00    -0.081 HD
BRANCH  14  16
ATOM     16  C   LIG    1       23.379  30.450  57.386  0.00  0.00    -0.081 C 
ATOM     17  C   LIG    1       23.604  30.534  58.897  0.00  0.00    -0.017 C 
ENDBRANCH  14  16
BRANCH  14  18
ATOM     18  C   LIG    1       24.033  32.507  56.341  0.00  0.00    -0.078 C 
BRANCH  18  20
ATOM     19  C   LIG    1       26.121  32.218  54.999  0.00  0.00    +0.002 C 
ATOM     20  C   LIG    1       24.702  31.696  55.228  0.00  0.00    -0.022 C 
ENDBRANCH  18  20
ENDBRANCH  14  18
ENDBRANCH  13  14
BRANCH  13  21
ATOM     21  C   LIG    1       21.098  30.266  56.145  0.00  0.00    -0.010 C 
ATOM     22  C   LIG    1       20.934  29.440  54.868  0.00  0.00    +0.002 C 
ENDBRANCH  13  21
ENDBRANCH   1  13
TORSDOF 7
ENDMDL
MODEL 5
REMARK VINA RESULT:      -4.4      0.883      3.094
REMARK  Name = ZINC00000276
REMARK                            x       y       z     vdW  Elec       q    Type
REMARK                         _______ _______ _______ _____ _____    ______ ____
ROOT
ATOM      1  C   LIG    1       22.216  33.167  56.897  0.00  0.00    +0.204 C 
ATOM      2  N   LIG    1       21.856  34.188  56.096  0.00  0.00    -0.286 N 
ATOM      3  H   LIG    1       22.014  34.135  55.141  0.00  0.00    +0.155 HD
ATOM      4  O   LIG    1       21.964  33.208  58.083  0.00  0.00    -0.277 OA
ENDROOT
BRANCH   2   5
ATOM      5  C   LIG    1       21.255  35.328  56.643  0.00  0.00    +0.039 A 
ATOM      6  C   LIG    1       19.874  35.393  56.771  0.00  0.00    -0.029 A 
ATOM      7  C   LIG    1       19.019  34.236  56.321  0.00  0.00    +0.045 C 
ATOM      8  C   LIG    1       19.284  36.519  57.311  0.00  0.00    +0.005 A 
ATOM      9  C   LIG    1       20.068  37.581  57.724  0.00  0.00    +0.001 A 
ATOM     10  C   LIG    1       21.444  37.520  57.598  0.00  0.00    +0.005 A 
ATOM     11  C   LIG    1       22.039  36.394  57.064  0.00  0.00    -0.029 A 
ATOM     12  C   LIG    1       23.540  36.325  56.933  0.00  0.00    +0.045 C 
ENDBRANCH   2   5
BRANCH   1  13
ATOM     13  C   LIG    1       22.931  31.973  56.320  0.00  0.00    +0.019 C 
BRANCH  13  14
ATOM     14  N   LIG    1       23.890  31.453  57.304  0.00  0.00    +0.387 N 
ATOM     15  H   LIG    1       23.991  32.115  58.058  0.00  0.00    -0.081 HD
BRANCH  14  16
ATOM     16  C   LIG    1       23.400  30.175  57.838  0.00  0.00    -0.081 C 
ATOM     17  C   LIG    1       23.410  30.224  59.368  0.00  0.00    -0.017 C 
ENDBRANCH  14  16
BRANCH  14  18
ATOM     18  C   LIG    1       25.192  31.245  56.657  0.00  0.00    -0.078 C 
BRANCH  18  20
ATOM     19  C   LIG    1       26.493  32.995  55.438  0.00  0.00    +0.002 C 
ATOM     20  C   LIG    1       25.266  32.083  55.379  0.00  0.00    -0.022 C 
ENDBRANCH  18  20
ENDBRANCH  14  18
ENDBRANCH  13  14
BRANCH  13  21
ATOM     21  C   LIG    1       21.912  30.884  55.976  0.00  0.00    -0.010 C 
ATOM     22  C   LIG    1       21.709  30.837  54.461  0.00  0.00    +0.002 C 
ENDBRANCH  13  21
ENDBRANCH   1  13
TORSDOF 7
ENDMDL
