MODEL 1
REMARK VINA RESULT:      -5.3      0.000      0.000
REMARK  Name = ZINC00000850
REMARK                            x       y       z     vdW  Elec       q    Type
REMARK                         _______ _______ _______ _____ _____    ______ ____
ROOT
ATOM      1  C   LIG    1       24.321  27.898  55.476  0.00  0.00    +0.036 C 
ATOM      2  C   LIG    1       23.582  29.135  55.989  0.00  0.00    +0.140 C 
ENDROOT
BRANCH   2   3
ATOM      3  C   LIG    1       24.486  30.337  55.895  0.00  0.00    +0.013 A 
ATOM      4  C   LIG    1       25.781  30.376  55.547  0.00  0.00    +0.021 A 
ATOM      5  C   LIG    1       26.472  31.656  55.520  0.00  0.00    -0.010 A 
ATOM      6  C   LIG    1       27.821  31.927  55.187  0.00  0.00    +0.009 A 
ATOM      7  C   LIG    1       28.302  33.199  55.217  0.00  0.00    +0.001 A 
ATOM      8  C   LIG    1       27.496  34.272  55.572  0.00  0.00    +0.001 A 
ATOM      9  C   LIG    1       26.174  34.049  55.903  0.00  0.00    +0.015 A 
ATOM     10  C   LIG    1       25.674  32.765  55.876  0.00  0.00    +0.020 A 
ATOM     11  S   LIG    1       24.087  32.045  56.211  0.00  0.00    -0.091 S 
ENDBRANCH   2   3
BRANCH   2  12
ATOM     12  N   LIG    1       22.383  29.361  55.177  0.00  0.00    -0.160 N 
ATOM     13  C   LIG    1       21.175  29.444  55.767  0.00  0.00    +0.323 C 
ATOM     14  N   LIG    1       20.081  29.710  55.027  0.00  0.00    -0.312 N 
ATOM     15  H   LIG    1       19.223  29.843  55.460  0.00  0.00    +0.147 HD
ATOM     16  H   LIG    1       20.151  29.768  54.061  0.00  0.00    +0.147 HD
ATOM     17  O   LIG    1       21.073  29.281  56.968  0.00  0.00    -0.251 OA
BRANCH  12  18
ATOM     18  O   LIG    1       22.496  29.491  53.771  0.00  0.00    -0.291 OA
ATOM     19  H   LIG    1       22.308  28.677  53.284  0.00  0.00    +0.242 HD
ENDBRANCH  12  18
ENDBRANCH   2  12
TORSDOF 3
ENDMDL
MODEL 2
REMARK VINA RESULT:      -5.1      1.673      2.417
REMARK  Name = ZINC00000850
REMARK                            x       y       z     vdW  Elec       q    Type
REMARK                         _______ _______ _______ _____ _____    ______ ____
ROOT
ATOM      1  C   LIG    1       22.544  30.970  58.391  0.00  0.00    +0.036 C 
ATOM      2  C   LIG    1       22.540  31.378  56.916  0.00  0.00    +0.140 C 
ENDROOT
BRANCH   2   3
ATOM      3  C   LIG    1       23.949  31.678  56.474  0.00  0.00    +0.013 A 
ATOM      4  C   LIG    1       24.533  32.875  56.319  0.00  0.00    +0.021 A 
ATOM      5  C   LIG    1       25.918  32.940  55.878  0.00  0.00    -0.010 A 
ATOM      6  C   LIG    1       26.723  34.082  55.652  0.00  0.00    +0.009 A 
ATOM      7  C   LIG    1       28.011  33.953  55.236  0.00  0.00    +0.001 A 
ATOM      8  C   LIG    1       28.583  32.707  55.020  0.00  0.00    +0.001 A 
ATOM      9  C   LIG    1       27.831  31.568  55.230  0.00  0.00    +0.015 A 
ATOM     10  C   LIG    1       26.524  31.685  55.652  0.00  0.00    +0.020 A 
ATOM     11  S   LIG    1       25.238  30.526  56.039  0.00  0.00    -0.091 S 
ENDBRANCH   2   3
BRANCH   2  12
ATOM     12  N   LIG    1       21.997  30.283  56.108  0.00  0.00    -0.160 N 
ATOM     13  C   LIG    1       21.528  30.528  54.869  0.00  0.00    +0.323 C 
ATOM     14  N   LIG    1       21.083  29.513  54.103  0.00  0.00    -0.312 N 
ATOM     15  H   LIG    1       20.814  29.678  53.187  0.00  0.00    +0.147 HD
ATOM     16  H   LIG    1       21.031  28.616  54.470  0.00  0.00    +0.147 HD
ATOM     17  O   LIG    1       21.508  31.667  54.441  0.00  0.00    -0.251 OA
BRANCH  12  18
ATOM     18  O   LIG    1       21.967  28.966  56.629  0.00  0.00    -0.291 OA
ATOM     19  H   LIG    1       21.077  28.599  56.719  0.00  0.00    +0.242 HD
ENDBRANCH  12  18
ENDBRANCH   2  12
TORSDOF 3
ENDMDL
MODEL 3
REMARK VINA RESULT:      -5.1      1.828      2.561
REMARK  Name = ZINC00000850
REMARK                            x       y       z     vdW  Elec       q    Type
REMARK                         _______ _______ _______ _____ _____    ______ ____
ROOT
ATOM      1  C   LIG    1       22.117  31.047  58.070  0.00  0.00    +0.036 C 
ATOM      2  C   LIG    1       22.592  30.338  56.800  0.00  0.00    +0.140 C 
ENDROOT
BRANCH   2   3
ATOM      3  C   LIG    1       23.848  30.999  56.295  0.00  0.00    +0.013 A 
ATOM      4  C   LIG    1       24.865  31.506  57.007  0.00  0.00    +0.021 A 
ATOM      5  C   LIG    1       25.993  32.106  56.312  0.00  0.00    -0.010 A 
ATOM      6  C   LIG    1       27.158  32.695  56.858  0.00  0.00    +0.009 A 
ATOM      7  C   LIG    1       28.120  33.212  56.048  0.00  0.00    +0.001 A 
ATOM      8  C   LIG    1       27.998  33.184  54.665  0.00  0.00    +0.001 A 
ATOM      9  C   LIG    1       26.876  32.618  54.094  0.00  0.00    +0.015 A 
ATOM     10  C   LIG    1       25.894  32.089  54.904  0.00  0.00    +0.020 A 
ATOM     11  S   LIG    1       24.340  31.287  54.605  0.00  0.00    -0.091 S 
ENDBRANCH   2   3
BRANCH   2  12
ATOM     12  N   LIG    1       22.869  28.931  57.101  0.00  0.00    -0.160 N 
ATOM     13  C   LIG    1       22.670  27.988  56.159  0.00  0.00    +0.323 C 
ATOM     14  N   LIG    1       22.980  26.702  56.416  0.00  0.00    -0.312 N 
ATOM     15  H   LIG    1       22.906  26.036  55.715  0.00  0.00    +0.147 HD
ATOM     16  H   LIG    1       23.276  26.442  57.303  0.00  0.00    +0.147 HD
ATOM     17  O   LIG    1       22.212  28.299  55.076  0.00  0.00    -0.251 OA
BRANCH  12  18
ATOM     18  O   LIG    1       23.346  28.561  58.383  0.00  0.00    -0.291 OA
ATOM     19  H   LIG    1       22.756  28.808  59.108  0.00  0.00    +0.242 HD
ENDBRANCH  12  18
ENDBRANCH   2  12
TORSDOF 3
ENDMDL
MODEL 4
REMARK VINA RESULT:      -4.7      2.519      3.057
REMARK  Name = ZINC00000850
REMARK                            x       y       z     vdW  Elec       q    Type
REMARK                         _______ _______ _______ _____ _____    ______ ____
ROOT
ATOM      1  C   LIG    1       21.632  30.404  56.159  0.00  0.00    +0.036 C 
ATOM      2  C   LIG    1       22.858  30.210  57.054  0.00  0.00    +0.140 C 
ENDROOT
BRANCH   2   3
ATOM      3  C   LIG    1       24.038  30.930  56.453  0.00  0.00    +0.013 A 
ATOM      4  C   LIG    1       25.083  31.484  57.086  0.00  0.00    +0.021 A 
ATOM      5  C   LIG    1       26.124  32.135  56.305  0.00  0.00    -0.010 A 
ATOM      6  C   LIG    1       27.300  32.777  56.760  0.00  0.00    +0.009 A 
ATOM      7  C   LIG    1       28.170  33.339  55.878  0.00  0.00    +0.001 A 
ATOM      8  C   LIG    1       27.941  33.305  54.510  0.00  0.00    +0.001 A 
ATOM      9  C   LIG    1       26.804  32.688  54.026  0.00  0.00    +0.015 A 
ATOM     10  C   LIG    1       25.915  32.114  54.909  0.00  0.00    +0.020 A 
ATOM     11  S   LIG    1       24.381  31.240  54.731  0.00  0.00    -0.091 S 
ENDBRANCH   2   3
BRANCH   2  12
ATOM     12  N   LIG    1       22.581  30.754  58.386  0.00  0.00    -0.160 N 
ATOM     13  C   LIG    1       22.945  30.063  59.485  0.00  0.00    +0.323 C 
ATOM     14  N   LIG    1       22.743  30.590  60.709  0.00  0.00    -0.312 N 
ATOM     15  H   LIG    1       23.070  30.127  61.496  0.00  0.00    +0.147 HD
ATOM     16  H   LIG    1       22.270  31.432  60.803  0.00  0.00    +0.147 HD
ATOM     17  O   LIG    1       23.455  28.965  59.371  0.00  0.00    -0.251 OA
BRANCH  12  18
ATOM     18  O   LIG    1       21.933  32.006  58.519  0.00  0.00    -0.291 OA
ATOM     19  H   LIG    1       21.040  32.028  58.150  0.00  0.00    +0.242 HD
ENDBRANCH  12  18
ENDBRANCH   2  12
TORSDOF 3
ENDMDL
MODEL 5
REMARK VINA RESULT:      -4.6      2.770      6.574
REMARK  Name = ZINC00000850
REMARK                            x       y       z     vdW  Elec       q    Type
REMARK                         _______ _______ _______ _____ _____    ______ ____
ROOT
ATOM      1  C   LIG    1       24.022  27.885  55.384  0.00  0.00    +0.036 C 
ATOM      2  C   LIG    1       23.504  29.244  54.910  0.00  0.00    +0.140 C 
ENDROOT
BRANCH   2   3
ATOM      3  C   LIG    1       22.028  29.349  55.199  0.00  0.00    +0.013 A 
ATOM      4  C   LIG    1       21.076  28.425  55.001  0.00  0.00    +0.021 A 
ATOM      5  C   LIG    1       19.699  28.736  55.354  0.00  0.00    -0.010 A 
ATOM      6  C   LIG    1       18.549  27.920  55.232  0.00  0.00    +0.009 A 
ATOM      7  C   LIG    1       17.328  28.380  55.614  0.00  0.00    +0.001 A 
ATOM      8  C   LIG    1       17.163  29.656  56.136  0.00  0.00    +0.001 A 
ATOM      9  C   LIG    1       18.260  30.482  56.271  0.00  0.00    +0.015 A 
ATOM     10  C   LIG    1       19.504  30.028  55.888  0.00  0.00    +0.020 A 
ATOM     11  S   LIG    1       21.135  30.727  55.891  0.00  0.00    -0.091 S 
ENDBRANCH   2   3
BRANCH   2  12
ATOM     12  N   LIG    1       24.216  30.312  55.617  0.00  0.00    -0.160 N 
ATOM     13  C   LIG    1       24.605  31.417  54.951  0.00  0.00    +0.323 C 
ATOM     14  N   LIG    1       25.209  32.425  55.612  0.00  0.00    -0.312 N 
ATOM     15  H   LIG    1       25.423  33.249  55.150  0.00  0.00    +0.147 HD
ATOM     16  H   LIG    1       25.430  32.325  56.552  0.00  0.00    +0.147 HD
ATOM     17  O   LIG    1       24.411  31.506  53.754  0.00  0.00    -0.251 OA
BRANCH  12  18
ATOM     18  O   LIG    1       24.495  30.183  56.999  0.00  0.00    -0.291 OA
ATOM     19  H   LIG    1       23.877  30.658  57.571  0.00  0.00    +0.242 HD
ENDBRANCH  12  18
ENDBRANCH   2  12
TORSDOF 3
ENDMDL
