MODEL 1
REMARK VINA RESULT:      -5.9      0.000      0.000
REMARK  Name = ZINC00000909
REMARK                            x       y       z     vdW  Elec       q    Type
REMARK                         _______ _______ _______ _____ _____    ______ ____
ROOT
ATOM      1  C   LIG    1       23.822  31.071  55.852  0.00  0.00    +0.043 A 
ATOM      2  C   LIG    1       23.913  30.301  54.689  0.00  0.00    +0.013 A 
ATOM      3  C   LIG    1       22.773  29.997  53.976  0.00  0.00    +0.001 A 
ATOM      4  C   LIG    1       21.535  30.451  54.407  0.00  0.00    +0.006 A 
ATOM      5  C   LIG    1       21.430  31.213  55.552  0.00  0.00    -0.015 A 
ATOM      6  C   LIG    1       22.567  31.525  56.288  0.00  0.00    +0.039 A 
ENDROOT
BRANCH   6   7
ATOM      7  N   LIG    1       22.461  32.284  57.445  0.00  0.00    -0.357 N 
ATOM      8  H   LIG    1       22.151  33.202  57.397  0.00  0.00    +0.142 HD
ATOM      9  H   LIG    1       22.701  31.897  58.302  0.00  0.00    +0.142 HD
ENDBRANCH   6   7
BRANCH   1  10
ATOM     10  C   LIG    1       25.037  31.399  56.619  0.00  0.00    +0.195 C 
ATOM     11  O   LIG    1       25.174  30.978  57.752  0.00  0.00    -0.287 OA
BRANCH  10  15
ATOM     12  C   LIG    1       28.058  33.821  54.872  0.00  0.00    +0.000 A 
ATOM     13  C   LIG    1       28.181  32.442  54.850  0.00  0.00    +0.001 A 
ATOM     14  C   LIG    1       27.203  31.650  55.416  0.00  0.00    +0.012 A 
ATOM     15  C   LIG    1       26.088  32.242  56.012  0.00  0.00    +0.022 A 
ATOM     16  C   LIG    1       25.971  33.634  56.032  0.00  0.00    +0.012 A 
ATOM     17  C   LIG    1       26.955  34.414  55.461  0.00  0.00    +0.001 A 
ENDBRANCH  10  15
ENDBRANCH   1  10
BRANCH   5  18
ATOM     18  C   LIG    1       20.079  31.701  56.009  0.00  0.00    +0.157 C 
BRANCH  18  19
ATOM     19  C   LIG    1       19.783  33.032  55.366  0.00  0.00    +0.309 C 
ATOM     20  O   LIG    1       18.628  33.385  55.201  0.00  0.00    -0.251 OA
BRANCH  19  21
ATOM     21  O   LIG    1       20.698  33.755  55.013  0.00  0.00    -0.480 OA
ATOM     22  H   LIG    1       20.580  34.343  54.292  0.00  0.00    +0.295 HD
ENDBRANCH  19  21
ENDBRANCH  18  19
ENDBRANCH   5  18
TORSDOF 6
ENDMDL
MODEL 2
REMARK VINA RESULT:      -5.7      2.227      2.872
REMARK  Name = ZINC00000909
REMARK                            x       y       z     vdW  Elec       q    Type
REMARK                         _______ _______ _______ _____ _____    ______ ____
ROOT
ATOM      1  C   LIG    1       23.512  31.575  56.169  0.00  0.00    +0.043 A 
ATOM      2  C   LIG    1       22.643  32.669  56.241  0.00  0.00    +0.013 A 
ATOM      3  C   LIG    1       21.341  32.541  55.809  0.00  0.00    +0.001 A 
ATOM      4  C   LIG    1       20.885  31.331  55.304  0.00  0.00    +0.006 A 
ATOM      5  C   LIG    1       21.730  30.243  55.228  0.00  0.00    -0.015 A 
ATOM      6  C   LIG    1       23.049  30.354  55.652  0.00  0.00    +0.039 A 
ENDROOT
BRANCH   6   7
ATOM      7  N   LIG    1       23.903  29.262  55.569  0.00  0.00    -0.357 N 
ATOM      8  H   LIG    1       24.700  29.227  56.121  0.00  0.00    +0.142 HD
ATOM      9  H   LIG    1       23.703  28.537  54.957  0.00  0.00    +0.142 HD
ENDBRANCH   6   7
BRANCH   1  10
ATOM     10  C   LIG    1       24.906  31.705  56.628  0.00  0.00    +0.195 C 
ATOM     11  O   LIG    1       25.269  31.139  57.641  0.00  0.00    -0.287 OA
BRANCH  10  15
ATOM     12  C   LIG    1       27.655  34.064  54.411  0.00  0.00    +0.000 A 
ATOM     13  C   LIG    1       27.355  32.780  53.991  0.00  0.00    +0.001 A 
ATOM     14  C   LIG    1       26.463  32.009  54.707  0.00  0.00    +0.012 A 
ATOM     15  C   LIG    1       25.863  32.526  55.857  0.00  0.00    +0.022 A 
ATOM     16  C   LIG    1       26.171  33.823  56.275  0.00  0.00    +0.012 A 
ATOM     17  C   LIG    1       27.064  34.584  55.549  0.00  0.00    +0.001 A 
ENDBRANCH  10  15
ENDBRANCH   1  10
BRANCH   5  18
ATOM     18  C   LIG    1       21.223  28.935  54.678  0.00  0.00    +0.157 C 
BRANCH  18  19
ATOM     19  C   LIG    1       20.778  28.051  55.815  0.00  0.00    +0.309 C 
ATOM     20  O   LIG    1       19.676  28.205  56.311  0.00  0.00    -0.251 OA
BRANCH  19  21
ATOM     21  O   LIG    1       21.520  27.181  56.237  0.00  0.00    -0.480 OA
ATOM     22  H   LIG    1       22.397  27.396  56.490  0.00  0.00    +0.295 HD
ENDBRANCH  19  21
ENDBRANCH  18  19
ENDBRANCH   5  18
TORSDOF 6
ENDMDL
MODEL 3
REMARK VINA RESULT:      -5.6      2.590      3.488
REMARK  Name = ZINC00000909
REMARK                            x       y       z     vdW  Elec       q    Type
REMARK                         _______ _______ _______ _____ _____    ______ ____
ROOT
ATOM      1  C   LIG    1       23.663  31.602  56.644  0.00  0.00    +0.043 A 
ATOM      2  C   LIG    1       22.755  32.286  55.829  0.00  0.00    +0.013 A 
ATOM      3  C   LIG    1       21.500  32.594  56.308  0.00  0.00    +0.001 A 
ATOM      4  C   LIG    1       21.132  32.230  57.595  0.00  0.00    +0.006 A 
ATOM      5  C   LIG    1       22.017  31.555  58.411  0.00  0.00    -0.015 A 
ATOM      6  C   LIG    1       23.285  31.229  57.944  0.00  0.00    +0.039 A 
ENDROOT
BRANCH   6   7
ATOM      7  N   LIG    1       24.173  30.543  58.760  0.00  0.00    -0.357 N 
ATOM      8  H   LIG    1       23.957  30.393  59.694  0.00  0.00    +0.142 HD
ATOM      9  H   LIG    1       25.011  30.216  58.397  0.00  0.00    +0.142 HD
ENDBRANCH   6   7
BRANCH   1  10
ATOM     10  C   LIG    1       25.006  31.268  56.137  0.00  0.00    +0.195 C 
ATOM     11  O   LIG    1       25.385  30.112  56.134  0.00  0.00    -0.287 OA
BRANCH  10  15
ATOM     12  C   LIG    1       27.554  34.344  54.693  0.00  0.00    +0.000 A 
ATOM     13  C   LIG    1       26.856  34.526  55.874  0.00  0.00    +0.001 A 
ATOM     14  C   LIG    1       26.026  33.531  56.348  0.00  0.00    +0.012 A 
ATOM     15  C   LIG    1       25.892  32.338  55.635  0.00  0.00    +0.022 A 
ATOM     16  C   LIG    1       26.600  32.161  54.443  0.00  0.00    +0.012 A 
ATOM     17  C   LIG    1       27.427  33.164  53.981  0.00  0.00    +0.001 A 
ENDBRANCH  10  15
ENDBRANCH   1  10
BRANCH   5  18
ATOM     18  C   LIG    1       21.605  31.166  59.807  0.00  0.00    +0.157 C 
BRANCH  18  19
ATOM     19  C   LIG    1       22.300  32.059  60.803  0.00  0.00    +0.309 C 
ATOM     20  O   LIG    1       21.904  33.197  60.981  0.00  0.00    -0.251 OA
BRANCH  19  21
ATOM     21  O   LIG    1       23.257  31.642  61.432  0.00  0.00    -0.480 OA
ATOM     22  H   LIG    1       23.493  30.736  61.379  0.00  0.00    +0.295 HD
ENDBRANCH  19  21
ENDBRANCH  18  19
ENDBRANCH   5  18
TORSDOF 6
ENDMDL
MODEL 4
REMARK VINA RESULT:      -5.6      2.603      3.129
REMARK  Name = ZINC00000909
REMARK                            x       y       z     vdW  Elec       q    Type
REMARK                         _______ _______ _______ _____ _____    ______ ____
ROOT
ATOM      1  C   LIG    1       23.910  30.975  55.521  0.00  0.00    +0.043 A 
ATOM      2  C   LIG    1       23.722  30.773  54.150  0.00  0.00    +0.013 A 
ATOM      3  C   LIG    1       23.206  29.579  53.695  0.00  0.00    +0.001 A 
ATOM      4  C   LIG    1       22.872  28.574  54.592  0.00  0.00    +0.006 A 
ATOM      5  C   LIG    1       23.051  28.758  55.947  0.00  0.00    -0.015 A 
ATOM      6  C   LIG    1       23.576  29.953  56.425  0.00  0.00    +0.039 A 
ENDROOT
BRANCH   6   7
ATOM      7  N   LIG    1       23.765  30.137  57.787  0.00  0.00    -0.357 N 
ATOM      8  H   LIG    1       24.095  30.986  58.121  0.00  0.00    +0.142 HD
ATOM      9  H   LIG    1       23.568  29.416  58.405  0.00  0.00    +0.142 HD
ENDBRANCH   6   7
BRANCH   1  10
ATOM     10  C   LIG    1       24.462  32.249  56.013  0.00  0.00    +0.195 C 
ATOM     11  O   LIG    1       23.760  33.011  56.648  0.00  0.00    -0.287 OA
BRANCH  10  15
ATOM     12  C   LIG    1       28.508  33.259  55.207  0.00  0.00    +0.000 A 
ATOM     13  C   LIG    1       28.135  31.929  55.294  0.00  0.00    +0.001 A 
ATOM     14  C   LIG    1       26.822  31.595  55.557  0.00  0.00    +0.012 A 
ATOM     15  C   LIG    1       25.870  32.600  55.733  0.00  0.00    +0.022 A 
ATOM     16  C   LIG    1       26.254  33.940  55.643  0.00  0.00    +0.012 A 
ATOM     17  C   LIG    1       27.570  34.261  55.380  0.00  0.00    +0.001 A 
ENDBRANCH  10  15
ENDBRANCH   1  10
BRANCH   5  18
ATOM     18  C   LIG    1       22.683  27.659  56.910  0.00  0.00    +0.157 C 
BRANCH  18  19
ATOM     19  C   LIG    1       21.197  27.415  56.849  0.00  0.00    +0.309 C 
ATOM     20  O   LIG    1       20.422  28.279  57.220  0.00  0.00    -0.251 OA
BRANCH  19  21
ATOM     21  O   LIG    1       20.770  26.354  56.427  0.00  0.00    -0.480 OA
ATOM     22  H   LIG    1       19.863  26.139  56.531  0.00  0.00    +0.295 HD
ENDBRANCH  19  21
ENDBRANCH  18  19
ENDBRANCH   5  18
TORSDOF 6
ENDMDL
MODEL 5
REMARK VINA RESULT:      -5.5      2.053      2.616
REMARK  Name = ZINC00000909
REMARK                            x       y       z     vdW  Elec       q    Type
REMARK                         _______ _______ _______ _____ _____    ______ ____
ROOT
ATOM      1  C   LIG    1       23.802  31.693  56.771  0.00  0.00    +0.043 A 
ATOM      2  C   LIG    1       24.183  30.738  57.719  0.00  0.00    +0.013 A 
ATOM      3  C   LIG    1       23.496  30.639  58.909  0.00  0.00    +0.001 A 
ATOM      4  C   LIG    1       22.426  31.482  59.173  0.00  0.00    +0.006 A 
ATOM      5  C   LIG    1       22.037  32.429  58.246  0.00  0.00    -0.015 A 
ATOM      6  C   LIG    1       22.723  32.549  57.043  0.00  0.00    +0.039 A 
ENDROOT
BRANCH   6   7
ATOM      7  N   LIG    1       22.339  33.506  56.114  0.00  0.00    -0.357 N 
ATOM      8  H   LIG    1       22.998  33.899  55.522  0.00  0.00    +0.142 HD
ATOM      9  H   LIG    1       21.411  33.782  56.059  0.00  0.00    +0.142 HD
ENDBRANCH   6   7
BRANCH   1  10
ATOM     10  C   LIG    1       24.534  31.805  55.497  0.00  0.00    +0.195 C 
ATOM     11  O   LIG    1       23.987  31.508  54.453  0.00  0.00    -0.287 OA
BRANCH  10  15
ATOM     12  C   LIG    1       28.560  33.160  55.474  0.00  0.00    +0.000 A 
ATOM     13  C   LIG    1       28.277  31.837  55.184  0.00  0.00    +0.001 A 
ATOM     14  C   LIG    1       26.972  31.390  55.190  0.00  0.00    +0.012 A 
ATOM     15  C   LIG    1       25.935  32.276  55.490  0.00  0.00    +0.022 A 
ATOM     16  C   LIG    1       26.228  33.610  55.783  0.00  0.00    +0.012 A 
ATOM     17  C   LIG    1       27.537  34.044  55.772  0.00  0.00    +0.001 A 
ENDBRANCH  10  15
ENDBRANCH   1  10
BRANCH   5  18
ATOM     18  C   LIG    1       20.873  33.338  58.545  0.00  0.00    +0.157 C 
BRANCH  18  19
ATOM     19  C   LIG    1       19.599  32.700  58.052  0.00  0.00    +0.309 C 
ATOM     20  O   LIG    1       18.916  32.037  58.813  0.00  0.00    -0.251 OA
BRANCH  19  21
ATOM     21  O   LIG    1       19.252  32.848  56.893  0.00  0.00    -0.480 OA
ATOM     22  H   LIG    1       19.535  32.241  56.238  0.00  0.00    +0.295 HD
ENDBRANCH  19  21
ENDBRANCH  18  19
ENDBRANCH   5  18
TORSDOF 6
ENDMDL
