REMARK VINA RESULT:      -5.4      2.179      5.278
REMARK  Name = ZINC00000504
REMARK                            x       y       z     vdW  Elec       q    Type
REMARK                         _______ _______ _______ _____ _____    ______ ____
ROOT
ATOM      1  C   LIG    1       20.294  34.292  57.764  0.00  0.00    -0.096 C 
ATOM      2  N   LIG    1       19.738  33.031  57.256  0.00  0.00    +0.380 N 
ATOM      3  H   LIG    1       18.795  33.180  56.927  0.00  0.00    -0.082 HD
ATOM      4  C   LIG    1       19.743  32.014  58.325  0.00  0.00    -0.060 C 
ATOM      5  C   LIG    1       18.830  30.878  57.866  0.00  0.00    +0.087 C 
ATOM      6  N   LIG    1       19.162  30.481  56.491  0.00  0.00    -0.326 N 
ATOM      7  C   LIG    1       18.468  29.373  55.988  0.00  0.00    +0.034 A 
ATOM      8  C   LIG    1       17.088  29.455  55.822  0.00  0.00    +0.023 A 
ATOM      9  C   LIG    1       16.401  28.394  55.267  0.00  0.00    +0.002 A 
ATOM     10  C   LIG    1       17.081  27.257  54.871  0.00  0.00    +0.000 A 
ATOM     11  C   LIG    1       18.449  27.166  55.058  0.00  0.00    +0.006 A 
ATOM     12  C   LIG    1       19.132  28.215  55.644  0.00  0.00    -0.022 A 
ATOM     13  C   LIG    1       20.580  28.076  55.994  0.00  0.00    +0.072 C 
ATOM     14  C   LIG    1       21.476  29.048  55.295  0.00  0.00    -0.038 A 
ATOM     15  C   LIG    1       22.615  28.473  54.718  0.00  0.00    +0.004 A 
ATOM     16  C   LIG    1       23.556  29.236  54.067  0.00  0.00    +0.000 A 
ATOM     17  C   LIG    1       23.377  30.604  53.982  0.00  0.00    +0.000 A 
ATOM     18  C   LIG    1       22.254  31.172  54.536  0.00  0.00    +0.005 A 
ATOM     19  C   LIG    1       21.284  30.396  55.181  0.00  0.00    -0.025 A 
ATOM     20  C   LIG    1       20.086  31.178  55.647  0.00  0.00    +0.087 C 
ATOM     21  C   LIG    1       20.570  32.524  56.165  0.00  0.00    -0.052 C 
ENDROOT
TORSDOF 0
