REMARK VINA RESULT:      -5.6      0.000      0.000
REMARK  Name = ZINC00000504
REMARK                            x       y       z     vdW  Elec       q    Type
REMARK                         _______ _______ _______ _____ _____    ______ ____
ROOT
ATOM      1  C   LIG    1       16.253  31.861  56.334  0.00  0.00    -0.096 C 
ATOM      2  N   LIG    1       17.675  31.708  55.998  0.00  0.00    +0.380 N 
ATOM      3  H   LIG    1       17.769  31.288  55.085  0.00  0.00    -0.082 HD
ATOM      4  C   LIG    1       18.341  30.864  57.010  0.00  0.00    -0.060 C 
ATOM      5  C   LIG    1       19.685  30.438  56.422  0.00  0.00    +0.087 C 
ATOM      6  N   LIG    1       20.394  31.601  55.872  0.00  0.00    -0.326 N 
ATOM      7  C   LIG    1       21.690  31.362  55.398  0.00  0.00    +0.034 A 
ATOM      8  C   LIG    1       21.868  30.513  54.309  0.00  0.00    +0.023 A 
ATOM      9  C   LIG    1       23.133  30.320  53.791  0.00  0.00    +0.002 A 
ATOM     10  C   LIG    1       24.219  30.971  54.347  0.00  0.00    +0.000 A 
ATOM     11  C   LIG    1       24.045  31.796  55.445  0.00  0.00    +0.006 A 
ATOM     12  C   LIG    1       22.783  31.964  55.984  0.00  0.00    -0.022 A 
ATOM     13  C   LIG    1       22.597  32.725  57.258  0.00  0.00    +0.072 C 
ATOM     14  C   LIG    1       21.734  33.939  57.127  0.00  0.00    -0.038 A 
ATOM     15  C   LIG    1       22.267  35.094  57.713  0.00  0.00    +0.004 A 
ATOM     16  C   LIG    1       21.582  36.286  57.708  0.00  0.00    +0.000 A 
ATOM     17  C   LIG    1       20.335  36.348  57.113  0.00  0.00    +0.000 A 
ATOM     18  C   LIG    1       19.814  35.220  56.525  0.00  0.00    +0.005 A 
ATOM     19  C   LIG    1       20.517  34.010  56.511  0.00  0.00    -0.025 A 
ATOM     20  C   LIG    1       19.828  32.911  55.748  0.00  0.00    +0.087 C 
ATOM     21  C   LIG    1       18.333  33.014  56.015  0.00  0.00    -0.052 C 
ENDROOT
TORSDOF 0
