REMARK VINA RESULT:      -5.5      2.916      5.445
REMARK  Name = ZINC00000504
REMARK                            x       y       z     vdW  Elec       q    Type
REMARK                         _______ _______ _______ _____ _____    ______ ____
ROOT
ATOM      1  C   LIG    1       20.801  32.619  59.581  0.00  0.00    -0.096 C 
ATOM      2  N   LIG    1       21.967  32.688  58.689  0.00  0.00    +0.380 N 
ATOM      3  H   LIG    1       22.701  33.224  59.126  0.00  0.00    -0.082 HD
ATOM      4  C   LIG    1       21.583  33.312  57.408  0.00  0.00    -0.060 C 
ATOM      5  C   LIG    1       22.878  33.693  56.691  0.00  0.00    +0.087 C 
ATOM      6  N   LIG    1       23.813  32.561  56.691  0.00  0.00    -0.326 N 
ATOM      7  C   LIG    1       25.000  32.745  55.968  0.00  0.00    +0.034 A 
ATOM      8  C   LIG    1       25.901  33.722  56.383  0.00  0.00    +0.023 A 
ATOM      9  C   LIG    1       27.103  33.870  55.720  0.00  0.00    +0.002 A 
ATOM     10  C   LIG    1       27.413  33.049  54.652  0.00  0.00    +0.000 A 
ATOM     11  C   LIG    1       26.507  32.094  54.224  0.00  0.00    +0.006 A 
ATOM     12  C   LIG    1       25.289  31.968  54.868  0.00  0.00    -0.022 A 
ATOM     13  C   LIG    1       24.237  31.051  54.328  0.00  0.00    +0.072 C 
ATOM     14  C   LIG    1       23.842  29.953  55.264  0.00  0.00    -0.038 A 
ATOM     15  C   LIG    1       23.799  28.682  54.678  0.00  0.00    +0.004 A 
ATOM     16  C   LIG    1       23.421  27.571  55.395  0.00  0.00    +0.000 A 
ATOM     17  C   LIG    1       23.072  27.710  56.725  0.00  0.00    +0.000 A 
ATOM     18  C   LIG    1       23.125  28.955  57.308  0.00  0.00    +0.005 A 
ATOM     19  C   LIG    1       23.529  30.084  56.586  0.00  0.00    -0.025 A 
ATOM     20  C   LIG    1       23.609  31.340  57.412  0.00  0.00    +0.087 C 
ATOM     21  C   LIG    1       22.446  31.338  58.393  0.00  0.00    -0.052 C 
ENDROOT
TORSDOF 0
