REMARK VINA RESULT:      -5.4      1.920      4.657
REMARK  Name = ZINC00000504
REMARK                            x       y       z     vdW  Elec       q    Type
REMARK                         _______ _______ _______ _____ _____    ______ ____
ROOT
ATOM      1  C   LIG    1       26.719  32.477  55.534  0.00  0.00    -0.096 C 
ATOM      2  N   LIG    1       25.441  31.755  55.604  0.00  0.00    +0.380 N 
ATOM      3  H   LIG    1       25.575  30.865  56.058  0.00  0.00    -0.082 HD
ATOM      4  C   LIG    1       24.906  31.550  54.243  0.00  0.00    -0.060 C 
ATOM      5  C   LIG    1       23.807  30.495  54.350  0.00  0.00    +0.087 C 
ATOM      6  N   LIG    1       22.886  30.826  55.445  0.00  0.00    -0.326 N 
ATOM      7  C   LIG    1       21.768  29.992  55.580  0.00  0.00    +0.034 A 
ATOM      8  C   LIG    1       21.957  28.651  55.904  0.00  0.00    +0.023 A 
ATOM      9  C   LIG    1       20.862  27.834  56.104  0.00  0.00    +0.002 A 
ATOM     10  C   LIG    1       19.583  28.346  55.989  0.00  0.00    +0.000 A 
ATOM     11  C   LIG    1       19.395  29.672  55.643  0.00  0.00    +0.006 A 
ATOM     12  C   LIG    1       20.491  30.483  55.411  0.00  0.00    -0.022 A 
ATOM     13  C   LIG    1       20.310  31.873  54.888  0.00  0.00    +0.072 C 
ATOM     14  C   LIG    1       20.828  32.942  55.797  0.00  0.00    -0.038 A 
ATOM     15  C   LIG    1       19.938  34.003  56.006  0.00  0.00    +0.004 A 
ATOM     16  C   LIG    1       20.276  35.082  56.790  0.00  0.00    +0.000 A 
ATOM     17  C   LIG    1       21.524  35.123  57.383  0.00  0.00    +0.000 A 
ATOM     18  C   LIG    1       22.396  34.077  57.191  0.00  0.00    +0.005 A 
ATOM     19  C   LIG    1       22.047  32.968  56.411  0.00  0.00    -0.025 A 
ATOM     20  C   LIG    1       23.093  31.886  56.386  0.00  0.00    +0.087 C 
ATOM     21  C   LIG    1       24.462  32.549  56.345  0.00  0.00    -0.052 C 
ENDROOT
TORSDOF 0
