REMARK VINA RESULT:      -5.3      3.267      5.491
REMARK  Name = ZINC00000504
REMARK                            x       y       z     vdW  Elec       q    Type
REMARK                         _______ _______ _______ _____ _____    ______ ____
ROOT
ATOM      1  C   LIG    1       19.182  23.964  56.842  0.00  0.00    -0.096 C 
ATOM      2  N   LIG    1       19.833  25.203  56.395  0.00  0.00    +0.380 N 
ATOM      3  H   LIG    1       20.516  24.993  55.682  0.00  0.00    -0.082 HD
ATOM      4  C   LIG    1       20.487  25.868  57.539  0.00  0.00    -0.060 C 
ATOM      5  C   LIG    1       21.439  26.915  56.963  0.00  0.00    +0.087 C 
ATOM      6  N   LIG    1       20.751  27.729  55.952  0.00  0.00    -0.326 N 
ATOM      7  C   LIG    1       21.485  28.798  55.422  0.00  0.00    +0.034 A 
ATOM      8  C   LIG    1       22.636  28.532  54.685  0.00  0.00    +0.023 A 
ATOM      9  C   LIG    1       23.332  29.573  54.104  0.00  0.00    +0.002 A 
ATOM     10  C   LIG    1       22.885  30.873  54.247  0.00  0.00    +0.000 A 
ATOM     11  C   LIG    1       21.755  31.140  55.000  0.00  0.00    +0.006 A 
ATOM     12  C   LIG    1       21.077  30.101  55.609  0.00  0.00    -0.022 A 
ATOM     13  C   LIG    1       19.947  30.381  56.550  0.00  0.00    +0.072 C 
ATOM     14  C   LIG    1       18.634  29.809  56.118  0.00  0.00    -0.038 A 
ATOM     15  C   LIG    1       17.562  30.707  56.187  0.00  0.00    +0.004 A 
ATOM     16  C   LIG    1       16.282  30.327  55.856  0.00  0.00    +0.000 A 
ATOM     17  C   LIG    1       16.046  29.026  55.450  0.00  0.00    +0.000 A 
ATOM     18  C   LIG    1       17.098  28.145  55.370  0.00  0.00    +0.005 A 
ATOM     19  C   LIG    1       18.405  28.534  55.685  0.00  0.00    -0.025 A 
ATOM     20  C   LIG    1       19.434  27.462  55.454  0.00  0.00    +0.087 C 
ATOM     21  C   LIG    1       18.830  26.127  55.865  0.00  0.00    -0.052 C 
ENDROOT
TORSDOF 0
