MODEL 1
REMARK VINA RESULT:      -5.3      0.000      0.000
REMARK  Name = ZINC00001021
REMARK                            x       y       z     vdW  Elec       q    Type
REMARK                         _______ _______ _______ _____ _____    ______ ____
ROOT
ATOM      1  O   LIG    1       25.125  30.941  57.149  0.00  0.00    -0.456 OA
ENDROOT
BRANCH   1   2
ATOM      2  C   LIG    1       23.856  30.501  57.259  0.00  0.00    +0.339 C 
ATOM      3  O   LIG    1       23.608  29.529  57.945  0.00  0.00    -0.245 OA
BRANCH   2   4
ATOM      4  C   LIG    1       22.767  31.200  56.546  0.00  0.00    +0.059 A 
ATOM      5  C   LIG    1       21.976  30.509  55.626  0.00  0.00    +0.015 A 
ATOM      6  C   LIG    1       20.962  31.168  54.963  0.00  0.00    +0.001 A 
ATOM      7  C   LIG    1       20.727  32.510  55.208  0.00  0.00    +0.000 A 
ATOM      8  C   LIG    1       21.509  33.200  56.118  0.00  0.00    +0.001 A 
ATOM      9  C   LIG    1       22.522  32.552  56.792  0.00  0.00    +0.015 A 
ENDBRANCH   2   4
ENDBRANCH   1   2
BRANCH   1  10
ATOM     10  C   LIG    1       25.712  30.910  55.847  0.00  0.00    +0.268 C 
BRANCH  10  14
ATOM     11  C   LIG    1       27.347  34.748  54.931  0.00  0.00    +0.000 A 
ATOM     12  C   LIG    1       27.590  33.675  54.092  0.00  0.00    +0.000 A 
ATOM     13  C   LIG    1       27.061  32.433  54.389  0.00  0.00    +0.007 A 
ATOM     14  C   LIG    1       26.290  32.263  55.524  0.00  0.00    -0.010 A 
ATOM     15  C   LIG    1       26.047  33.336  56.362  0.00  0.00    +0.007 A 
ATOM     16  C   LIG    1       26.575  34.578  56.064  0.00  0.00    +0.000 A 
ENDBRANCH  10  14
ENDBRANCH   1  10
TORSDOF 4
ENDMDL
MODEL 2
REMARK VINA RESULT:      -5.3      1.767      2.654
REMARK  Name = ZINC00001021
REMARK                            x       y       z     vdW  Elec       q    Type
REMARK                         _______ _______ _______ _____ _____    ______ ____
ROOT
ATOM      1  O   LIG    1       23.844  31.338  54.201  0.00  0.00    -0.456 OA
ENDROOT
BRANCH   1   2
ATOM      2  C   LIG    1       22.873  30.407  54.129  0.00  0.00    +0.339 C 
ATOM      3  O   LIG    1       23.055  29.387  53.494  0.00  0.00    -0.245 OA
BRANCH   2   4
ATOM      4  C   LIG    1       21.586  30.626  54.822  0.00  0.00    +0.059 A 
ATOM      5  C   LIG    1       21.180  31.920  55.153  0.00  0.00    +0.015 A 
ATOM      6  C   LIG    1       19.978  32.117  55.800  0.00  0.00    +0.001 A 
ATOM      7  C   LIG    1       19.176  31.036  56.121  0.00  0.00    +0.000 A 
ATOM      8  C   LIG    1       19.573  29.750  55.797  0.00  0.00    +0.001 A 
ATOM      9  C   LIG    1       20.770  29.540  55.144  0.00  0.00    +0.015 A 
ENDBRANCH   2   4
ENDBRANCH   1   2
BRANCH   1  10
ATOM     10  C   LIG    1       24.805  31.193  55.249  0.00  0.00    +0.268 C 
BRANCH  10  14
ATOM     11  C   LIG    1       27.582  34.435  55.092  0.00  0.00    +0.000 A 
ATOM     12  C   LIG    1       26.648  34.374  56.110  0.00  0.00    +0.000 A 
ATOM     13  C   LIG    1       25.749  33.325  56.160  0.00  0.00    +0.007 A 
ATOM     14  C   LIG    1       25.784  32.338  55.194  0.00  0.00    -0.010 A 
ATOM     15  C   LIG    1       26.718  32.399  54.176  0.00  0.00    +0.007 A 
ATOM     16  C   LIG    1       27.617  33.448  54.126  0.00  0.00    +0.000 A 
ENDBRANCH  10  14
ENDBRANCH   1  10
TORSDOF 4
ENDMDL
MODEL 3
REMARK VINA RESULT:      -5.2      3.671      5.227
REMARK  Name = ZINC00001021
REMARK                            x       y       z     vdW  Elec       q    Type
REMARK                         _______ _______ _______ _____ _____    ______ ____
ROOT
ATOM      1  O   LIG    1       26.184  35.776  56.685  0.00  0.00    -0.456 OA
ENDROOT
BRANCH   1   2
ATOM      2  C   LIG    1       25.728  37.039  56.785  0.00  0.00    +0.339 C 
ATOM      3  O   LIG    1       26.495  37.974  56.669  0.00  0.00    -0.245 OA
BRANCH   2   4
ATOM      4  C   LIG    1       24.293  37.288  57.037  0.00  0.00    +0.059 A 
ATOM      5  C   LIG    1       23.409  36.217  57.177  0.00  0.00    +0.015 A 
ATOM      6  C   LIG    1       22.071  36.457  57.411  0.00  0.00    +0.001 A 
ATOM      7  C   LIG    1       21.605  37.756  57.507  0.00  0.00    +0.000 A 
ATOM      8  C   LIG    1       22.475  38.823  57.368  0.00  0.00    +0.001 A 
ATOM      9  C   LIG    1       23.816  38.597  57.139  0.00  0.00    +0.015 A 
ENDBRANCH   2   4
ENDBRANCH   1   2
BRANCH   1  10
ATOM     10  C   LIG    1       26.817  35.410  55.457  0.00  0.00    +0.268 C 
BRANCH  10  14
ATOM     11  C   LIG    1       27.496  31.193  55.403  0.00  0.00    +0.000 A 
ATOM     12  C   LIG    1       26.226  31.686  55.640  0.00  0.00    +0.000 A 
ATOM     13  C   LIG    1       26.007  33.051  55.658  0.00  0.00    +0.007 A 
ATOM     14  C   LIG    1       27.057  33.922  55.439  0.00  0.00    -0.010 A 
ATOM     15  C   LIG    1       28.327  33.429  55.202  0.00  0.00    +0.007 A 
ATOM     16  C   LIG    1       28.545  32.065  55.183  0.00  0.00    +0.000 A 
ENDBRANCH  10  14
ENDBRANCH   1  10
TORSDOF 4
ENDMDL
MODEL 4
REMARK VINA RESULT:      -5.2      1.040      5.068
REMARK  Name = ZINC00001021
REMARK                            x       y       z     vdW  Elec       q    Type
REMARK                         _______ _______ _______ _____ _____    ______ ____
ROOT
ATOM      1  O   LIG    1       24.366  31.238  57.422  0.00  0.00    -0.456 OA
ENDROOT
BRANCH   1   2
ATOM      2  C   LIG    1       25.242  30.916  56.451  0.00  0.00    +0.339 C 
ATOM      3  O   LIG    1       25.254  29.792  55.991  0.00  0.00    -0.245 OA
BRANCH   2   4
ATOM      4  C   LIG    1       26.190  31.931  55.945  0.00  0.00    +0.059 A 
ATOM      5  C   LIG    1       27.403  31.536  55.377  0.00  0.00    +0.015 A 
ATOM      6  C   LIG    1       28.282  32.488  54.907  0.00  0.00    +0.001 A 
ATOM      7  C   LIG    1       27.966  33.832  54.998  0.00  0.00    +0.000 A 
ATOM      8  C   LIG    1       26.766  34.231  55.561  0.00  0.00    +0.001 A 
ATOM      9  C   LIG    1       25.874  33.289  56.029  0.00  0.00    +0.015 A 
ENDBRANCH   2   4
ENDBRANCH   1   2
BRANCH   1  10
ATOM     10  C   LIG    1       22.998  30.886  57.204  0.00  0.00    +0.268 C 
BRANCH  10  14
ATOM     11  C   LIG    1       20.836  34.324  55.882  0.00  0.00    +0.000 A 
ATOM     12  C   LIG    1       21.762  34.440  56.902  0.00  0.00    +0.000 A 
ATOM     13  C   LIG    1       22.461  33.327  57.330  0.00  0.00    +0.007 A 
ATOM     14  C   LIG    1       22.235  32.099  56.739  0.00  0.00    -0.010 A 
ATOM     15  C   LIG    1       21.309  31.983  55.718  0.00  0.00    +0.007 A 
ATOM     16  C   LIG    1       20.611  33.096  55.290  0.00  0.00    +0.000 A 
ENDBRANCH  10  14
ENDBRANCH   1  10
TORSDOF 4
ENDMDL
MODEL 5
REMARK VINA RESULT:      -5.2      1.670      2.213
REMARK  Name = ZINC00001021
REMARK                            x       y       z     vdW  Elec       q    Type
REMARK                         _______ _______ _______ _____ _____    ______ ____
ROOT
ATOM      1  O   LIG    1       24.638  30.391  55.460  0.00  0.00    -0.456 OA
ENDROOT
BRANCH   1   2
ATOM      2  C   LIG    1       23.638  30.590  54.579  0.00  0.00    +0.339 C 
ATOM      3  O   LIG    1       23.873  31.085  53.495  0.00  0.00    -0.245 OA
BRANCH   2   4
ATOM      4  C   LIG    1       22.255  30.206  54.931  0.00  0.00    +0.059 A 
ATOM      5  C   LIG    1       21.860  28.868  54.861  0.00  0.00    +0.015 A 
ATOM      6  C   LIG    1       20.567  28.518  55.190  0.00  0.00    +0.001 A 
ATOM      7  C   LIG    1       19.664  29.487  55.590  0.00  0.00    +0.000 A 
ATOM      8  C   LIG    1       20.049  30.814  55.660  0.00  0.00    +0.001 A 
ATOM      9  C   LIG    1       21.340  31.178  55.340  0.00  0.00    +0.015 A 
ENDBRANCH   2   4
ENDBRANCH   1   2
BRANCH   1  10
ATOM     10  C   LIG    1       24.902  31.444  56.389  0.00  0.00    +0.268 C 
BRANCH  10  14
ATOM     11  C   LIG    1       28.109  33.857  54.927  0.00  0.00    +0.000 A 
ATOM     12  C   LIG    1       28.172  32.481  54.812  0.00  0.00    +0.000 A 
ATOM     13  C   LIG    1       27.134  31.700  55.285  0.00  0.00    +0.007 A 
ATOM     14  C   LIG    1       26.034  32.295  55.874  0.00  0.00    -0.010 A 
ATOM     15  C   LIG    1       25.972  33.671  55.990  0.00  0.00    +0.007 A 
ATOM     16  C   LIG    1       27.009  34.452  55.516  0.00  0.00    +0.000 A 
ENDBRANCH  10  14
ENDBRANCH   1  10
TORSDOF 4
ENDMDL
