REMARK VINA RESULT:      -5.2      3.203      5.149
REMARK  Name = ZINC00000640
REMARK                            x       y       z     vdW  Elec       q    Type
REMARK                         _______ _______ _______ _____ _____    ______ ____
ROOT
ATOM      1  C   LIG    1       22.031  32.846  59.367  0.00  0.00    +0.045 C 
ATOM      2  C   LIG    1       21.694  33.238  57.952  0.00  0.00    -0.032 A 
ATOM      3  C   LIG    1       21.486  34.550  57.614  0.00  0.00    -0.021 A 
ATOM      4  C   LIG    1       21.171  34.885  56.303  0.00  0.00    +0.117 A 
ATOM      5  N   LIG    1       21.077  33.974  55.359  0.00  0.00    -0.235 NA
ATOM      6  C   LIG    1       21.268  32.682  55.624  0.00  0.00    +0.167 A 
ATOM      7  N   LIG    1       21.170  31.745  54.670  0.00  0.00    -0.195 NA
ATOM      8  C   LIG    1       21.365  30.472  54.960  0.00  0.00    +0.216 A 
ATOM      9  N   LIG    1       21.665  30.048  56.184  0.00  0.00    -0.199 NA
ATOM     10  C   LIG    1       21.785  30.894  57.195  0.00  0.00    +0.131 A 
ATOM     11  C   LIG    1       21.586  32.274  56.943  0.00  0.00    +0.062 A 
ENDROOT
BRANCH   8  12
ATOM     12  N   LIG    1       21.254  29.540  53.945  0.00  0.00    -0.327 N 
ATOM     13  H   LIG    1       20.942  28.643  54.143  0.00  0.00    +0.145 HD
ATOM     14  H   LIG    1       21.487  29.783  53.036  0.00  0.00    +0.145 HD
ENDBRANCH   8  12
BRANCH  10  15
ATOM     15  N   LIG    1       22.096  30.445  58.460  0.00  0.00    -0.342 N 
ATOM     16  H   LIG    1       23.021  30.280  58.703  0.00  0.00    +0.144 HD
ATOM     17  H   LIG    1       21.390  30.294  59.109  0.00  0.00    +0.144 HD
ENDBRANCH  10  15
BRANCH   3  18
ATOM     18  C   LIG    1       21.590  35.626  58.664  0.00  0.00    +0.075 C 
BRANCH  18  19
ATOM     19  C   LIG    1       22.472  36.738  58.158  0.00  0.00    +0.002 A 
ATOM     20  C   LIG    1       23.774  36.470  57.780  0.00  0.00    +0.053 A 
ATOM     21  C   LIG    1       24.585  37.494  57.314  0.00  0.00    +0.121 A 
ATOM     22  C   LIG    1       24.092  38.788  57.233  0.00  0.00    +0.049 A 
ATOM     23  C   LIG    1       22.788  39.055  57.604  0.00  0.00    +0.049 A 
ATOM     24  C   LIG    1       21.976  38.030  58.070  0.00  0.00    +0.124 A 
BRANCH  21  25
ATOM     25  O   LIG    1       25.866  37.230  56.943  0.00  0.00    -0.495 OA
ATOM     26  C   LIG    1       26.157  37.267  55.545  0.00  0.00    +0.277 C 
ENDBRANCH  21  25
BRANCH  24  27
ATOM     27  O   LIG    1       20.695  38.294  58.440  0.00  0.00    -0.495 OA
ATOM     28  C   LIG    1       19.728  38.411  57.394  0.00  0.00    +0.277 C 
ENDBRANCH  24  27
ENDBRANCH  18  19
ENDBRANCH   3  18
TORSDOF 6
