REMARK VINA RESULT:      -5.3      3.870      5.735
REMARK  Name = ZINC00000640
REMARK                            x       y       z     vdW  Elec       q    Type
REMARK                         _______ _______ _______ _____ _____    ______ ____
ROOT
ATOM      1  C   LIG    1       19.998  35.867  57.093  0.00  0.00    +0.045 C 
ATOM      2  C   LIG    1       19.290  34.586  56.732  0.00  0.00    -0.032 A 
ATOM      3  C   LIG    1       19.978  33.524  56.205  0.00  0.00    -0.021 A 
ATOM      4  C   LIG    1       19.302  32.356  55.876  0.00  0.00    +0.117 A 
ATOM      5  N   LIG    1       18.007  32.229  56.068  0.00  0.00    -0.235 NA
ATOM      6  C   LIG    1       17.283  33.225  56.577  0.00  0.00    +0.167 A 
ATOM      7  N   LIG    1       15.961  33.107  56.771  0.00  0.00    -0.195 NA
ATOM      8  C   LIG    1       15.267  34.109  57.278  0.00  0.00    +0.216 A 
ATOM      9  N   LIG    1       15.819  35.269  57.620  0.00  0.00    -0.199 NA
ATOM     10  C   LIG    1       17.116  35.486  57.467  0.00  0.00    +0.131 A 
ATOM     11  C   LIG    1       17.911  34.445  56.927  0.00  0.00    +0.062 A 
ENDROOT
BRANCH   8  12
ATOM     12  N   LIG    1       13.907  33.943  57.462  0.00  0.00    -0.327 N 
ATOM     13  H   LIG    1       13.365  33.562  56.753  0.00  0.00    +0.145 HD
ATOM     14  H   LIG    1       13.495  34.205  58.300  0.00  0.00    +0.145 HD
ENDBRANCH   8  12
BRANCH  10  15
ATOM     15  N   LIG    1       17.679  36.692  57.825  0.00  0.00    -0.342 N 
ATOM     16  H   LIG    1       17.189  37.517  57.682  0.00  0.00    +0.144 HD
ATOM     17  H   LIG    1       18.565  36.716  58.220  0.00  0.00    +0.144 HD
ENDBRANCH  10  15
BRANCH   3  18
ATOM     18  C   LIG    1       21.464  33.627  55.975  0.00  0.00    +0.075 C 
BRANCH  18  19
ATOM     19  C   LIG    1       22.167  32.536  56.741  0.00  0.00    +0.002 A 
ATOM     20  C   LIG    1       22.107  32.512  58.122  0.00  0.00    +0.053 A 
ATOM     21  C   LIG    1       22.753  31.508  58.827  0.00  0.00    +0.121 A 
ATOM     22  C   LIG    1       23.466  30.531  58.147  0.00  0.00    +0.049 A 
ATOM     23  C   LIG    1       23.521  30.551  56.766  0.00  0.00    +0.049 A 
ATOM     24  C   LIG    1       22.873  31.556  56.061  0.00  0.00    +0.124 A 
BRANCH  21  25
ATOM     25  O   LIG    1       22.695  31.485  60.185  0.00  0.00    -0.495 OA
ATOM     26  C   LIG    1       22.071  32.599  60.825  0.00  0.00    +0.277 C 
ENDBRANCH  21  25
BRANCH  24  27
ATOM     27  O   LIG    1       22.932  31.578  54.703  0.00  0.00    -0.495 OA
ATOM     28  C   LIG    1       22.950  30.316  54.033  0.00  0.00    +0.277 C 
ENDBRANCH  24  27
ENDBRANCH  18  19
ENDBRANCH   3  18
TORSDOF 6
