REMARK VINA RESULT:      -5.7      3.948      7.534
REMARK  Name = ZINC00000640
REMARK                            x       y       z     vdW  Elec       q    Type
REMARK                         _______ _______ _______ _____ _____    ______ ____
ROOT
ATOM      1  C   LIG    1       22.284  29.014  58.170  0.00  0.00    +0.045 C 
ATOM      2  C   LIG    1       22.416  29.341  56.704  0.00  0.00    -0.032 A 
ATOM      3  C   LIG    1       21.596  28.757  55.775  0.00  0.00    -0.021 A 
ATOM      4  C   LIG    1       21.741  29.072  54.430  0.00  0.00    +0.117 A 
ATOM      5  N   LIG    1       22.644  29.933  54.013  0.00  0.00    -0.235 NA
ATOM      6  C   LIG    1       23.471  30.533  54.868  0.00  0.00    +0.167 A 
ATOM      7  N   LIG    1       24.399  31.409  54.454  0.00  0.00    -0.195 NA
ATOM      8  C   LIG    1       25.206  31.990  55.322  0.00  0.00    +0.216 A 
ATOM      9  N   LIG    1       25.151  31.753  56.629  0.00  0.00    -0.199 NA
ATOM     10  C   LIG    1       24.271  30.905  57.139  0.00  0.00    +0.131 A 
ATOM     11  C   LIG    1       23.379  30.251  56.254  0.00  0.00    +0.062 A 
ENDROOT
BRANCH   8  12
ATOM     12  N   LIG    1       26.147  32.886  54.851  0.00  0.00    -0.327 N 
ATOM     13  H   LIG    1       26.940  33.078  55.377  0.00  0.00    +0.145 HD
ATOM     14  H   LIG    1       26.016  33.322  53.995  0.00  0.00    +0.145 HD
ENDBRANCH   8  12
BRANCH  10  15
ATOM     15  N   LIG    1       24.223  30.666  58.495  0.00  0.00    -0.342 N 
ATOM     16  H   LIG    1       23.460  30.967  59.014  0.00  0.00    +0.144 HD
ATOM     17  H   LIG    1       24.951  30.195  58.931  0.00  0.00    +0.144 HD
ENDBRANCH  10  15
BRANCH   3  18
ATOM     18  C   LIG    1       20.543  27.771  56.210  0.00  0.00    +0.075 C 
BRANCH  18  19
ATOM     19  C   LIG    1       19.176  28.375  56.014  0.00  0.00    +0.002 A 
ATOM     20  C   LIG    1       18.881  29.607  56.566  0.00  0.00    +0.053 A 
ATOM     21  C   LIG    1       17.623  30.163  56.385  0.00  0.00    +0.121 A 
ATOM     22  C   LIG    1       16.660  29.480  55.657  0.00  0.00    +0.049 A 
ATOM     23  C   LIG    1       16.958  28.251  55.101  0.00  0.00    +0.049 A 
ATOM     24  C   LIG    1       18.216  27.695  55.281  0.00  0.00    +0.124 A 
BRANCH  21  25
ATOM     25  O   LIG    1       17.332  31.375  56.928  0.00  0.00    -0.495 OA
ATOM     26  C   LIG    1       16.113  31.995  56.514  0.00  0.00    +0.277 C 
ENDBRANCH  21  25
BRANCH  24  27
ATOM     27  O   LIG    1       18.507  26.483  54.738  0.00  0.00    -0.495 OA
ATOM     28  C   LIG    1       17.906  25.338  55.346  0.00  0.00    +0.277 C 
ENDBRANCH  24  27
ENDBRANCH  18  19
ENDBRANCH   3  18
TORSDOF 6
