REMARK VINA RESULT:      -5.3      3.596      7.214
REMARK  Name = ZINC00000640
REMARK                            x       y       z     vdW  Elec       q    Type
REMARK                         _______ _______ _______ _____ _____    ______ ____
ROOT
ATOM      1  C   LIG    1       22.017  29.870  58.225  0.00  0.00    +0.045 C 
ATOM      2  C   LIG    1       22.144  30.209  56.762  0.00  0.00    -0.032 A 
ATOM      3  C   LIG    1       21.115  29.968  55.891  0.00  0.00    -0.021 A 
ATOM      4  C   LIG    1       21.258  30.286  54.546  0.00  0.00    +0.117 A 
ATOM      5  N   LIG    1       22.361  30.828  54.076  0.00  0.00    -0.235 NA
ATOM      6  C   LIG    1       23.397  31.086  54.873  0.00  0.00    +0.167 A 
ATOM      7  N   LIG    1       24.527  31.634  54.404  0.00  0.00    -0.195 NA
ATOM      8  C   LIG    1       25.539  31.881  55.216  0.00  0.00    +0.216 A 
ATOM      9  N   LIG    1       25.504  31.610  56.517  0.00  0.00    -0.199 NA
ATOM     10  C   LIG    1       24.433  31.068  57.078  0.00  0.00    +0.131 A 
ATOM     11  C   LIG    1       23.317  30.781  56.255  0.00  0.00    +0.062 A 
ENDROOT
BRANCH   8  12
ATOM     12  N   LIG    1       26.684  32.447  54.689  0.00  0.00    -0.327 N 
ATOM     13  H   LIG    1       26.729  33.406  54.546  0.00  0.00    +0.145 HD
ATOM     14  H   LIG    1       27.443  31.888  54.463  0.00  0.00    +0.145 HD
ENDBRANCH   8  12
BRANCH  10  15
ATOM     15  N   LIG    1       24.406  30.790  58.427  0.00  0.00    -0.342 N 
ATOM     16  H   LIG    1       24.518  31.506  59.072  0.00  0.00    +0.144 HD
ATOM     17  H   LIG    1       24.274  29.878  58.732  0.00  0.00    +0.144 HD
ENDBRANCH  10  15
BRANCH   3  18
ATOM     18  C   LIG    1       19.832  29.354  56.389  0.00  0.00    +0.075 C 
BRANCH  18  19
ATOM     19  C   LIG    1       18.728  30.378  56.327  0.00  0.00    +0.002 A 
ATOM     20  C   LIG    1       19.026  31.723  56.434  0.00  0.00    +0.053 A 
ATOM     21  C   LIG    1       18.010  32.665  56.377  0.00  0.00    +0.121 A 
ATOM     22  C   LIG    1       16.694  32.257  56.220  0.00  0.00    +0.049 A 
ATOM     23  C   LIG    1       16.396  30.913  56.107  0.00  0.00    +0.049 A 
ATOM     24  C   LIG    1       17.412  29.970  56.163  0.00  0.00    +0.124 A 
BRANCH  21  25
ATOM     25  O   LIG    1       18.304  33.988  56.484  0.00  0.00    -0.495 OA
ATOM     26  C   LIG    1       17.217  34.906  56.350  0.00  0.00    +0.277 C 
ENDBRANCH  21  25
BRANCH  24  27
ATOM     27  O   LIG    1       17.119  28.647  56.057  0.00  0.00    -0.495 OA
ATOM     28  C   LIG    1       16.212  28.265  55.021  0.00  0.00    +0.277 C 
ENDBRANCH  24  27
ENDBRANCH  18  19
ENDBRANCH   3  18
TORSDOF 6
