REMARK VINA RESULT:      -5.7      0.000      0.000
REMARK  Name = ZINC00000640
REMARK                            x       y       z     vdW  Elec       q    Type
REMARK                         _______ _______ _______ _____ _____    ______ ____
ROOT
ATOM      1  C   LIG    1       24.154  30.781  58.296  0.00  0.00    +0.045 C 
ATOM      2  C   LIG    1       23.566  30.903  56.913  0.00  0.00    -0.032 A 
ATOM      3  C   LIG    1       24.371  31.080  55.818  0.00  0.00    -0.021 A 
ATOM      4  C   LIG    1       23.805  31.195  54.555  0.00  0.00    +0.117 A 
ATOM      5  N   LIG    1       22.505  31.125  54.370  0.00  0.00    -0.235 NA
ATOM      6  C   LIG    1       21.670  30.954  55.394  0.00  0.00    +0.167 A 
ATOM      7  N   LIG    1       20.342  30.887  55.217  0.00  0.00    -0.195 NA
ATOM      8  C   LIG    1       19.537  30.715  56.249  0.00  0.00    +0.216 A 
ATOM      9  N   LIG    1       19.979  30.600  57.498  0.00  0.00    -0.199 NA
ATOM     10  C   LIG    1       21.272  30.653  57.778  0.00  0.00    +0.131 A 
ATOM     11  C   LIG    1       22.184  30.836  56.709  0.00  0.00    +0.062 A 
ENDROOT
BRANCH   8  12
ATOM     12  N   LIG    1       18.176  30.651  56.020  0.00  0.00    -0.327 N 
ATOM     13  H   LIG    1       17.558  30.652  56.768  0.00  0.00    +0.145 HD
ATOM     14  H   LIG    1       17.838  30.607  55.112  0.00  0.00    +0.145 HD
ENDBRANCH   8  12
BRANCH  10  15
ATOM     15  N   LIG    1       21.719  30.532  59.075  0.00  0.00    -0.342 N 
ATOM     16  H   LIG    1       21.638  29.685  59.540  0.00  0.00    +0.144 HD
ATOM     17  H   LIG    1       22.118  31.295  59.524  0.00  0.00    +0.144 HD
ENDBRANCH  10  15
BRANCH   3  18
ATOM     18  C   LIG    1       25.867  31.159  55.986  0.00  0.00    +0.075 C 
BRANCH  18  19
ATOM     19  C   LIG    1       26.331  32.565  55.704  0.00  0.00    +0.002 A 
ATOM     20  C   LIG    1       25.700  33.634  56.310  0.00  0.00    +0.053 A 
ATOM     21  C   LIG    1       26.127  34.929  56.051  0.00  0.00    +0.121 A 
ATOM     22  C   LIG    1       27.182  35.149  55.179  0.00  0.00    +0.049 A 
ATOM     23  C   LIG    1       27.817  34.080  54.578  0.00  0.00    +0.049 A 
ATOM     24  C   LIG    1       27.390  32.785  54.837  0.00  0.00    +0.124 A 
BRANCH  21  25
ATOM     25  O   LIG    1       25.505  35.981  56.647  0.00  0.00    -0.495 OA
ATOM     26  C   LIG    1       25.706  37.269  56.061  0.00  0.00    +0.277 C 
ENDBRANCH  21  25
BRANCH  24  27
ATOM     27  O   LIG    1       28.012  31.733  54.242  0.00  0.00    -0.495 OA
ATOM     28  C   LIG    1       29.054  31.092  54.980  0.00  0.00    +0.277 C 
ENDBRANCH  24  27
ENDBRANCH  18  19
ENDBRANCH   3  18
TORSDOF 6
