REMARK VINA RESULT:      -5.2      2.267      3.892
REMARK  Name = ZINC00000934
REMARK                            x       y       z     vdW  Elec       q    Type
REMARK                         _______ _______ _______ _____ _____    ______ ____
ROOT
ATOM      1  C   LIG    1       25.315  31.881  55.719  0.00  0.00    +0.123 C 
ATOM      2  N   LIG    1       24.178  32.159  55.114  0.00  0.00    -0.301 NA
ATOM      3  H   LIG    1       24.192  32.568  54.235  0.00  0.00    +0.123 HD
ATOM      4  C   LIG    1       23.015  31.888  55.689  0.00  0.00    +0.090 C 
ATOM      5  C   LIG    1       23.002  31.305  56.941  0.00  0.00    +0.048 C 
ATOM      6  C   LIG    1       24.224  31.023  57.554  0.00  0.00    +0.125 C 
ATOM      7  N   LIG    1       25.350  31.321  56.911  0.00  0.00    -0.286 NA
ATOM      8  H   LIG    1       25.872  31.954  57.515  0.00  0.00    +0.125 HD
ENDROOT
BRANCH   6   9
ATOM      9  N   LIG    1       24.264  30.439  58.809  0.00  0.00    -0.315 NA
ATOM     10  H   LIG    1       23.456  30.383  59.344  0.00  0.00    +0.120 HD
ATOM     11  H   LIG    1       25.099  30.086  59.154  0.00  0.00    +0.120 HD
ENDBRANCH   6   9
BRANCH   1  12
ATOM     12  C   LIG    1       26.613  32.207  55.025  0.00  0.00    +0.034 C 
BRANCH  12  14
ATOM     13  C   LIG    1       27.300  34.609  54.987  0.00  0.00    +0.004 C 
ATOM     14  C   LIG    1       27.340  33.311  55.796  0.00  0.00    -0.001 C 
ENDBRANCH  12  14
ENDBRANCH   1  12
BRANCH   5  15
ATOM     15  C   LIG    1       21.700  30.982  57.629  0.00  0.00    +0.092 C 
BRANCH  15  16
ATOM     16  N   LIG    1       21.022  29.902  56.907  0.00  0.00    -0.299 NA
ATOM     17  C   LIG    1       21.554  28.695  56.908  0.00  0.00    +0.084 C 
ATOM     18  C   LIG    1       20.943  27.652  56.239  0.00  0.00    +0.015 C 
ATOM     19  C   LIG    1       19.755  27.888  55.560  0.00  0.00    +0.003 C 
ATOM     20  C   LIG    1       19.227  29.170  55.582  0.00  0.00    +0.018 C 
ATOM     21  C   LIG    1       19.893  30.161  56.277  0.00  0.00    +0.054 C 
ATOM     22  C   LIG    1       19.324  31.557  56.311  0.00  0.00    +0.024 C 
ENDBRANCH  15  16
ENDBRANCH   5  15
TORSDOF 5
