REMARK VINA RESULT:      -5.2      1.846      2.996
REMARK  Name = ZINC00000934
REMARK                            x       y       z     vdW  Elec       q    Type
REMARK                         _______ _______ _______ _____ _____    ______ ____
ROOT
ATOM      1  C   LIG    1       25.953  31.924  55.179  0.00  0.00    +0.123 C 
ATOM      2  N   LIG    1       24.884  31.838  54.412  0.00  0.00    -0.301 NA
ATOM      3  H   LIG    1       24.942  32.100  53.481  0.00  0.00    +0.123 HD
ATOM      4  C   LIG    1       23.732  31.395  54.895  0.00  0.00    +0.090 C 
ATOM      5  C   LIG    1       23.656  31.020  56.222  0.00  0.00    +0.048 C 
ATOM      6  C   LIG    1       24.807  31.124  57.007  0.00  0.00    +0.125 C 
ATOM      7  N   LIG    1       25.927  31.574  56.449  0.00  0.00    -0.286 NA
ATOM      8  H   LIG    1       26.210  32.394  56.983  0.00  0.00    +0.125 HD
ENDROOT
BRANCH   6   9
ATOM      9  N   LIG    1       24.782  30.762  58.343  0.00  0.00    -0.315 NA
ATOM     10  H   LIG    1       25.266  31.289  58.998  0.00  0.00    +0.120 HD
ATOM     11  H   LIG    1       24.280  29.981  58.625  0.00  0.00    +0.120 HD
ENDBRANCH   6   9
BRANCH   1  12
ATOM     12  C   LIG    1       27.241  32.433  54.585  0.00  0.00    +0.034 C 
BRANCH  12  14
ATOM     13  C   LIG    1       27.051  34.832  55.256  0.00  0.00    +0.004 C 
ATOM     14  C   LIG    1       27.819  33.529  55.483  0.00  0.00    -0.001 C 
ENDBRANCH  12  14
ENDBRANCH   1  12
BRANCH   5  15
ATOM     15  C   LIG    1       22.364  30.513  56.809  0.00  0.00    +0.092 C 
BRANCH  15  16
ATOM     16  N   LIG    1       21.334  31.548  56.690  0.00  0.00    -0.299 NA
ATOM     17  C   LIG    1       21.530  32.718  57.266  0.00  0.00    +0.084 C 
ATOM     18  C   LIG    1       20.581  33.718  57.175  0.00  0.00    +0.015 C 
ATOM     19  C   LIG    1       19.412  33.479  56.469  0.00  0.00    +0.003 C 
ATOM     20  C   LIG    1       19.242  32.236  55.878  0.00  0.00    +0.018 C 
ATOM     21  C   LIG    1       20.237  31.286  56.008  0.00  0.00    +0.054 C 
ATOM     22  C   LIG    1       20.064  29.933  55.364  0.00  0.00    +0.024 C 
ENDBRANCH  15  16
ENDBRANCH   5  15
TORSDOF 5
