REMARK VINA RESULT:      -5.2      1.953      2.693
REMARK  Name = ZINC00000934
REMARK                            x       y       z     vdW  Elec       q    Type
REMARK                         _______ _______ _______ _____ _____    ______ ____
ROOT
ATOM      1  C   LIG    1       26.113  31.801  55.531  0.00  0.00    +0.123 C 
ATOM      2  N   LIG    1       25.872  31.618  56.814  0.00  0.00    -0.301 NA
ATOM      3  H   LIG    1       26.587  31.745  57.457  0.00  0.00    +0.123 HD
ATOM      4  C   LIG    1       24.667  31.265  57.239  0.00  0.00    +0.090 C 
ATOM      5  C   LIG    1       23.654  31.087  56.317  0.00  0.00    +0.048 C 
ATOM      6  C   LIG    1       23.943  31.289  54.967  0.00  0.00    +0.125 C 
ATOM      7  N   LIG    1       25.176  31.646  54.619  0.00  0.00    -0.286 NA
ATOM      8  H   LIG    1       25.514  30.936  53.971  0.00  0.00    +0.125 HD
ENDROOT
BRANCH   6   9
ATOM      9  N   LIG    1       22.961  31.122  54.004  0.00  0.00    -0.315 NA
ATOM     10  H   LIG    1       23.207  30.909  53.091  0.00  0.00    +0.120 HD
ATOM     11  H   LIG    1       22.025  31.218  54.243  0.00  0.00    +0.120 HD
ENDBRANCH   6   9
BRANCH   1  12
ATOM     12  C   LIG    1       27.499  32.203  55.096  0.00  0.00    +0.034 C 
BRANCH  12  14
ATOM     13  C   LIG    1       27.226  34.686  55.109  0.00  0.00    +0.004 C 
ATOM     14  C   LIG    1       27.416  33.455  54.221  0.00  0.00    -0.001 C 
ENDBRANCH  12  14
ENDBRANCH   1  12
BRANCH   5  15
ATOM     15  C   LIG    1       22.270  30.685  56.760  0.00  0.00    +0.092 C 
BRANCH  15  16
ATOM     16  N   LIG    1       21.345  31.801  56.547  0.00  0.00    -0.299 NA
ATOM     17  C   LIG    1       21.722  33.020  56.882  0.00  0.00    +0.084 C 
ATOM     18  C   LIG    1       20.877  34.097  56.695  0.00  0.00    +0.015 C 
ATOM     19  C   LIG    1       19.619  33.883  56.149  0.00  0.00    +0.003 C 
ATOM     20  C   LIG    1       19.260  32.588  55.810  0.00  0.00    +0.018 C 
ATOM     21  C   LIG    1       20.160  31.561  56.022  0.00  0.00    +0.054 C 
ATOM     22  C   LIG    1       19.780  30.149  55.653  0.00  0.00    +0.024 C 
ENDBRANCH  15  16
ENDBRANCH   5  15
TORSDOF 5
