REMARK VINA RESULT:      -5.0      2.109      2.932
REMARK  Name = ZINC00000934
REMARK                            x       y       z     vdW  Elec       q    Type
REMARK                         _______ _______ _______ _____ _____    ______ ____
ROOT
ATOM      1  C   LIG    1       25.393  32.166  55.717  0.00  0.00    +0.123 C 
ATOM      2  N   LIG    1       25.350  31.550  56.882  0.00  0.00    -0.301 NA
ATOM      3  H   LIG    1       26.035  31.729  57.543  0.00  0.00    +0.123 HD
ATOM      4  C   LIG    1       24.381  30.690  57.163  0.00  0.00    +0.090 C 
ATOM      5  C   LIG    1       23.406  30.441  56.217  0.00  0.00    +0.048 C 
ATOM      6  C   LIG    1       23.481  31.110  54.994  0.00  0.00    +0.125 C 
ATOM      7  N   LIG    1       24.483  31.962  54.788  0.00  0.00    -0.286 NA
ATOM      8  H   LIG    1       24.979  31.633  53.961  0.00  0.00    +0.125 HD
ENDROOT
BRANCH   6   9
ATOM      9  N   LIG    1       22.528  30.893  54.013  0.00  0.00    -0.315 NA
ATOM     10  H   LIG    1       21.785  30.293  54.182  0.00  0.00    +0.120 HD
ATOM     11  H   LIG    1       22.603  31.342  53.156  0.00  0.00    +0.120 HD
ENDBRANCH   6   9
BRANCH   1  12
ATOM     12  C   LIG    1       26.515  33.135  55.443  0.00  0.00    +0.034 C 
BRANCH  12  14
ATOM     13  C   LIG    1       28.667  31.891  55.197  0.00  0.00    +0.004 C 
ATOM     14  C   LIG    1       27.492  32.515  54.443  0.00  0.00    -0.001 C 
ENDBRANCH  12  14
ENDBRANCH   1  12
BRANCH   5  15
ATOM     15  C   LIG    1       22.288  29.470  56.499  0.00  0.00    +0.092 C 
BRANCH  15  16
ATOM     16  N   LIG    1       21.039  30.208  56.702  0.00  0.00    -0.299 NA
ATOM     17  C   LIG    1       21.043  31.278  57.474  0.00  0.00    +0.084 C 
ATOM     18  C   LIG    1       19.885  32.000  57.688  0.00  0.00    +0.015 C 
ATOM     19  C   LIG    1       18.708  31.586  57.080  0.00  0.00    +0.003 C 
ATOM     20  C   LIG    1       18.743  30.457  56.276  0.00  0.00    +0.018 C 
ATOM     21  C   LIG    1       19.941  29.789  56.105  0.00  0.00    +0.054 C 
ATOM     22  C   LIG    1       19.991  28.563  55.229  0.00  0.00    +0.024 C 
ENDBRANCH  15  16
ENDBRANCH   5  15
TORSDOF 5
