REMARK VINA RESULT:      -5.4      0.000      0.000
REMARK  Name = ZINC00000934
REMARK                            x       y       z     vdW  Elec       q    Type
REMARK                         _______ _______ _______ _____ _____    ______ ____
ROOT
ATOM      1  C   LIG    1       25.821  32.058  55.053  0.00  0.00    +0.123 C 
ATOM      2  N   LIG    1       26.057  31.684  56.294  0.00  0.00    -0.301 NA
ATOM      3  H   LIG    1       26.951  31.771  56.657  0.00  0.00    +0.123 HD
ATOM      4  C   LIG    1       25.089  31.192  57.055  0.00  0.00    +0.090 C 
ATOM      5  C   LIG    1       23.816  31.072  56.531  0.00  0.00    +0.048 C 
ATOM      6  C   LIG    1       23.600  31.478  55.213  0.00  0.00    +0.125 C 
ATOM      7  N   LIG    1       24.622  31.966  54.515  0.00  0.00    -0.286 NA
ATOM      8  H   LIG    1       24.718  31.377  53.688  0.00  0.00    +0.125 HD
ENDROOT
BRANCH   6   9
ATOM      9  N   LIG    1       22.342  31.377  54.643  0.00  0.00    -0.315 NA
ATOM     10  H   LIG    1       21.754  30.645  54.890  0.00  0.00    +0.120 HD
ATOM     11  H   LIG    1       22.047  32.037  53.996  0.00  0.00    +0.120 HD
ENDBRANCH   6   9
BRANCH   1  12
ATOM     12  C   LIG    1       26.953  32.612  54.227  0.00  0.00    +0.034 C 
BRANCH  12  14
ATOM     13  C   LIG    1       27.127  34.926  55.152  0.00  0.00    +0.004 C 
ATOM     14  C   LIG    1       27.799  33.553  55.087  0.00  0.00    -0.001 C 
ENDBRANCH  12  14
ENDBRANCH   1  12
BRANCH   5  15
ATOM     15  C   LIG    1       22.689  30.516  57.364  0.00  0.00    +0.092 C 
BRANCH  15  16
ATOM     16  N   LIG    1       22.403  31.431  58.471  0.00  0.00    -0.299 NA
ATOM     17  C   LIG    1       21.872  32.611  58.210  0.00  0.00    +0.084 C 
ATOM     18  C   LIG    1       21.589  33.500  59.229  0.00  0.00    +0.015 C 
ATOM     19  C   LIG    1       21.870  33.139  60.539  0.00  0.00    +0.003 C 
ATOM     20  C   LIG    1       22.428  31.891  60.774  0.00  0.00    +0.018 C 
ATOM     21  C   LIG    1       22.679  31.053  59.704  0.00  0.00    +0.054 C 
ATOM     22  C   LIG    1       23.281  29.693  59.948  0.00  0.00    +0.024 C 
ENDBRANCH  15  16
ENDBRANCH   5  15
TORSDOF 5
