MODEL 1
REMARK VINA RESULT:      -6.0      0.000      0.000
REMARK  Name = ZINC00000596
REMARK                            x       y       z     vdW  Elec       q    Type
REMARK                         _______ _______ _______ _____ _____    ______ ____
ROOT
ATOM      1  C   LIG    1       20.356  31.543  56.164  0.00  0.00    +0.007 C 
ATOM      2  C   LIG    1       21.661  31.286  55.408  0.00  0.00    -0.017 C 
ATOM      3  C   LIG    1       22.778  32.146  56.000  0.00  0.00    -0.060 C 
ATOM      4  N   LIG    1       24.063  31.897  55.315  0.00  0.00    +0.384 N 
ATOM      5  H   LIG    1       23.956  32.134  54.322  0.00  0.00    -0.081 HD
ATOM      6  C   LIG    1       24.452  30.469  55.422  0.00  0.00    -0.077 C 
ATOM      7  C   LIG    1       23.369  29.603  54.770  0.00  0.00    -0.007 C 
ATOM      8  C   LIG    1       22.837  31.952  57.506  0.00  0.00    +0.020 C 
ATOM      9  C   LIG    1       22.731  30.501  57.892  0.00  0.00    -0.045 A 
ATOM     10  C   LIG    1       23.010  30.164  59.212  0.00  0.00    +0.007 A 
ATOM     11  C   LIG    1       22.902  28.860  59.642  0.00  0.00    +0.045 A 
ATOM     12  C   LIG    1       22.510  27.870  58.752  0.00  0.00    +0.117 A 
ATOM     13  C   LIG    1       22.240  28.203  57.435  0.00  0.00    +0.049 A 
ATOM     14  C   LIG    1       22.356  29.517  57.006  0.00  0.00    -0.035 A 
ATOM     15  C   LIG    1       22.062  29.814  55.555  0.00  0.00    -0.007 C 
ATOM     16  C   LIG    1       20.958  28.901  55.019  0.00  0.00    +0.016 C 
ENDROOT
BRANCH  12  17
ATOM     17  O   LIG    1       22.394  26.582  59.169  0.00  0.00    -0.507 OA
ATOM     18  H   LIG    1       21.726  26.449  59.855  0.00  0.00    +0.292 HD
ENDBRANCH  12  17
BRANCH   4  19
ATOM     19  C   LIG    1       25.110  32.748  55.896  0.00  0.00    -0.051 C 
BRANCH  19  20
ATOM     20  C   LIG    1       26.433  32.037  55.778  0.00  0.00    -0.047 C 
ATOM     21  C   LIG    1       27.480  32.672  55.315  0.00  0.00    -0.081 C 
ATOM     22  C   LIG    1       28.831  32.004  55.321  0.00  0.00    +0.038 C 
ATOM     23  C   LIG    1       27.334  34.071  54.775  0.00  0.00    +0.038 C 
ENDBRANCH  19  20
ENDBRANCH   4  19
TORSDOF 3
ENDMDL
MODEL 2
REMARK VINA RESULT:      -5.9      1.451      2.140
REMARK  Name = ZINC00000596
REMARK                            x       y       z     vdW  Elec       q    Type
REMARK                         _______ _______ _______ _____ _____    ______ ____
ROOT
ATOM      1  C   LIG    1       21.183  31.953  58.349  0.00  0.00    +0.007 C 
ATOM      2  C   LIG    1       21.743  32.089  56.932  0.00  0.00    -0.017 C 
ATOM      3  C   LIG    1       23.246  31.806  56.941  0.00  0.00    -0.060 C 
ATOM      4  N   LIG    1       23.813  31.895  55.580  0.00  0.00    +0.384 N 
ATOM      5  H   LIG    1       23.661  32.845  55.222  0.00  0.00    -0.081 HD
ATOM      6  C   LIG    1       23.151  30.932  54.665  0.00  0.00    -0.077 C 
ATOM      7  C   LIG    1       21.654  31.252  54.597  0.00  0.00    -0.007 C 
ATOM      8  C   LIG    1       23.517  30.481  57.634  0.00  0.00    +0.020 C 
ATOM      9  C   LIG    1       22.560  29.407  57.193  0.00  0.00    -0.045 A 
ATOM     10  C   LIG    1       22.845  28.098  57.565  0.00  0.00    +0.007 A 
ATOM     11  C   LIG    1       21.994  27.069  57.223  0.00  0.00    +0.045 A 
ATOM     12  C   LIG    1       20.841  27.338  56.499  0.00  0.00    +0.117 A 
ATOM     13  C   LIG    1       20.560  28.641  56.121  0.00  0.00    +0.049 A 
ATOM     14  C   LIG    1       21.423  29.672  56.463  0.00  0.00    -0.035 A 
ATOM     15  C   LIG    1       21.069  31.068  56.009  0.00  0.00    -0.007 C 
ATOM     16  C   LIG    1       19.553  31.275  55.996  0.00  0.00    +0.016 C 
ENDROOT
BRANCH  12  17
ATOM     17  O   LIG    1       19.993  26.331  56.163  0.00  0.00    -0.507 OA
ATOM     18  H   LIG    1       19.214  26.265  56.732  0.00  0.00    +0.292 HD
ENDBRANCH  12  17
BRANCH   4  19
ATOM     19  C   LIG    1       25.258  31.632  55.625  0.00  0.00    -0.051 C 
BRANCH  19  20
ATOM     20  C   LIG    1       25.983  32.939  55.819  0.00  0.00    -0.047 C 
ATOM     21  C   LIG    1       26.816  33.368  54.904  0.00  0.00    -0.081 C 
ATOM     22  C   LIG    1       27.439  34.734  55.035  0.00  0.00    +0.038 C 
ATOM     23  C   LIG    1       27.152  32.496  53.722  0.00  0.00    +0.038 C 
ENDBRANCH  19  20
ENDBRANCH   4  19
TORSDOF 3
ENDMDL
MODEL 3
REMARK VINA RESULT:      -5.8      1.771      3.395
REMARK  Name = ZINC00000596
REMARK                            x       y       z     vdW  Elec       q    Type
REMARK                         _______ _______ _______ _____ _____    ______ ____
ROOT
ATOM      1  C   LIG    1       23.026  29.352  59.443  0.00  0.00    +0.007 C 
ATOM      2  C   LIG    1       23.255  30.683  58.725  0.00  0.00    -0.017 C 
ATOM      3  C   LIG    1       24.234  30.483  57.567  0.00  0.00    -0.060 C 
ATOM      4  N   LIG    1       24.451  31.744  56.829  0.00  0.00    +0.384 N 
ATOM      5  H   LIG    1       24.845  32.438  57.475  0.00  0.00    -0.081 HD
ATOM      6  C   LIG    1       23.173  32.269  56.288  0.00  0.00    -0.077 C 
ATOM      7  C   LIG    1       22.210  32.538  57.449  0.00  0.00    -0.007 C 
ATOM      8  C   LIG    1       23.769  29.331  56.692  0.00  0.00    +0.020 C 
ATOM      9  C   LIG    1       22.291  29.393  56.415  0.00  0.00    -0.045 A 
ATOM     10  C   LIG    1       21.782  28.544  55.438  0.00  0.00    +0.007 A 
ATOM     11  C   LIG    1       20.434  28.525  55.156  0.00  0.00    +0.045 A 
ATOM     12  C   LIG    1       19.572  29.362  55.851  0.00  0.00    +0.117 A 
ATOM     13  C   LIG    1       20.078  30.214  56.818  0.00  0.00    +0.049 A 
ATOM     14  C   LIG    1       21.438  30.233  57.094  0.00  0.00    -0.035 A 
ATOM     15  C   LIG    1       21.931  31.195  58.149  0.00  0.00    -0.007 C 
ATOM     16  C   LIG    1       20.894  31.371  59.260  0.00  0.00    +0.016 C 
ENDROOT
BRANCH  12  17
ATOM     17  O   LIG    1       18.239  29.345  55.584  0.00  0.00    -0.507 OA
ATOM     18  H   LIG    1       17.960  28.610  55.022  0.00  0.00    +0.292 HD
ENDBRANCH  12  17
BRANCH   4  19
ATOM     19  C   LIG    1       25.406  31.521  55.734  0.00  0.00    -0.051 C 
BRANCH  19  20
ATOM     20  C   LIG    1       25.987  32.849  55.320  0.00  0.00    -0.047 C 
ATOM     21  C   LIG    1       27.248  32.934  54.976  0.00  0.00    -0.081 C 
ATOM     22  C   LIG    1       27.796  34.230  54.437  0.00  0.00    +0.038 C 
ATOM     23  C   LIG    1       28.150  31.736  55.121  0.00  0.00    +0.038 C 
ENDBRANCH  19  20
ENDBRANCH   4  19
TORSDOF 3
ENDMDL
MODEL 4
REMARK VINA RESULT:      -5.4      2.767      4.233
REMARK  Name = ZINC00000596
REMARK                            x       y       z     vdW  Elec       q    Type
REMARK                         _______ _______ _______ _____ _____    ______ ____
ROOT
ATOM      1  C   LIG    1       20.491  28.036  55.979  0.00  0.00    +0.007 C 
ATOM      2  C   LIG    1       21.130  29.193  55.210  0.00  0.00    -0.017 C 
ATOM      3  C   LIG    1       20.277  30.452  55.369  0.00  0.00    -0.060 C 
ATOM      4  N   LIG    1       20.885  31.600  54.666  0.00  0.00    +0.384 N 
ATOM      5  H   LIG    1       20.954  31.374  53.667  0.00  0.00    -0.081 HD
ATOM      6  C   LIG    1       22.248  31.878  55.184  0.00  0.00    -0.077 C 
ATOM      7  C   LIG    1       23.129  30.644  54.965  0.00  0.00    -0.007 C 
ATOM      8  C   LIG    1       20.004  30.708  56.842  0.00  0.00    +0.020 C 
ATOM      9  C   LIG    1       21.240  30.535  57.683  0.00  0.00    -0.045 A 
ATOM     10  C   LIG    1       21.187  30.970  59.002  0.00  0.00    +0.007 A 
ATOM     11  C   LIG    1       22.271  30.813  59.838  0.00  0.00    +0.045 A 
ATOM     12  C   LIG    1       23.430  30.216  59.361  0.00  0.00    +0.117 A 
ATOM     13  C   LIG    1       23.487  29.790  58.045  0.00  0.00    +0.049 A 
ATOM     14  C   LIG    1       22.394  29.956  57.206  0.00  0.00    -0.035 A 
ATOM     15  C   LIG    1       22.523  29.484  55.777  0.00  0.00    -0.007 C 
ATOM     16  C   LIG    1       23.411  28.241  55.686  0.00  0.00    +0.016 C 
ENDROOT
BRANCH  12  17
ATOM     17  O   LIG    1       24.501  30.051  60.181  0.00  0.00    -0.507 OA
ATOM     18  H   LIG    1       25.250  30.626  59.971  0.00  0.00    +0.292 HD
ENDBRANCH  12  17
BRANCH   4  19
ATOM     19  C   LIG    1       20.036  32.789  54.825  0.00  0.00    -0.051 C 
BRANCH  19  20
ATOM     20  C   LIG    1       20.810  33.842  55.575  0.00  0.00    -0.047 C 
ATOM     21  C   LIG    1       20.226  34.538  56.518  0.00  0.00    -0.081 C 
ATOM     22  C   LIG    1       21.033  35.496  57.356  0.00  0.00    +0.038 C 
ATOM     23  C   LIG    1       18.748  34.381  56.765  0.00  0.00    +0.038 C 
ENDBRANCH  19  20
ENDBRANCH   4  19
TORSDOF 3
ENDMDL
MODEL 5
REMARK VINA RESULT:      -5.4      2.088      3.663
REMARK  Name = ZINC00000596
REMARK                            x       y       z     vdW  Elec       q    Type
REMARK                         _______ _______ _______ _____ _____    ______ ____
ROOT
ATOM      1  C   LIG    1       21.313  28.545  55.196  0.00  0.00    +0.007 C 
ATOM      2  C   LIG    1       22.340  29.235  56.096  0.00  0.00    -0.017 C 
ATOM      3  C   LIG    1       23.147  30.244  55.280  0.00  0.00    -0.060 C 
ATOM      4  N   LIG    1       24.127  30.955  56.128  0.00  0.00    +0.384 N 
ATOM      5  H   LIG    1       24.773  30.265  56.530  0.00  0.00    -0.081 HD
ATOM      6  C   LIG    1       23.448  31.670  57.236  0.00  0.00    -0.077 C 
ATOM      7  C   LIG    1       22.692  30.656  58.101  0.00  0.00    -0.007 C 
ATOM      8  C   LIG    1       22.206  31.168  54.524  0.00  0.00    +0.020 C 
ATOM      9  C   LIG    1       21.071  31.647  55.388  0.00  0.00    -0.045 A 
ATOM     10  C   LIG    1       20.278  32.678  54.897  0.00  0.00    +0.007 A 
ATOM     11  C   LIG    1       19.202  33.144  55.621  0.00  0.00    +0.045 A 
ATOM     12  C   LIG    1       18.905  32.580  56.854  0.00  0.00    +0.117 A 
ATOM     13  C   LIG    1       19.698  31.559  57.348  0.00  0.00    +0.049 A 
ATOM     14  C   LIG    1       20.784  31.098  56.618  0.00  0.00    -0.035 A 
ATOM     15  C   LIG    1       21.620  29.992  57.217  0.00  0.00    -0.007 C 
ATOM     16  C   LIG    1       20.757  29.036  58.043  0.00  0.00    +0.016 C 
ENDROOT
BRANCH  12  17
ATOM     17  O   LIG    1       17.841  33.029  57.572  0.00  0.00    -0.507 OA
ATOM     18  H   LIG    1       17.082  33.287  57.032  0.00  0.00    +0.292 HD
ENDBRANCH  12  17
BRANCH   4  19
ATOM     19  C   LIG    1       24.895  31.905  55.312  0.00  0.00    -0.051 C 
BRANCH  19  20
ATOM     20  C   LIG    1       26.346  31.503  55.336  0.00  0.00    -0.047 C 
ATOM     21  C   LIG    1       27.282  32.418  55.281  0.00  0.00    -0.081 C 
ATOM     22  C   LIG    1       28.729  32.027  55.438  0.00  0.00    +0.038 C 
ATOM     23  C   LIG    1       26.911  33.861  55.059  0.00  0.00    +0.038 C 
ENDBRANCH  19  20
ENDBRANCH   4  19
TORSDOF 3
ENDMDL
