REMARK  Name = ZINC00171737
REMARK                            x       y       z     vdW  Elec       q    Type
REMARK                         _______ _______ _______ _____ _____    ______ ____
ROOT
ATOM      1  C   LIG    1       -0.863   1.796   1.284  0.00  0.00    +0.067 C 
ATOM      2  C   LIG    1       -0.103   0.641   0.628  0.00  0.00    +0.041 C 
ATOM      3  C   LIG    1       -0.838   3.014   0.358  0.00  0.00    +0.046 C 
ATOM      4  C   LIG    1       -1.548   4.184   1.046  0.00  0.00    -0.001 C 
ATOM      5  C   LIG    1       -0.866   4.461   2.389  0.00  0.00    +0.039 C 
ATOM      6  C   LIG    1       -0.889   3.187   3.238  0.00  0.00    +0.161 C 
ATOM      7  O   LIG    1       -0.241   2.131   2.526  0.00  0.00    -0.374 OA
ENDROOT
BRANCH   4   8
ATOM      8  C   LIG    1       -1.463   5.411   0.175  0.00  0.00    -0.041 A 
ATOM      9  C   LIG    1       -0.714   5.382  -0.987  0.00  0.00    +0.008 A 
ATOM     10  C   LIG    1       -0.639   6.503  -1.790  0.00  0.00    +0.046 A 
ATOM     11  C   LIG    1       -1.307   7.663  -1.424  0.00  0.00    +0.120 A 
ATOM     12  C   LIG    1       -2.054   7.691  -0.255  0.00  0.00    +0.046 A 
ATOM     13  C   LIG    1       -2.130   6.565   0.542  0.00  0.00    +0.008 A 
BRANCH  11  14
ATOM     14  O   LIG    1       -1.231   8.769  -2.210  0.00  0.00    -0.495 OA
ATOM     15  C   LIG    1       -0.444   8.668  -3.398  0.00  0.00    +0.277 C 
ENDBRANCH  11  14
ENDBRANCH   4   8
BRANCH   1  17
ATOM     16  C   LIG    1       -2.397  -0.151   1.597  0.00  0.00    +0.007 C 
ATOM     17  C   LIG    1       -2.312   1.376   1.536  0.00  0.00    +0.031 C 
ENDBRANCH   1  17
BRANCH   4  18
ATOM     18  C   LIG    1       -3.016   3.825   1.282  0.00  0.00    -0.008 C 
BRANCH  18  19
ATOM     19  C   LIG    1       -3.720   3.643  -0.064  0.00  0.00    -0.086 C 
BRANCH  19  20
ATOM     20  N   LIG    1       -5.122   3.261   0.175  0.00  0.00    +0.378 N 
ATOM     21  H   LIG    1       -5.595   4.013   0.689  0.00  0.00    -0.090 HD
ATOM     22  H   LIG    1       -5.162   2.405   0.727  0.00  0.00    -0.090 HD
ATOM     23  H   LIG    1       -5.601   3.114  -0.713  0.00  0.00    -0.090 HD
ENDBRANCH  19  20
ENDBRANCH  18  19
ENDBRANCH   4  18
TORSDOF 6
