REMARK  Name = ZINC00087288
REMARK                            x       y       z     vdW  Elec       q    Type
REMARK                         _______ _______ _______ _____ _____    ______ ____
ROOT
ATOM      1  C   LIG    1        2.035  -3.732   2.384  0.00  0.00    +0.025 A 
ATOM      2  C   LIG    1        1.494  -4.461   1.329  0.00  0.00    +0.030 A 
ATOM      3  C   LIG    1        1.882  -5.746   1.094  0.00  0.00    +0.051 A 
ATOM      4 CL   LIG    1        1.194  -6.637  -0.228  0.00  0.00    -0.083 Cl
ATOM      5  C   LIG    1        2.842  -6.347   1.926  0.00  0.00    +0.022 A 
ATOM      6  C   LIG    1        3.269  -7.671   1.715  0.00  0.00    +0.013 A 
ATOM      7  C   LIG    1        4.205  -8.190   2.564  0.00  0.00    +0.020 A 
ATOM      8  C   LIG    1        4.709  -7.410   3.602  0.00  0.00    +0.111 A 
ATOM      9  N   LIG    1        4.309  -6.177   3.796  0.00  0.00    -0.251 NA
ATOM     10  C   LIG    1        3.396  -5.610   3.002  0.00  0.00    +0.114 A 
ATOM     11  C   LIG    1        2.973  -4.281   3.211  0.00  0.00    +0.148 A 
ENDROOT
BRANCH  11  12
ATOM     12  O   LIG    1        3.494  -3.552   4.232  0.00  0.00    -0.504 OA
ATOM     13  H   LIG    1        3.211  -2.669   4.369  0.00  0.00    +0.292 HD
ENDBRANCH  11  12
BRANCH   1  14
ATOM     14  C   LIG    1        1.583  -2.313   2.615  0.00  0.00    +0.173 C 
BRANCH  14  15
ATOM     15  C   LIG    1        0.511  -2.293   3.674  0.00  0.00    +0.130 A 
ATOM     16  C   LIG    1        0.689  -1.972   4.968  0.00  0.00    +0.047 A 
ATOM     17  C   LIG    1       -0.573  -2.085   5.596  0.00  0.00    +0.041 A 
ATOM     18  C   LIG    1       -1.447  -2.468   4.648  0.00  0.00    +0.195 A 
ATOM     19  O   LIG    1       -0.786  -2.587   3.484  0.00  0.00    -0.466 OA
ENDBRANCH  14  15
BRANCH  14  21
ATOM     20  C   LIG    1        1.881  -1.224   0.455  0.00  0.00    +0.214 C 
ATOM     21  N   LIG    1        1.047  -1.763   1.367  0.00  0.00    -0.301 N 
ATOM     22  H   LIG    1        0.092  -1.786   1.197  0.00  0.00    +0.150 HD
ATOM     23  O   LIG    1        3.074  -1.195   0.667  0.00  0.00    -0.276 OA
BRANCH  20  25
ATOM     24  C   LIG    1        2.478  -0.114  -1.680  0.00  0.00    +0.013 C 
ATOM     25  C   LIG    1        1.329  -0.658  -0.828  0.00  0.00    +0.092 C 
ENDBRANCH  20  25
ENDBRANCH  14  21
ENDBRANCH   1  14
TORSDOF 5
