REMARK  Name = ZINC00114311
REMARK                            x       y       z     vdW  Elec       q    Type
REMARK                         _______ _______ _______ _____ _____    ______ ____
ROOT
ATOM      1  C   LIG    1        6.032   2.110  -0.045  0.00  0.00    +0.245 C 
ENDROOT
BRANCH   1   2
ATOM      2  C   LIG    1        4.603   1.632  -0.034  0.00  0.00    +0.193 A 
ATOM      3  N   LIG    1        3.508   2.408  -0.019  0.00  0.00    -0.187 NA
ATOM      4  C   LIG    1        2.482   1.574  -0.014  0.00  0.00    +0.296 A 
ATOM      5  O   LIG    1        2.996   0.333  -0.020  0.00  0.00    -0.329 OA
ATOM      6  N   LIG    1        4.207   0.393  -0.037  0.00  0.00    -0.059 NA
BRANCH   4   7
ATOM      7  C   LIG    1        1.054   1.935   0.002  0.00  0.00    +0.224 A 
ATOM      8  C   LIG    1       -0.013   1.076   0.008  0.00  0.00    +0.077 A 
ATOM      9  C   LIG    1       -1.135   1.931   0.017  0.00  0.00    +0.157 A 
ATOM     10  N   LIG    1       -0.675   3.149   0.025  0.00  0.00    -0.086 NA
ATOM     11  O   LIG    1        0.533   3.176   0.014  0.00  0.00    -0.350 OA
ENDBRANCH   4   7
ENDBRANCH   1   2
BRANCH   1  12
ATOM     12  S   LIG    1        6.621   2.291   1.661  0.00  0.00    -0.017 S 
ATOM     13  O   LIG    1        6.654   1.005   2.265  0.00  0.00    -0.174 OA
ATOM     14  O   LIG    1        5.877   3.329   2.286  0.00  0.00    -0.174 OA
BRANCH  12  15
ATOM     15  C   LIG    1        8.328   2.864   1.437  0.00  0.00    +0.240 C 
BRANCH  15  18
ATOM     16  C   LIG    1       10.078   2.753   4.678  0.00  0.00    +0.041 A 
ATOM     17  C   LIG    1        9.652   2.138   3.479  0.00  0.00    +0.046 A 
ATOM     18  C   LIG    1        8.971   3.067   2.785  0.00  0.00    +0.126 A 
ATOM     19  O   LIG    1        8.966   4.207   3.494  0.00  0.00    -0.466 OA
ATOM     20  C   LIG    1        9.630   4.021   4.646  0.00  0.00    +0.195 A 
ENDBRANCH  15  18
ENDBRANCH  12  15
ENDBRANCH   1  12
TORSDOF 5
