REMARK  Name = ZINC00116937
REMARK                            x       y       z     vdW  Elec       q    Type
REMARK                         _______ _______ _______ _____ _____    ______ ____
ROOT
ATOM      1  C   LIG    1        0.053  -0.611  -1.444  0.00  0.00    +0.162 A 
ATOM      2  C   LIG    1        0.784   0.155  -2.308  0.00  0.00    +0.062 A 
ATOM      3  C   LIG    1        1.600  -0.464  -3.262  0.00  0.00    +0.044 A 
ATOM      4  C   LIG    1        1.664  -1.878  -3.326  0.00  0.00    +0.080 A 
ATOM      5  N   LIG    1        2.455  -2.447  -4.250  0.00  0.00    -0.235 NA
ATOM      6  C   LIG    1        3.154  -1.704  -5.075  0.00  0.00    +0.223 A 
ATOM      7  N   LIG    1        3.126  -0.381  -5.051  0.00  0.00    -0.220 NA
ATOM      8  C   LIG    1        0.906  -2.643  -2.432  0.00  0.00    +0.078 A 
ATOM      9  C   LIG    1        2.378   0.282  -4.179  0.00  0.00    +0.134 A 
ATOM     10  C   LIG    1        0.115  -2.010  -1.499  0.00  0.00    +0.164 A 
ENDROOT
BRANCH   1  12
ATOM     11  C   LIG    1       -0.761   1.421  -0.512  0.00  0.00    +0.277 C 
ATOM     12  O   LIG    1       -0.740  -0.008  -0.518  0.00  0.00    -0.491 OA
ENDBRANCH   1  12
BRANCH   9  13
ATOM     13  N   LIG    1        2.359   1.662  -4.166  0.00  0.00    -0.299 N 
ATOM     14  H   LIG    1        1.874   2.134  -3.471  0.00  0.00    +0.154 HD
BRANCH  13  15
ATOM     15  C   LIG    1        3.038   2.380  -5.155  0.00  0.00    +0.034 A 
ATOM     16  C   LIG    1        3.659   3.582  -4.840  0.00  0.00    +0.023 A 
ATOM     17  C   LIG    1        4.329   4.289  -5.818  0.00  0.00    +0.003 A 
ATOM     18  C   LIG    1        4.383   3.802  -7.111  0.00  0.00    +0.020 A 
ATOM     19  C   LIG    1        3.765   2.605  -7.429  0.00  0.00    +0.043 A 
ATOM     20 CL   LIG    1        3.835   1.998  -9.054  0.00  0.00    -0.083 Cl
ATOM     21  C   LIG    1        3.098   1.890  -6.453  0.00  0.00    +0.043 A 
ENDBRANCH  13  15
ENDBRANCH   9  13
BRANCH  10  22
ATOM     22  O   LIG    1       -0.617  -2.750  -0.625  0.00  0.00    -0.491 OA
ATOM     23  C   LIG    1       -0.511  -4.171  -0.731  0.00  0.00    +0.277 C 
ENDBRANCH  10  22
TORSDOF 4
