REMARK  Name = ZINC00154720
REMARK                            x       y       z     vdW  Elec       q    Type
REMARK                         _______ _______ _______ _____ _____    ______ ____
ROOT
ATOM      1  S   LIG    1        0.063  -4.530  -0.023  0.00  0.00    +0.071 S 
ATOM      2  O   LIG    1       -0.490  -4.937  -1.267  0.00  0.00    -0.152 OA
ATOM      3  O   LIG    1       -0.476  -4.950   1.223  0.00  0.00    -0.152 OA
ENDROOT
BRANCH   1   8
ATOM      4  C   LIG    1       -0.018   1.503   0.010  0.00  0.00    +0.044 C 
ATOM      5  C   LIG    1        0.002  -0.004   0.002  0.00  0.00    -0.050 A 
ATOM      6  C   LIG    1        0.006  -0.689  -1.199  0.00  0.00    +0.005 A 
ATOM      7  C   LIG    1        0.025  -2.071  -1.206  0.00  0.00    +0.029 A 
ATOM      8  C   LIG    1        0.040  -2.768  -0.013  0.00  0.00    +0.107 A 
ATOM      9  C   LIG    1        0.037  -2.084   1.188  0.00  0.00    +0.029 A 
ATOM     10  C   LIG    1        0.023  -0.702   1.195  0.00  0.00    +0.005 A 
ENDBRANCH   1   8
BRANCH   1  11
ATOM     11  N   LIG    1        1.651  -4.999  -0.034  0.00  0.00    -0.127 NA
ATOM     12  H   LIG    1        1.993  -5.536  -0.767  0.00  0.00    +0.167 HD
BRANCH  11  13
ATOM     13  N   LIG    1        2.479  -4.631   0.988  0.00  0.00    -0.251 NA
ATOM     14  H   LIG    1        3.412  -4.989   0.844  0.00  0.00    +0.138 HD
ATOM     15  H   LIG    1        2.110  -4.931   1.878  0.00  0.00    +0.138 HD
ENDBRANCH  11  13
ENDBRANCH   1  11
TORSDOF 3
