REMARK  Name = ZINC00168475
REMARK                            x       y       z     vdW  Elec       q    Type
REMARK                         _______ _______ _______ _____ _____    ______ ____
ROOT
ATOM      1  C   LIG    1        0.731  -0.503   1.223  0.00  0.00    -0.001 A 
ATOM      2  C   LIG    1        2.051  -0.148   1.435  0.00  0.00    +0.007 A 
ATOM      3  C   LIG    1        2.724  -0.606   2.552  0.00  0.00    +0.002 A 
ATOM      4  C   LIG    1        2.079  -1.416   3.469  0.00  0.00    +0.027 A 
ATOM      5  C   LIG    1        0.755  -1.766   3.268  0.00  0.00    +0.077 A 
ATOM      6  N   LIG    1        0.084  -2.581   4.190  0.00  0.00    -0.281 N 
ATOM      7  C   LIG    1       -1.258  -2.713   4.097  0.00  0.00    +0.097 C 
ATOM      8  S   LIG    1       -2.030  -3.736   5.053  0.00  0.00    -0.036 S 
ATOM      9  C   LIG    1       -2.023  -1.900   3.083  0.00  0.00    +0.228 C 
ATOM     10  O   LIG    1       -1.211  -1.690   1.925  0.00  0.00    -0.480 OA
ATOM     11  C   LIG    1        0.079  -1.313   2.136  0.00  0.00    +0.146 A 
ENDROOT
BRANCH   1  13
ATOM     12  C   LIG    1       -0.019   1.526   0.010  0.00  0.00    +0.012 C 
ATOM     13  C   LIG    1        0.002  -0.004   0.002  0.00  0.00    +0.016 C 
ATOM     14  C   LIG    1        0.718  -0.497  -1.257  0.00  0.00    +0.012 C 
ENDBRANCH   1  13
BRANCH   9  15
ATOM     15  C   LIG    1       -2.399  -0.549   3.693  0.00  0.00    +0.030 C 
ATOM     16  C   LIG    1       -3.268  -0.773   4.932  0.00  0.00    +0.011 C 
ATOM     17  C   LIG    1       -3.178   0.275   2.666  0.00  0.00    +0.011 C 
ENDBRANCH   9  15
BRANCH   6  18
ATOM     18  C   LIG    1        0.826  -3.267   5.250  0.00  0.00    +0.231 C 
BRANCH  18  19
ATOM     19  C   LIG    1        0.895  -2.383   6.468  0.00  0.00    +0.323 C 
ATOM     20  O   LIG    1        0.373  -1.281   6.452  0.00  0.00    -0.249 OA
BRANCH  19  21
ATOM     21  O   LIG    1        1.474  -2.769   7.470  0.00  0.00    -0.480 OA
ATOM     22  H   LIG    1        1.875  -3.615   7.482  0.00  0.00    +0.295 HD
ENDBRANCH  19  21
ENDBRANCH  18  19
ENDBRANCH   6  18
TORSDOF 5
