REMARK  Name = ZINC00308176
REMARK                            x       y       z     vdW  Elec       q    Type
REMARK                         _______ _______ _______ _____ _____    ______ ____
ROOT
ATOM      1  C   LIG    1        0.023  -0.708   1.164  0.00  0.00    +0.041 A 
ATOM      2  C   LIG    1        0.002  -0.004   0.002  0.00  0.00    -0.030 A 
ATOM      3  C   LIG    1       -0.018   1.503   0.010  0.00  0.00    +0.045 C 
ATOM      4  C   LIG    1       -0.006  -0.749  -1.258  0.00  0.00    +0.021 A 
ATOM      5  C   LIG    1       -0.021  -0.083  -2.489  0.00  0.00    +0.015 A 
ATOM      6  C   LIG    1       -0.022  -0.802  -3.649  0.00  0.00    +0.046 A 
ATOM      7  C   LIG    1       -0.003  -2.195  -3.616  0.00  0.00    +0.120 A 
ATOM      8  C   LIG    1        0.017  -2.871  -2.407  0.00  0.00    +0.092 A 
ATOM      9  C   LIG    1        0.019  -2.156  -1.219  0.00  0.00    +0.143 A 
ATOM     10  O   LIG    1        0.039  -2.795  -0.029  0.00  0.00    -0.422 OA
ATOM     11  C   LIG    1        0.041  -2.117   1.129  0.00  0.00    +0.341 A 
ATOM     12  O   LIG    1        0.059  -2.736   2.178  0.00  0.00    -0.245 OA
ENDROOT
BRANCH   7  13
ATOM     13  O   LIG    1       -0.004  -2.896  -4.779  0.00  0.00    -0.507 OA
ATOM     14  H   LIG    1       -0.888  -3.111  -5.108  0.00  0.00    +0.292 HD
ENDBRANCH   7  13
BRANCH   1  15
ATOM     15  C   LIG    1        0.025   0.016   2.486  0.00  0.00    +0.042 C 
BRANCH  15  17
ATOM     16  C   LIG    1       -1.413   0.976   4.289  0.00  0.00    +0.004 C 
ATOM     17  C   LIG    1       -1.416   0.241   2.947  0.00  0.00    +0.001 C 
ENDBRANCH  15  17
ENDBRANCH   1  15
TORSDOF 3
