REMARK  Name = ZINC00194813
REMARK                            x       y       z     vdW  Elec       q    Type
REMARK                         _______ _______ _______ _____ _____    ______ ____
ROOT
ATOM      1  N   LIG    1        1.140   1.908   0.001  0.00  0.00    -0.248 N 
ATOM      2  C   LIG    1        1.136   3.370   0.063  0.00  0.00    +0.173 C 
ATOM      3  N   LIG    1       -0.110   3.899  -0.504  0.00  0.00    -0.324 N 
ATOM      4  H   LIG    1       -0.095   4.667  -1.097  0.00  0.00    +0.148 HD
ATOM      5  C   LIG    1       -1.312   3.282  -0.175  0.00  0.00    +0.041 A 
ATOM      6  C   LIG    1       -2.508   3.979  -0.155  0.00  0.00    +0.024 A 
ATOM      7  C   LIG    1       -3.679   3.319   0.153  0.00  0.00    +0.002 A 
ATOM      8  C   LIG    1       -3.666   1.966   0.457  0.00  0.00    +0.001 A 
ATOM      9  C   LIG    1       -2.482   1.258   0.450  0.00  0.00    +0.015 A 
ATOM     10  C   LIG    1       -1.293   1.912   0.135  0.00  0.00    +0.058 A 
ATOM     11  C   LIG    1       -0.002   1.202   0.125  0.00  0.00    +0.254 C 
ATOM     12  O   LIG    1        0.033  -0.010   0.222  0.00  0.00    -0.270 OA
ENDROOT
BRANCH   1  17
ATOM     13  C   LIG    1        6.045  -0.836  -0.768  0.00  0.00    +0.044 C 
ATOM     14  C   LIG    1        4.742  -0.106  -0.564  0.00  0.00    -0.050 A 
ATOM     15  C   LIG    1        3.985  -0.350   0.568  0.00  0.00    +0.005 A 
ATOM     16  C   LIG    1        2.790   0.316   0.758  0.00  0.00    +0.024 A 
ATOM     17  C   LIG    1        2.349   1.232  -0.188  0.00  0.00    +0.038 A 
ATOM     18  C   LIG    1        3.109   1.470  -1.326  0.00  0.00    +0.024 A 
ATOM     19  C   LIG    1        4.306   0.805  -1.508  0.00  0.00    +0.005 A 
ENDBRANCH   1  17
BRANCH   2  20
ATOM     20  C   LIG    1        1.258   3.816   1.521  0.00  0.00    +0.055 C 
ATOM     21  C   LIG    1        2.566   3.283   2.110  0.00  0.00    +0.016 C 
BRANCH  20  22
ATOM     22  C   LIG    1        1.254   5.321   1.588  0.00  0.00    -0.041 A 
ATOM     23  C   LIG    1        2.237   6.045   0.939  0.00  0.00    +0.004 A 
ATOM     24  C   LIG    1        2.231   7.426   0.997  0.00  0.00    +0.000 A 
ATOM     25  C   LIG    1        1.246   8.083   1.712  0.00  0.00    +0.000 A 
ATOM     26  C   LIG    1        0.266   7.360   2.365  0.00  0.00    +0.000 A 
ATOM     27  C   LIG    1        0.270   5.979   2.304  0.00  0.00    +0.004 A 
ENDBRANCH  20  22
ENDBRANCH   2  20
TORSDOF 3
