REMARK  Name = ZINC00094337
REMARK                            x       y       z     vdW  Elec       q    Type
REMARK                         _______ _______ _______ _____ _____    ______ ____
ROOT
ATOM      1  C   LIG    1        2.128   5.345  -0.558  0.00  0.00    +0.124 C 
ATOM      2  N   LIG    1        1.936   5.042   0.694  0.00  0.00    -0.178 NA
ATOM      3  N   LIG    1        1.188   3.951   1.099  0.00  0.00    -0.239 N 
ATOM      4  H   LIG    1        1.049   3.732   2.034  0.00  0.00    +0.170 HD
ATOM      5  C   LIG    1        0.624   3.155   0.010  0.00  0.00    +0.203 C 
ATOM      6  C   LIG    1       -0.870   3.089   0.026  0.00  0.00    +0.018 A 
ATOM      7  C   LIG    1       -1.870   4.035   0.042  0.00  0.00    +0.009 A 
ATOM      8  C   LIG    1       -3.196   3.643   0.053  0.00  0.00    +0.000 A 
ATOM      9  C   LIG    1       -3.516   2.298   0.048  0.00  0.00    +0.002 A 
ATOM     10  C   LIG    1       -2.519   1.345   0.032  0.00  0.00    +0.024 A 
ATOM     11  C   LIG    1       -1.181   1.730   0.017  0.00  0.00    +0.040 A 
ATOM     12  N   LIG    1       -0.011   0.966   0.007  0.00  0.00    -0.282 N 
ATOM     13  H   LIG    1        0.002  -0.004   0.002  0.00  0.00    +0.155 HD
ATOM     14  C   LIG    1        1.098   1.735   0.001  0.00  0.00    +0.257 C 
ATOM     15  O   LIG    1        2.249   1.352  -0.011  0.00  0.00    -0.272 OA
ATOM     16  S   LIG    1        1.239   4.073  -1.448  0.00  0.00    -0.063 S 
ENDROOT
BRANCH   1  21
ATOM     17  C   LIG    1        5.140   9.744  -2.723  0.00  0.00    +0.044 C 
ATOM     18  C   LIG    1        4.351   8.592  -2.156  0.00  0.00    -0.050 A 
ATOM     19  C   LIG    1        4.257   8.431  -0.785  0.00  0.00    +0.004 A 
ATOM     20  C   LIG    1        3.536   7.378  -0.260  0.00  0.00    +0.011 A 
ATOM     21  C   LIG    1        2.902   6.475  -1.115  0.00  0.00    +0.008 A 
ATOM     22  C   LIG    1        3.006   6.640  -2.497  0.00  0.00    +0.011 A 
ATOM     23  C   LIG    1        3.725   7.701  -3.009  0.00  0.00    +0.004 A 
ENDBRANCH   1  21
TORSDOF 1
