REMARK  Name = ZINC00240941
REMARK                            x       y       z     vdW  Elec       q    Type
REMARK                         _______ _______ _______ _____ _____    ______ ____
ROOT
ATOM      1  C   LIG    1       -1.331   3.930   0.035  0.00  0.00    +0.111 C 
ATOM      2 CL   LIG    1       -2.846   4.777   0.054  0.00  0.00    -0.078 Cl
ATOM      3  C   LIG    1       -0.177   4.617   0.028  0.00  0.00    +0.111 C 
ATOM      4 CL   LIG    1       -0.200   6.353   0.038  0.00  0.00    -0.078 Cl
ATOM      5  C   LIG    1        1.113   3.896   0.012  0.00  0.00    +0.218 C 
ATOM      6  C   LIG    1        1.133   2.419   0.004  0.00  0.00    +0.111 C 
ATOM      7 CL   LIG    1        2.648   1.572  -0.015  0.00  0.00    -0.078 Cl
ATOM      8  C   LIG    1       -0.021   1.732   0.012  0.00  0.00    +0.111 C 
ATOM      9 CL   LIG    1        0.002  -0.004   0.002  0.00  0.00    -0.078 Cl
ATOM     10  O   LIG    1        2.156   4.518   0.005  0.00  0.00    -0.285 OA
ATOM     11  C   LIG    1       -1.311   2.453   0.022  0.00  0.00    +0.218 C 
ATOM     12  O   LIG    1       -2.354   1.831   0.023  0.00  0.00    -0.285 OA
ENDROOT
TORSDOF 0
