REMARK  Name = ZINC00098212
REMARK                            x       y       z     vdW  Elec       q    Type
REMARK                         _______ _______ _______ _____ _____    ______ ____
ROOT
ATOM      1  C   LIG    1       -0.018   1.465   0.010  0.00  0.00    -0.096 C 
ATOM      2  N   LIG    1        0.002  -0.004   0.002  0.00  0.00    +0.378 N 
ATOM      3  H   LIG    1        0.477  -0.328  -0.827  0.00  0.00    -0.082 HD
ATOM      4  C   LIG    1       -1.376  -0.511   0.004  0.00  0.00    -0.076 C 
ATOM      5  C   LIG    1       -1.361  -2.038  -0.087  0.00  0.00    +0.022 C 
ATOM      6  C   LIG    1       -0.605  -2.608   1.117  0.00  0.00    +0.097 C 
ATOM      7  C   LIG    1        0.807  -2.015   1.147  0.00  0.00    +0.080 C 
ATOM      8  C   LIG    1        0.712  -0.489   1.192  0.00  0.00    -0.065 C 
ENDROOT
BRANCH   6   9
ATOM      9  C   LIG    1       -0.520  -4.108   0.994  0.00  0.00    -0.016 A 
ATOM     10  C   LIG    1        0.554  -4.688   0.345  0.00  0.00    +0.006 A 
ATOM     11  C   LIG    1        0.633  -6.064   0.233  0.00  0.00    +0.000 A 
ATOM     12  C   LIG    1       -0.363  -6.859   0.769  0.00  0.00    +0.000 A 
ATOM     13  C   LIG    1       -1.436  -6.278   1.419  0.00  0.00    +0.000 A 
ATOM     14  C   LIG    1       -1.512  -4.903   1.535  0.00  0.00    +0.006 A 
ENDBRANCH   6   9
BRANCH   6  15
ATOM     15  O   LIG    1       -1.294  -2.264   2.321  0.00  0.00    -0.383 OA
ATOM     16  H   LIG    1       -2.199  -2.603   2.367  0.00  0.00    +0.211 HD
ENDBRANCH   6  15
BRANCH   7  17
ATOM     17  C   LIG    1        1.534  -2.511   2.370  0.00  0.00    +0.167 C 
ATOM     18  O   LIG    1        0.908  -2.865   3.346  0.00  0.00    -0.292 OA
BRANCH  17  19
ATOM     19  C   LIG    1        3.005  -2.567   2.380  0.00  0.00    +0.018 A 
ATOM     20  C   LIG    1        3.731  -2.154   1.258  0.00  0.00    +0.011 A 
ATOM     21  C   LIG    1        5.109  -2.209   1.274  0.00  0.00    +0.001 A 
ATOM     22  C   LIG    1        5.773  -2.670   2.397  0.00  0.00    +0.000 A 
ATOM     23  C   LIG    1        5.062  -3.080   3.511  0.00  0.00    +0.001 A 
ATOM     24  C   LIG    1        3.684  -3.026   3.513  0.00  0.00    +0.011 A 
ENDBRANCH  17  19
ENDBRANCH   7  17
TORSDOF 4
