REMARK  Name = ZINC00190251
REMARK                            x       y       z     vdW  Elec       q    Type
REMARK                         _______ _______ _______ _____ _____    ______ ____
ROOT
ATOM      1  C   LIG    1        4.876   4.028  -0.192  0.00  0.00    +0.163 A 
ATOM      2  N   LIG    1        3.733   3.368  -0.196  0.00  0.00    -0.223 NA
ATOM      3  C   LIG    1        3.701   2.049  -0.375  0.00  0.00    +0.098 A 
ATOM      4  C   LIG    1        4.873   1.372  -0.568  0.00  0.00    +0.078 A 
ATOM      5  S   LIG    1        6.052   2.713  -0.476  0.00  0.00    -0.060 S 
ENDROOT
BRANCH   3   6
ATOM      6  C   LIG    1        2.409   1.323  -0.371  0.00  0.00    +0.090 A 
ATOM      7  C   LIG    1        1.222   2.027  -0.174  0.00  0.00    +0.030 A 
ATOM      8  C   LIG    1        0.023   1.336  -0.173  0.00  0.00    +0.004 A 
ATOM      9  C   LIG    1        0.050  -0.038  -0.370  0.00  0.00    +0.020 A 
ATOM     10  C   LIG    1        1.263  -0.672  -0.560  0.00  0.00    +0.111 A 
ATOM     11  N   LIG    1        2.391   0.009  -0.556  0.00  0.00    -0.253 NA
ENDBRANCH   3   6
BRANCH   1  12
ATOM     12  N   LIG    1        5.104   5.385  -0.020  0.00  0.00    -0.294 N 
ATOM     13  H   LIG    1        4.355   5.999   0.035  0.00  0.00    +0.154 HD
BRANCH  12  18
ATOM     14  C   LIG    1       10.412   7.343   0.366  0.00  0.00    +0.044 C 
ATOM     15  C   LIG    1        9.002   6.823   0.264  0.00  0.00    -0.050 A 
ATOM     16  C   LIG    1        8.021   7.599  -0.327  0.00  0.00    +0.005 A 
ATOM     17  C   LIG    1        6.728   7.125  -0.423  0.00  0.00    +0.023 A 
ATOM     18  C   LIG    1        6.412   5.867   0.076  0.00  0.00    +0.033 A 
ATOM     19  C   LIG    1        7.398   5.093   0.674  0.00  0.00    +0.023 A 
ATOM     20  C   LIG    1        8.691   5.571   0.761  0.00  0.00    +0.005 A 
ENDBRANCH  12  18
ENDBRANCH   1  12
TORSDOF 3
