REMARK  Name = ZINC00347533
REMARK                            x       y       z     vdW  Elec       q    Type
REMARK                         _______ _______ _______ _____ _____    ______ ____
ROOT
ATOM      1  C   LIG    1        0.563   1.422   0.193  0.00  0.00    +0.138 C 
ATOM      2  N   LIG    1        0.323  -0.020   0.105  0.00  0.00    -0.272 N 
ATOM      3  C   LIG    1       -0.993  -0.453   0.162  0.00  0.00    +0.045 A 
ATOM      4  C   LIG    1       -1.946   0.298  -0.528  0.00  0.00    +0.025 A 
ATOM      5  C   LIG    1       -3.274  -0.069  -0.516  0.00  0.00    +0.022 A 
ATOM      6  C   LIG    1       -3.678  -1.193   0.186  0.00  0.00    +0.042 A 
ATOM      7 CL   LIG    1       -5.352  -1.652   0.200  0.00  0.00    -0.084 Cl
ATOM      8  C   LIG    1       -2.752  -1.946   0.872  0.00  0.00    +0.032 A 
ATOM      9  C   LIG    1       -1.396  -1.585   0.868  0.00  0.00    +0.023 A 
ATOM     10  C   LIG    1       -0.461  -2.438   1.619  0.00  0.00    +0.075 C 
ATOM     11  N   LIG    1        0.715  -2.770   1.219  0.00  0.00    -0.273 NA
ATOM     12  C   LIG    1        1.254  -2.310  -0.060  0.00  0.00    +0.238 C 
ATOM     13  C   LIG    1        1.384  -0.812  -0.029  0.00  0.00    +0.241 C 
ATOM     14  O   LIG    1        2.485  -0.312  -0.124  0.00  0.00    -0.273 OA
ENDROOT
BRANCH  10  15
ATOM     15  C   LIG    1       -0.908  -2.952   2.934  0.00  0.00    +0.001 A 
ATOM     16  C   LIG    1       -0.333  -4.106   3.467  0.00  0.00    +0.011 A 
ATOM     17  C   LIG    1       -0.753  -4.580   4.692  0.00  0.00    +0.020 A 
ATOM     18  C   LIG    1       -1.743  -3.913   5.393  0.00  0.00    +0.041 A 
ATOM     19 CL   LIG    1       -2.267  -4.515   6.934  0.00  0.00    -0.084 Cl
ATOM     20  C   LIG    1       -2.318  -2.768   4.868  0.00  0.00    +0.020 A 
ATOM     21  C   LIG    1       -1.902  -2.281   3.646  0.00  0.00    +0.011 A 
ENDBRANCH  10  15
TORSDOF 1
