REMARK  Name = ZINC00330141
REMARK                            x       y       z     vdW  Elec       q    Type
REMARK                         _______ _______ _______ _____ _____    ______ ____
ROOT
ATOM      1  C   LIG    1       -0.017   1.378   0.010  0.00  0.00    +0.007 A 
ATOM      2  C   LIG    1        1.169   2.089   0.002  0.00  0.00    +0.049 A 
ATOM      3  C   LIG    1        2.382   1.418  -0.013  0.00  0.00    +0.162 A 
ATOM      4  C   LIG    1        2.405   0.028  -0.021  0.00  0.00    +0.201 A 
ATOM      5  C   LIG    1        1.211  -0.683  -0.013  0.00  0.00    +0.162 A 
ATOM      6  C   LIG    1        0.002  -0.004   0.002  0.00  0.00    +0.049 A 
ENDROOT
BRANCH   3   7
ATOM      7  O   LIG    1        3.548   2.119  -0.022  0.00  0.00    -0.503 OA
ATOM      8  H   LIG    1        3.894   2.317   0.859  0.00  0.00    +0.292 HD
ENDBRANCH   3   7
BRANCH   4   9
ATOM      9  O   LIG    1        3.594  -0.634  -0.037  0.00  0.00    -0.501 OA
ATOM     10  H   LIG    1        3.946  -0.830   0.842  0.00  0.00    +0.292 HD
ENDBRANCH   4   9
BRANCH   5  11
ATOM     11  O   LIG    1        1.228  -2.043  -0.021  0.00  0.00    -0.503 OA
ATOM     12  H   LIG    1        1.242  -2.441   0.860  0.00  0.00    +0.292 HD
ENDBRANCH   5  11
TORSDOF 3
