REMARK  Name = ZINC00102112
REMARK                            x       y       z     vdW  Elec       q    Type
REMARK                         _______ _______ _______ _____ _____    ______ ____
ROOT
ATOM      1  O   LIG    1        0.049  -4.208  -2.319  0.00  0.00    -0.311 OA
ENDROOT
BRANCH   1   9
ATOM      2  C   LIG    1       -0.018   1.503   0.010  0.00  0.00    +0.048 C 
ATOM      3  C   LIG    1        0.002  -0.004   0.002  0.00  0.00    -0.001 C 
ATOM      4  C   LIG    1        0.006  -0.671  -1.169  0.00  0.00    +0.038 C 
ATOM      5  C   LIG    1        0.025  -2.140  -1.176  0.00  0.00    +0.104 C 
ATOM      6  C   LIG    1        0.042  -2.877   0.095  0.00  0.00    +0.038 C 
ATOM      7  C   LIG    1        0.038  -2.203   1.262  0.00  0.00    -0.001 C 
ATOM      8  C   LIG    1        0.054  -2.958   2.567  0.00  0.00    +0.048 C 
ATOM      9  N   LIG    1        0.029  -2.792  -2.314  0.00  0.00    -0.074 NA
ATOM     10  C   LIG    1        0.024  -0.741   1.265  0.00  0.00    +0.185 C 
ATOM     11  O   LIG    1        0.026  -0.135   2.323  0.00  0.00    -0.287 OA
ENDBRANCH   1   9
BRANCH   1  12
ATOM     12  C   LIG    1        0.051  -4.753  -3.553  0.00  0.00    +0.366 C 
ATOM     13  O   LIG    1        0.037  -4.035  -4.533  0.00  0.00    -0.243 OA
BRANCH  12  14
ATOM     14  C   LIG    1        0.070  -6.218  -3.712  0.00  0.00    +0.061 A 
ATOM     15  C   LIG    1        0.080  -7.046  -2.584  0.00  0.00    +0.018 A 
ATOM     16  C   LIG    1        0.098  -8.414  -2.737  0.00  0.00    +0.046 A 
ATOM     17  C   LIG    1        0.107  -8.973  -4.010  0.00  0.00    +0.120 A 
ATOM     18  C   LIG    1        0.096  -8.154  -5.133  0.00  0.00    +0.046 A 
ATOM     19  C   LIG    1        0.072  -6.785  -4.990  0.00  0.00    +0.018 A 
BRANCH  17  20
ATOM     20  O   LIG    1        0.125 -10.322  -4.156  0.00  0.00    -0.495 OA
ATOM     21  C   LIG    1        0.133 -10.829  -5.492  0.00  0.00    +0.277 C 
ENDBRANCH  17  20
ENDBRANCH  12  14
ENDBRANCH   1  12
TORSDOF 4
