REMARK  Name = ZINC00088680
REMARK                            x       y       z     vdW  Elec       q    Type
REMARK                         _______ _______ _______ _____ _____    ______ ____
ROOT
ATOM      1  C   LIG    1       -0.778  -3.363   2.847  0.00  0.00    +0.111 C 
ATOM      2  C   LIG    1       -0.882  -2.036   2.139  0.00  0.00    +0.232 C 
ATOM      3  N   LIG    1       -1.163  -1.996   0.821  0.00  0.00    -0.185 N 
ATOM      4  C   LIG    1       -1.293  -0.775   0.010  0.00  0.00    +0.137 C 
ATOM      5  C   LIG    1       -1.617  -1.306  -1.400  0.00  0.00    +0.087 C 
ATOM      6  C   LIG    1       -1.632  -2.811  -1.224  0.00  0.00    +0.069 C 
ATOM      7  N   LIG    1       -1.379  -3.104   0.004  0.00  0.00    -0.181 NA
ATOM      8  O   LIG    1       -0.713  -1.005   2.754  0.00  0.00    -0.274 OA
ENDROOT
BRANCH   4   9
ATOM      9  C   LIG    1        0.002  -0.004   0.002  0.00  0.00    -0.025 A 
ATOM     10  C   LIG    1       -0.017   1.378   0.010  0.00  0.00    +0.007 A 
ATOM     11  C   LIG    1        1.171   2.086   0.002  0.00  0.00    +0.020 A 
ATOM     12  C   LIG    1        2.378   1.410  -0.013  0.00  0.00    +0.041 A 
ATOM     13 CL   LIG    1        3.870   2.298  -0.022  0.00  0.00    -0.084 Cl
ATOM     14  C   LIG    1        2.396   0.027  -0.020  0.00  0.00    +0.020 A 
ATOM     15  C   LIG    1        1.208  -0.679  -0.013  0.00  0.00    +0.007 A 
ENDBRANCH   4   9
BRANCH   6  16
ATOM     16  C   LIG    1       -1.897  -3.789  -2.295  0.00  0.00    -0.002 A 
ATOM     17  C   LIG    1       -2.166  -3.350  -3.595  0.00  0.00    +0.013 A 
ATOM     18  C   LIG    1       -2.407  -4.268  -4.593  0.00  0.00    +0.046 A 
ATOM     19  C   LIG    1       -2.396  -5.628  -4.308  0.00  0.00    +0.120 A 
ATOM     20  C   LIG    1       -2.135  -6.068  -3.017  0.00  0.00    +0.046 A 
ATOM     21  C   LIG    1       -1.887  -5.158  -2.013  0.00  0.00    +0.013 A 
BRANCH  19  22
ATOM     22  O   LIG    1       -2.640  -6.529  -5.295  0.00  0.00    -0.495 OA
ATOM     23  C   LIG    1       -2.901  -6.008  -6.599  0.00  0.00    +0.277 C 
ENDBRANCH  19  22
ENDBRANCH   6  16
TORSDOF 3
