REMARK  Name = ZINC00245648
REMARK                            x       y       z     vdW  Elec       q    Type
REMARK                         _______ _______ _______ _____ _____    ______ ____
ROOT
ATOM      1  C   LIG    1       -0.059   0.872  -0.064  0.00  0.00    +0.065 C 
ATOM      2  C   LIG    1       -0.761   1.493  -1.244  0.00  0.00    +0.041 A 
ATOM      3  N   LIG    1       -0.209   1.768  -2.444  0.00  0.00    -0.281 N 
ATOM      4  H   LIG    1        0.713   1.598  -2.696  0.00  0.00    +0.189 HD
ATOM      5  N   LIG    1       -1.191   2.335  -3.264  0.00  0.00    -0.173 NA
ATOM      6  C   LIG    1       -2.311   2.413  -2.579  0.00  0.00    +0.104 A 
ATOM      7  C   LIG    1       -2.066   1.883  -1.286  0.00  0.00    +0.030 A 
ENDROOT
BRANCH   7   8
ATOM      8  C   LIG    1       -3.052   1.773  -0.182  0.00  0.00    -0.010 A 
ATOM      9  C   LIG    1       -4.134   0.903  -0.297  0.00  0.00    +0.012 A 
ATOM     10  C   LIG    1       -5.050   0.803   0.730  0.00  0.00    +0.050 A 
ATOM     11  C   LIG    1       -4.897   1.566   1.879  0.00  0.00    +0.162 A 
ATOM     12  C   LIG    1       -3.817   2.434   2.000  0.00  0.00    +0.163 A 
ATOM     13  O   LIG    1       -3.648   3.183   3.124  0.00  0.00    -0.485 OA
ATOM     14  C   LIG    1       -4.788   3.330   3.977  0.00  0.00    +0.270 C 
ATOM     15  C   LIG    1       -5.429   1.949   4.166  0.00  0.00    +0.270 C 
ATOM     16  O   LIG    1       -5.815   1.454   2.879  0.00  0.00    -0.485 OA
ATOM     17  C   LIG    1       -2.893   2.535   0.973  0.00  0.00    +0.058 A 
ENDBRANCH   7   8
BRANCH   6  18
ATOM     18  C   LIG    1       -3.599   2.958  -3.070  0.00  0.00    +0.044 A 
ATOM     19  C   LIG    1       -4.317   3.863  -2.291  0.00  0.00    +0.017 A 
ATOM     20  C   LIG    1       -5.516   4.368  -2.751  0.00  0.00    +0.046 A 
ATOM     21  C   LIG    1       -6.009   3.977  -3.989  0.00  0.00    +0.120 A 
ATOM     22  C   LIG    1       -5.300   3.077  -4.770  0.00  0.00    +0.091 A 
ATOM     23  C   LIG    1       -4.094   2.569  -4.319  0.00  0.00    +0.130 A 
BRANCH  21  24
ATOM     24  O   LIG    1       -7.191   4.478  -4.436  0.00  0.00    -0.507 OA
ATOM     25  H   LIG    1       -7.103   5.294  -4.948  0.00  0.00    +0.292 HD
ENDBRANCH  21  24
BRANCH  23  26
ATOM     26  O   LIG    1       -3.396   1.691  -5.085  0.00  0.00    -0.506 OA
ATOM     27  H   LIG    1       -2.579   1.348  -4.778  0.00  0.00    +0.292 HD
ENDBRANCH  23  26
ENDBRANCH   6  18
TORSDOF 4
