REMARK  Name = ZINC00186459
REMARK                            x       y       z     vdW  Elec       q    Type
REMARK                         _______ _______ _______ _____ _____    ______ ____
ROOT
ATOM      1  C   LIG    1        1.182   2.087   0.002  0.00  0.00    -0.018 A 
ATOM      2  C   LIG    1       -0.017   1.375   0.010  0.00  0.00    +0.010 A 
ATOM      3  C   LIG    1        0.002  -0.004   0.002  0.00  0.00    +0.024 A 
ATOM      4  C   LIG    1        1.214  -0.683  -0.014  0.00  0.00    +0.045 A 
ATOM      5  C   LIG    1        2.409   0.024  -0.021  0.00  0.00    +0.024 A 
ATOM      6  C   LIG    1        2.396   1.403  -0.013  0.00  0.00    +0.010 A 
ENDROOT
BRANCH   4   7
ATOM      7  N   LIG    1        1.230  -2.084  -0.022  0.00  0.00    -0.203 N 
ATOM      8  C   LIG    1        0.140  -2.872  -0.011  0.00  0.00    +0.250 C 
ATOM      9  C   LIG    1        0.584  -4.284  -0.029  0.00  0.00    +0.073 C 
ATOM     10  C   LIG    1        1.927  -4.268  -0.042  0.00  0.00    +0.073 C 
ATOM     11  O   LIG    1       -1.012  -2.490   0.009  0.00  0.00    -0.270 OA
ATOM     12  C   LIG    1        2.338  -2.847  -0.037  0.00  0.00    +0.250 C 
ATOM     13  O   LIG    1        3.481  -2.438  -0.047  0.00  0.00    -0.270 OA
ENDBRANCH   4   7
BRANCH   1  17
ATOM     14  C   LIG    1        1.132   6.338   0.024  0.00  0.00    +0.000 A 
ATOM     15  C   LIG    1        2.339   5.663   0.009  0.00  0.00    +0.001 A 
ATOM     16  C   LIG    1        2.361   4.284   0.002  0.00  0.00    +0.008 A 
ATOM     17  C   LIG    1        1.164   3.570   0.010  0.00  0.00    -0.018 A 
ATOM     18  C   LIG    1       -0.049   4.255   0.019  0.00  0.00    +0.008 A 
ATOM     19  C   LIG    1       -0.059   5.635   0.031  0.00  0.00    +0.001 A 
ENDBRANCH   1  17
TORSDOF 2
