REMARK  Name = ZINC00171065
REMARK                            x       y       z     vdW  Elec       q    Type
REMARK                         _______ _______ _______ _____ _____    ______ ____
ROOT
ATOM      1  C   LIG    1        3.437  -2.087  -0.628  0.00  0.00    +0.267 C 
ATOM      2  N   LIG    1        2.450  -2.789  -0.037  0.00  0.00    -0.280 N 
ATOM      3  H   LIG    1        1.754  -2.327   0.456  0.00  0.00    +0.155 HD
ATOM      4  O   LIG    1        4.354  -2.668  -1.175  0.00  0.00    -0.268 OA
ENDROOT
BRANCH   2   5
ATOM      5  C   LIG    1        2.430  -4.186  -0.135  0.00  0.00    +0.037 A 
ATOM      6  C   LIG    1        1.218  -4.857  -0.229  0.00  0.00    +0.027 A 
ATOM      7  C   LIG    1        1.196  -6.235  -0.326  0.00  0.00    +0.051 A 
ATOM      8  C   LIG    1        2.383  -6.951  -0.331  0.00  0.00    +0.166 A 
ATOM      9  C   LIG    1        3.600  -6.280  -0.237  0.00  0.00    +0.168 A 
ATOM     10  O   LIG    1        4.608  -7.200  -0.262  0.00  0.00    -0.453 OA
ATOM     11  C   LIG    1        3.985  -8.462   0.040  0.00  0.00    +0.466 C 
ATOM     12  O   LIG    1        2.629  -8.292  -0.414  0.00  0.00    -0.453 OA
ATOM     13  C   LIG    1        3.621  -4.898  -0.145  0.00  0.00    +0.072 A 
ENDBRANCH   2   5
BRANCH   1  18
ATOM     14  C   LIG    1        4.382   1.500  -1.200  0.00  0.00    +0.004 A 
ATOM     15  C   LIG    1        3.316   2.116  -0.565  0.00  0.00    +0.020 A 
ATOM     16  C   LIG    1        2.333   1.337   0.024  0.00  0.00    +0.111 A 
ATOM     17  N   LIG    1        2.400   0.024  -0.014  0.00  0.00    -0.250 NA
ATOM     18  C   LIG    1        3.404  -0.606  -0.612  0.00  0.00    +0.126 A 
ATOM     19  C   LIG    1        4.427   0.115  -1.224  0.00  0.00    +0.033 A 
ENDBRANCH   1  18
TORSDOF 2
