REMARK  Name = ZINC00078789
REMARK                            x       y       z     vdW  Elec       q    Type
REMARK                         _______ _______ _______ _____ _____    ______ ____
ROOT
ATOM      1  C   LIG    1        3.429  -0.841  -0.035  0.00  0.00    +0.185 A 
ATOM      2  N   LIG    1        2.893  -2.040  -0.172  0.00  0.00    -0.127 NA
ATOM      3  N   LIG    1        1.616  -1.941  -0.301  0.00  0.00    -0.128 NA
ATOM      4  C   LIG    1        1.263  -0.664  -0.254  0.00  0.00    +0.178 A 
ATOM      5  C   LIG    1        0.028   0.005  -0.341  0.00  0.00    +0.053 A 
ATOM      6  C   LIG    1        0.002   1.362  -0.253  0.00  0.00    +0.049 A 
ATOM      7  C   LIG    1        1.200   2.082  -0.078  0.00  0.00    +0.140 A 
ATOM      8  N   LIG    1        2.352   1.458   0.003  0.00  0.00    -0.148 NA
ATOM      9  N   LIG    1        2.412   0.066  -0.083  0.00  0.00    -0.191 N 
ENDROOT
BRANCH   1  15
ATOM     10  C   LIG    1        5.268   0.726   0.573  0.00  0.00    +0.012 A 
ATOM     11  C   LIG    1        6.610   1.000   0.736  0.00  0.00    +0.013 A 
ATOM     12  C   LIG    1        7.556   0.029   0.460  0.00  0.00    +0.055 A 
ATOM     13  C   LIG    1        7.164  -1.224   0.023  0.00  0.00    +0.013 A 
ATOM     14  C   LIG    1        5.825  -1.513  -0.140  0.00  0.00    +0.012 A 
ATOM     15  C   LIG    1        4.865  -0.538   0.137  0.00  0.00    +0.021 A 
BRANCH  12  16
ATOM     16  C   LIG    1        9.021   0.338   0.636  0.00  0.00    +0.417 C 
ATOM     17  F   LIG    1        9.707  -0.833   0.976  0.00  0.00    -0.166 F 
ATOM     18  F   LIG    1        9.179   1.283   1.655  0.00  0.00    -0.166 F 
ATOM     19  F   LIG    1        9.536   0.850  -0.559  0.00  0.00    -0.166 F 
ENDBRANCH  12  16
ENDBRANCH   1  15
BRANCH   7  20
ATOM     20  N   LIG    1        1.161   3.469   0.010  0.00  0.00    -0.325 N 
ATOM     21  H   LIG    1        1.982   3.970   0.134  0.00  0.00    +0.148 HD
BRANCH  20  22
ATOM     22  C   LIG    1       -0.120   4.174  -0.085  0.00  0.00    +0.072 C 
ATOM     23  C   LIG    1       -0.230   5.306  -1.109  0.00  0.00    +0.024 C 
ATOM     24  C   LIG    1       -0.162   5.629   0.386  0.00  0.00    +0.024 C 
ENDBRANCH  20  22
ENDBRANCH   7  20
TORSDOF 4
