REMARK  Name = ZINC00171152
REMARK                            x       y       z     vdW  Elec       q    Type
REMARK                         _______ _______ _______ _____ _____    ______ ____
ROOT
ATOM      1  C   LIG    1       -1.080  -2.934  -1.266  0.00  0.00    +0.069 C 
ENDROOT
BRANCH   1   2
ATOM      2  C   LIG    1       -0.674  -4.384  -1.193  0.00  0.00    -0.020 A 
ATOM      3  C   LIG    1        0.432  -4.931  -1.722  0.00  0.00    +0.087 A 
ATOM      4  N   LIG    1        0.464  -6.272  -1.453  0.00  0.00    -0.360 N 
ATOM      5  C   LIG    1       -0.650  -6.630  -0.727  0.00  0.00    +0.047 A 
ATOM      6  C   LIG    1       -1.106  -7.836  -0.204  0.00  0.00    +0.026 A 
ATOM      7  C   LIG    1       -2.284  -7.871   0.510  0.00  0.00    +0.002 A 
ATOM      8  C   LIG    1       -3.030  -6.716   0.701  0.00  0.00    +0.001 A 
ATOM      9  C   LIG    1       -2.604  -5.522   0.192  0.00  0.00    +0.010 A 
ATOM     10  H   LIG    1        1.166  -6.880  -1.733  0.00  0.00    +0.165 HD
ATOM     11  C   LIG    1       -1.408  -5.462  -0.527  0.00  0.00    +0.003 A 
ENDBRANCH   1   2
BRANCH   1  15
ATOM     12  C   LIG    1       -0.018   1.461   0.010  0.00  0.00    +0.140 C 
ATOM     13  N   LIG    1        0.002  -0.004   0.002  0.00  0.00    -0.255 N 
ATOM     14  C   LIG    1       -1.103  -0.776   0.003  0.00  0.00    +0.241 C 
ATOM     15  C   LIG    1       -0.602  -2.207  -0.008  0.00  0.00    +0.163 C 
ATOM     16  N   LIG    1        0.864  -2.061  -0.015  0.00  0.00    -0.315 N 
ATOM     17  H   LIG    1        1.517  -2.778  -0.022  0.00  0.00    +0.149 HD
ATOM     18  O   LIG    1       -2.256  -0.404   0.011  0.00  0.00    -0.273 OA
ATOM     19  C   LIG    1        1.119  -0.741  -0.013  0.00  0.00    +0.140 C 
ATOM     20  S   LIG    1        2.697  -0.076  -0.024  0.00  0.00    -0.018 S 
ENDBRANCH   1  15
TORSDOF 2
