REMARK  Name = ZINC00194814
REMARK                            x       y       z     vdW  Elec       q    Type
REMARK                         _______ _______ _______ _____ _____    ______ ____
ROOT
ATOM      1  N   LIG    1       -1.236   2.069   0.019  0.00  0.00    -0.248 N 
ATOM      2  C   LIG    1       -1.242   3.527   0.144  0.00  0.00    +0.173 C 
ATOM      3  N   LIG    1       -2.430   3.973   0.875  0.00  0.00    -0.324 N 
ATOM      4  H   LIG    1       -2.360   4.659   1.557  0.00  0.00    +0.148 HD
ATOM      5  C   LIG    1       -3.658   3.393   0.577  0.00  0.00    +0.041 A 
ATOM      6  C   LIG    1       -4.849   4.077   0.750  0.00  0.00    +0.024 A 
ATOM      7  C   LIG    1       -6.047   3.450   0.466  0.00  0.00    +0.002 A 
ATOM      8  C   LIG    1       -6.065   2.140   0.012  0.00  0.00    +0.001 A 
ATOM      9  C   LIG    1       -4.887   1.445  -0.169  0.00  0.00    +0.015 A 
ATOM     10  C   LIG    1       -3.672   2.070   0.101  0.00  0.00    +0.058 A 
ATOM     11  C   LIG    1       -2.387   1.373  -0.082  0.00  0.00    +0.254 C 
ATOM     12  O   LIG    1       -2.364   0.181  -0.320  0.00  0.00    -0.270 OA
ENDROOT
BRANCH   1  17
ATOM     13  C   LIG    1        3.718  -0.692  -0.027  0.00  0.00    +0.044 C 
ATOM     14  C   LIG    1        2.401   0.040  -0.014  0.00  0.00    -0.050 A 
ATOM     15  C   LIG    1        1.538  -0.073  -1.089  0.00  0.00    +0.005 A 
ATOM     16  C   LIG    1        0.331   0.597  -1.080  0.00  0.00    +0.024 A 
ATOM     17  C   LIG    1       -0.017   1.385   0.010  0.00  0.00    +0.038 A 
ATOM     18  C   LIG    1        0.852   1.496   1.087  0.00  0.00    +0.024 A 
ATOM     19  C   LIG    1        2.058   0.823   1.073  0.00  0.00    +0.005 A 
ENDBRANCH   1  17
BRANCH   2  20
ATOM     20  C   LIG    1       -1.246   4.155  -1.251  0.00  0.00    +0.055 C 
ATOM     21  C   LIG    1        0.004   3.711  -2.013  0.00  0.00    +0.016 C 
BRANCH  20  22
ATOM     22  C   LIG    1       -1.251   5.657  -1.125  0.00  0.00    -0.041 A 
ATOM     23  C   LIG    1       -0.219   6.299  -0.468  0.00  0.00    +0.004 A 
ATOM     24  C   LIG    1       -0.222   7.677  -0.357  0.00  0.00    +0.000 A 
ATOM     25  C   LIG    1       -1.262   8.412  -0.895  0.00  0.00    +0.000 A 
ATOM     26  C   LIG    1       -2.296   7.769  -1.548  0.00  0.00    +0.000 A 
ATOM     27  C   LIG    1       -2.292   6.391  -1.663  0.00  0.00    +0.004 A 
ENDBRANCH  20  22
ENDBRANCH   2  20
TORSDOF 3
