REMARK  Name = ZINC00319638
REMARK                            x       y       z     vdW  Elec       q    Type
REMARK                         _______ _______ _______ _____ _____    ______ ____
ROOT
ATOM      1  C   LIG    1       -1.192  -2.091  -0.088  0.00  0.00    +0.076 A 
ATOM      2  C   LIG    1       -0.013  -2.817  -0.092  0.00  0.00    +0.035 A 
ATOM      3  C   LIG    1       -0.053  -4.206  -0.189  0.00  0.00    -0.016 A 
ATOM      4  C   LIG    1       -1.279  -4.861  -0.282  0.00  0.00    +0.012 A 
ATOM      5  C   LIG    1       -2.453  -4.135  -0.278  0.00  0.00    +0.048 A 
ATOM      6  C   LIG    1       -2.416  -2.753  -0.176  0.00  0.00    +0.138 A 
ENDROOT
BRANCH   3   7
ATOM      7  C   LIG    1        1.209  -4.987  -0.194  0.00  0.00    -0.018 A 
ATOM      8  C   LIG    1        2.436  -4.334  -0.096  0.00  0.00    +0.008 A 
ATOM      9  C   LIG    1        3.606  -5.066  -0.101  0.00  0.00    +0.001 A 
ATOM     10  C   LIG    1        3.563  -6.444  -0.203  0.00  0.00    +0.000 A 
ATOM     11  C   LIG    1        2.347  -7.098  -0.301  0.00  0.00    +0.001 A 
ATOM     12  C   LIG    1        1.171  -6.377  -0.291  0.00  0.00    +0.008 A 
ENDBRANCH   3   7
BRANCH   1  15
ATOM     13  C   LIG    1       -0.167   1.503  -0.551  0.00  0.00    +0.109 C 
ATOM     14  C   LIG    1       -0.153  -0.004  -0.570  0.00  0.00    +0.214 C 
ATOM     15  N   LIG    1       -1.156  -0.694   0.009  0.00  0.00    -0.283 N 
ATOM     16  H   LIG    1       -1.852  -0.223   0.494  0.00  0.00    +0.155 HD
ATOM     17  O   LIG    1        0.760  -0.595  -1.105  0.00  0.00    -0.276 OA
ENDBRANCH   1  15
BRANCH   6  18
ATOM     18  O   LIG    1       -3.574  -2.041  -0.168  0.00  0.00    -0.505 OA
ATOM     19  H   LIG    1       -3.879  -1.775  -1.046  0.00  0.00    +0.292 HD
ENDBRANCH   6  18
TORSDOF 3
