REMARK  Name = ZINC00142289
REMARK                            x       y       z     vdW  Elec       q    Type
REMARK                         _______ _______ _______ _____ _____    ______ ____
ROOT
ATOM      1  C   LIG    1       -0.749   0.989  -3.592  0.00  0.00    +0.218 C 
ATOM      2  N   LIG    1       -0.067   1.120  -2.437  0.00  0.00    -0.312 N 
ATOM      3  H   LIG    1        0.878   0.902  -2.404  0.00  0.00    +0.149 HD
ATOM      4  O   LIG    1       -1.930   1.261  -3.634  0.00  0.00    -0.275 OA
ENDROOT
BRANCH   2   5
ATOM      5  C   LIG    1       -0.753   1.593  -1.232  0.00  0.00    +0.073 C 
ATOM      6  C   LIG    1       -0.013   1.086   0.008  0.00  0.00    +0.022 C 
ATOM      7  C   LIG    1       -0.729   1.579   1.267  0.00  0.00    +0.002 C 
ATOM      8  C   LIG    1       -0.750   3.109   1.275  0.00  0.00    +0.000 C 
ATOM      9  C   LIG    1       -1.490   3.616   0.036  0.00  0.00    +0.002 C 
ATOM     10  C   LIG    1       -0.773   3.123  -1.223  0.00  0.00    +0.022 C 
ENDBRANCH   2   5
BRANCH   1  11
ATOM     11  C   LIG    1       -0.043   0.503  -4.832  0.00  0.00    +0.130 C 
BRANCH  11  15
ATOM     12  C   LIG    1       -2.818   0.339  -8.078  0.00  0.00    +0.120 A 
ATOM     13  C   LIG    1       -2.095   1.499  -7.840  0.00  0.00    +0.046 A 
ATOM     14  C   LIG    1       -1.199   1.549  -6.790  0.00  0.00    +0.007 A 
ATOM     15  C   LIG    1       -1.022   0.445  -5.977  0.00  0.00    -0.038 A 
ATOM     16  C   LIG    1       -1.737  -0.714  -6.215  0.00  0.00    +0.007 A 
ATOM     17  C   LIG    1       -2.639  -0.768  -7.261  0.00  0.00    +0.046 A 
BRANCH  12  19
ATOM     18  C   LIG    1       -4.410  -0.939  -9.296  0.00  0.00    +0.277 C 
ATOM     19  O   LIG    1       -3.701   0.287  -9.110  0.00  0.00    -0.495 OA
ENDBRANCH  12  19
ENDBRANCH  11  15
ENDBRANCH   1  11
TORSDOF 4
