REMARK  Name = ZINC00149580
REMARK                            x       y       z     vdW  Elec       q    Type
REMARK                         _______ _______ _______ _____ _____    ______ ____
ROOT
ATOM      1  C   LIG    1       -0.018   1.503   0.010  0.00  0.00    +0.007 C 
ATOM      2  C   LIG    1        0.002  -0.004   0.002  0.00  0.00    -0.010 C 
ATOM      3  C   LIG    1        0.006  -0.708  -1.196  0.00  0.00    +0.018 C 
ATOM      4  C   LIG    1        0.025  -2.087  -1.169  0.00  0.00    +0.082 C 
ATOM      5  N   LIG    1        0.040  -2.742  -0.023  0.00  0.00    -0.301 NA
ATOM      6  H   LIG    1        0.054  -3.712  -0.033  0.00  0.00    +0.123 HD
ATOM      7  C   LIG    1        0.036  -2.108   1.139  0.00  0.00    +0.119 C 
ATOM      8  C   LIG    1        0.023  -0.717   1.187  0.00  0.00    +0.037 C 
ENDROOT
BRANCH   7   9
ATOM      9  N   LIG    1        0.052  -2.838   2.322  0.00  0.00    -0.316 NA
ATOM     10  H   LIG    1        0.049  -2.377   3.176  0.00  0.00    +0.120 HD
ATOM     11  H   LIG    1        0.065  -3.807   2.294  0.00  0.00    +0.120 HD
ENDBRANCH   7   9
TORSDOF 1
