REMARK  Name = ZINC00172633
REMARK                            x       y       z     vdW  Elec       q    Type
REMARK                         _______ _______ _______ _____ _____    ______ ____
ROOT
ATOM      1  C   LIG    1       -0.093   3.777   0.458  0.00  0.00    +0.025 A 
ATOM      2  C   LIG    1       -0.215   5.138   0.678  0.00  0.00    +0.016 A 
ATOM      3  C   LIG    1       -1.465   5.719   0.845  0.00  0.00    +0.003 A 
ATOM      4  C   LIG    1       -2.605   4.969   0.784  0.00  0.00    +0.028 A 
ATOM      5  C   LIG    1       -2.523   3.588   0.569  0.00  0.00    +0.079 A 
ATOM      6  N   LIG    1       -3.618   2.814   0.520  0.00  0.00    -0.215 NA
ATOM      7  C   LIG    1       -3.508   1.515   0.317  0.00  0.00    +0.215 A 
ATOM      8  N   LIG    1       -2.335   0.909   0.151  0.00  0.00    -0.199 NA
ATOM      9  C   LIG    1       -1.197   1.588   0.183  0.00  0.00    +0.130 A 
ATOM     10  C   LIG    1       -1.253   2.984   0.404  0.00  0.00    +0.054 A 
ENDROOT
BRANCH   7  11
ATOM     11  N   LIG    1       -4.660   0.751   0.274  0.00  0.00    -0.327 N 
ATOM     12  H   LIG    1       -5.526   1.172   0.392  0.00  0.00    +0.145 HD
ATOM     13  H   LIG    1       -4.602  -0.206   0.125  0.00  0.00    +0.145 HD
ENDBRANCH   7  11
BRANCH   9  14
ATOM     14  N   LIG    1        0.013   0.949   0.010  0.00  0.00    -0.342 N 
ATOM     15  H   LIG    1        0.188   0.111   0.466  0.00  0.00    +0.144 HD
ATOM     16  H   LIG    1        0.689   1.338  -0.566  0.00  0.00    +0.144 HD
ENDBRANCH   9  14
BRANCH   1  17
ATOM     17  S   LIG    1        1.496   3.047   0.247  0.00  0.00    -0.089 S 
BRANCH  17  22
ATOM     18  C   LIG    1        5.337   7.582   1.306  0.00  0.00    +0.044 C 
ATOM     19  C   LIG    1        4.378   6.449   1.042  0.00  0.00    -0.050 A 
ATOM     20  C   LIG    1        3.926   5.669   2.090  0.00  0.00    +0.004 A 
ATOM     21  C   LIG    1        3.048   4.631   1.852  0.00  0.00    +0.015 A 
ATOM     22  C   LIG    1        2.618   4.370   0.556  0.00  0.00    +0.013 A 
ATOM     23  C   LIG    1        3.078   5.153  -0.496  0.00  0.00    +0.015 A 
ATOM     24  C   LIG    1        3.952   6.193  -0.249  0.00  0.00    +0.004 A 
ENDBRANCH  17  22
ENDBRANCH   1  17
TORSDOF 4
