REMARK  Name = ZINC00135687
REMARK                            x       y       z     vdW  Elec       q    Type
REMARK                         _______ _______ _______ _____ _____    ______ ____
ROOT
ATOM      1  C   LIG    1       -0.148   1.182   2.380  0.00  0.00    +0.121 A 
ATOM      2  C   LIG    1        0.997   0.388   2.416  0.00  0.00    +0.047 A 
ATOM      3  C   LIG    1        1.553   0.015   3.618  0.00  0.00    +0.030 A 
ATOM      4  C   LIG    1        0.966   0.419   4.813  0.00  0.00    +0.047 A 
ATOM      5  C   LIG    1       -0.195   1.216   4.783  0.00  0.00    +0.004 A 
ATOM      6  C   LIG    1       -0.559   1.468   6.128  0.00  0.00    +0.043 A 
ATOM      7  CA  LIG    1        0.349   0.846   6.926  0.00  0.00    +0.125 A 
ATOM      8  N   LIG    1        1.282   0.204   6.135  0.00  0.00    -0.349 N 
ATOM      9  H   LIG    1        2.036  -0.314   6.458  0.00  0.00    +0.166 HD
ATOM     10  C   LIG    1       -0.747   1.594   3.552  0.00  0.00    +0.055 A 
ENDROOT
BRANCH   1  12
ATOM     11  C   LIG    1       -0.013   1.086   0.008  0.00  0.00    +0.277 C 
ATOM     12  O   LIG    1       -0.682   1.547   1.184  0.00  0.00    -0.495 OA
ENDBRANCH   1  12
BRANCH   7  13
ATOM     13  C   LIG    1        0.339   0.855   8.395  0.00  0.00    +0.353 C 
ATOM     14  O   LIG    1       -0.532   1.455   8.993  0.00  0.00    -0.243 OA
BRANCH  13  15
ATOM     15  OXT LIG    1        1.298   0.198   9.080  0.00  0.00    -0.476 OA
ATOM     16  HXT LIG    1        1.969  -0.264   8.619  0.00  0.00    +0.295 HD
ENDBRANCH  13  15
ENDBRANCH   7  13
TORSDOF 3
