REMARK  Name = ZINC00096711
REMARK                            x       y       z     vdW  Elec       q    Type
REMARK                         _______ _______ _______ _____ _____    ______ ____
ROOT
ATOM      1  C   LIG    1        1.229  -2.186  -0.022  0.00  0.00    +0.113 C 
ENDROOT
BRANCH   1   7
ATOM      2  C   LIG    1       -0.017   1.378   0.010  0.00  0.00    +0.000 A 
ATOM      3  C   LIG    1        1.171   2.086   0.002  0.00  0.00    +0.001 A 
ATOM      4  C   LIG    1        2.377   1.412  -0.013  0.00  0.00    +0.020 A 
ATOM      5  C   LIG    1        2.397   0.029  -0.021  0.00  0.00    +0.045 A 
ATOM      6 CL   LIG    1        3.912  -0.818  -0.041  0.00  0.00    -0.083 Cl
ATOM      7  C   LIG    1        1.208  -0.679  -0.013  0.00  0.00    -0.019 A 
ATOM      8  C   LIG    1        0.002  -0.004   0.002  0.00  0.00    +0.006 A 
ENDBRANCH   1   7
BRANCH   1   9
ATOM      9  S   LIG    1        1.254  -2.800   1.685  0.00  0.00    -0.088 S 
BRANCH   9  10
ATOM     10  C   LIG    1        1.276  -4.553   1.507  0.00  0.00    +0.123 C 
ATOM     11  N   LIG    1        1.873  -5.309   2.428  0.00  0.00    -0.382 N 
ATOM     12  H   LIG    1        1.885  -6.274   2.330  0.00  0.00    +0.158 HD
ATOM     13  H   LIG    1        2.295  -4.895   3.197  0.00  0.00    +0.158 HD
BRANCH  10  14
ATOM     14  N   LIG    1        0.696  -5.123   0.451  0.00  0.00    -0.340 N 
ATOM     15  H   LIG    1        0.708  -6.088   0.352  0.00  0.00    +0.144 HD
ATOM     16  H   LIG    1        0.261  -4.573  -0.220  0.00  0.00    +0.144 HD
ENDBRANCH  10  14
ENDBRANCH   9  10
ENDBRANCH   1   9
TORSDOF 4
