REMARK  Name = ZINC00332024
REMARK                            x       y       z     vdW  Elec       q    Type
REMARK                         _______ _______ _______ _____ _____    ______ ____
ROOT
ATOM      1  C   LIG    1        1.164   3.170   0.008  0.00  0.00    +0.001 A 
ATOM      2  C   LIG    1        1.170   1.781   0.001  0.00  0.00    +0.002 A 
ATOM      3  C   LIG    1       -0.013   1.076   0.008  0.00  0.00    +0.026 A 
ATOM      4  C   LIG    1       -1.226   1.755   0.017  0.00  0.00    +0.047 A 
ATOM      5  C   LIG    1       -1.232   3.168   0.028  0.00  0.00    +0.004 A 
ATOM      6  C   LIG    1       -2.578   3.564   0.039  0.00  0.00    -0.012 A 
ATOM      7  C   LIG    1       -3.353   2.431   0.045  0.00  0.00    +0.061 A 
ATOM      8  C   LIG    1       -4.820   2.541   0.062  0.00  0.00    +0.130 C 
ATOM      9  N   LIG    1       -5.339   3.688  -0.258  0.00  0.00    -0.289 NA
ATOM     10  C   LIG    1       -4.559   4.846  -0.668  0.00  0.00    +0.146 C 
ATOM     11  C   LIG    1       -3.206   4.933   0.041  0.00  0.00    +0.061 C 
ATOM     12  N   LIG    1       -2.540   1.332   0.034  0.00  0.00    -0.353 N 
ATOM     13  H   LIG    1       -2.836   0.408   0.034  0.00  0.00    +0.166 HD
ATOM     14  C   LIG    1       -0.013   3.860   0.022  0.00  0.00    +0.010 A 
ENDROOT
TORSDOF 0
