REMARK  Name = ZINC00084787
REMARK                            x       y       z     vdW  Elec       q    Type
REMARK                         _______ _______ _______ _____ _____    ______ ____
ROOT
ATOM      1  C   LIG    1       -2.500   1.014   0.019  0.00  0.00    +0.018 C 
ATOM      2  C   LIG    1       -3.672   1.674   0.130  0.00  0.00    +0.038 C 
ATOM      3  C   LIG    1       -3.760   3.191   0.152  0.00  0.00    +0.268 C 
ATOM      4  O   LIG    1       -4.723   3.595  -0.828  0.00  0.00    -0.487 OA
ATOM      5  C   LIG    1       -5.928   2.980  -0.878  0.00  0.00    +0.132 A 
ATOM      6  C   LIG    1       -7.006   3.645  -1.452  0.00  0.00    +0.046 A 
ATOM      7  C   LIG    1       -8.236   3.027  -1.541  0.00  0.00    +0.004 A 
ATOM      8  C   LIG    1       -8.416   1.739  -1.061  0.00  0.00    +0.001 A 
ATOM      9  C   LIG    1       -7.362   1.064  -0.482  0.00  0.00    +0.015 A 
ATOM     10  C   LIG    1       -6.118   1.683  -0.384  0.00  0.00    +0.064 A 
ATOM     11  C   LIG    1       -4.975   0.976   0.247  0.00  0.00    +0.196 C 
ATOM     12  O   LIG    1       -5.098  -0.093   0.817  0.00  0.00    -0.287 OA
ENDROOT
BRANCH   1  16
ATOM     13  C   LIG    1        1.159   3.151   0.198  0.00  0.00    +0.000 A 
ATOM     14  C   LIG    1        1.054   2.034  -0.612  0.00  0.00    +0.001 A 
ATOM     15  C   LIG    1       -0.131   1.331  -0.672  0.00  0.00    +0.008 A 
ATOM     16  C   LIG    1       -1.230   1.754   0.083  0.00  0.00    -0.025 A 
ATOM     17  C   LIG    1       -1.114   2.881   0.903  0.00  0.00    +0.008 A 
ATOM     18  C   LIG    1        0.078   3.573   0.952  0.00  0.00    +0.001 A 
ENDBRANCH   1  16
TORSDOF 1
