REMARK  Name = ZINC00319168
REMARK                            x       y       z     vdW  Elec       q    Type
REMARK                         _______ _______ _______ _____ _____    ______ ____
ROOT
ATOM      1  C   LIG    1        2.200  -3.605  -2.378  0.00  0.00    +0.023 A 
ATOM      2  C   LIG    1        1.644  -4.463  -1.433  0.00  0.00    +0.030 A 
ATOM      3  C   LIG    1        2.224  -5.664  -1.151  0.00  0.00    +0.051 A 
ATOM      4 CL   LIG    1        1.514  -6.718   0.032  0.00  0.00    -0.083 Cl
ATOM      5  C   LIG    1        3.398  -6.045  -1.822  0.00  0.00    +0.022 A 
ATOM      6  C   LIG    1        4.025  -7.277  -1.559  0.00  0.00    +0.013 A 
ATOM      7  C   LIG    1        5.164  -7.581  -2.249  0.00  0.00    +0.020 A 
ATOM      8  C   LIG    1        5.672  -6.681  -3.183  0.00  0.00    +0.111 A 
ATOM      9  N   LIG    1        5.085  -5.534  -3.425  0.00  0.00    -0.251 NA
ATOM     10  C   LIG    1        3.968  -5.176  -2.784  0.00  0.00    +0.114 A 
ATOM     11  C   LIG    1        3.337  -3.943  -3.053  0.00  0.00    +0.148 A 
ENDROOT
BRANCH  11  12
ATOM     12  O   LIG    1        3.862  -3.095  -3.976  0.00  0.00    -0.504 OA
ATOM     13  H   LIG    1        3.441  -2.277  -4.153  0.00  0.00    +0.292 HD
ENDBRANCH  11  12
BRANCH   1  14
ATOM     14  C   LIG    1        1.532  -2.285  -2.665  0.00  0.00    +0.144 C 
BRANCH  14  15
ATOM     15  C   LIG    1        0.578  -2.445  -3.821  0.00  0.00    +0.015 A 
ATOM     16  C   LIG    1        0.756  -2.123  -5.125  0.00  0.00    +0.013 A 
ATOM     17  C   LIG    1       -0.269  -2.362  -6.020  0.00  0.00    +0.008 A 
ATOM     18  C   LIG    1       -1.423  -2.912  -5.567  0.00  0.00    +0.045 A 
ATOM     19  S   LIG    1       -1.076  -3.115  -3.828  0.00  0.00    -0.099 S 
ENDBRANCH  14  15
BRANCH  14  21
ATOM     20  C   LIG    1        0.583  -0.529  -1.267  0.00  0.00    +0.213 C 
ATOM     21  N   LIG    1        0.793  -1.843  -1.479  0.00  0.00    -0.304 N 
ATOM     22  H   LIG    1        0.456  -2.497  -0.847  0.00  0.00    +0.150 HD
ATOM     23  O   LIG    1        1.005   0.288  -2.057  0.00  0.00    -0.276 OA
BRANCH  20  25
ATOM     24  C   LIG    1       -0.274   1.452  -0.046  0.00  0.00    +0.013 C 
ATOM     25  C   LIG    1       -0.177  -0.075  -0.047  0.00  0.00    +0.092 C 
ENDBRANCH  20  25
ENDBRANCH  14  21
ENDBRANCH   1  14
TORSDOF 5
