REMARK  Name = ZINC00156701
REMARK                            x       y       z     vdW  Elec       q    Type
REMARK                         _______ _______ _______ _____ _____    ______ ____
ROOT
ATOM      1  C   LIG    1       -1.293  -0.774   0.011  0.00  0.00    +0.211 C 
ATOM      2  C   LIG    1       -1.655  -1.153   1.454  0.00  0.00    +0.129 C 
ATOM      3  C   LIG    1       -2.943  -1.953   1.400  0.00  0.00    +0.174 C 
ATOM      4  C   LIG    1       -3.071  -2.918   0.302  0.00  0.00    +0.101 A 
ATOM      5  C   LIG    1       -4.097  -3.877   0.307  0.00  0.00    +0.134 A 
ATOM      6  C   LIG    1       -4.202  -4.767  -0.747  0.00  0.00    +0.091 A 
ATOM      7  C   LIG    1       -3.295  -4.712  -1.798  0.00  0.00    +0.124 A 
ATOM      8  C   LIG    1       -2.275  -3.769  -1.806  0.00  0.00    +0.092 A 
ATOM      9  C   LIG    1       -2.150  -2.870  -0.761  0.00  0.00    +0.139 A 
ATOM     10  O   LIG    1       -3.824  -1.802   2.222  0.00  0.00    -0.292 OA
ATOM     11  O   LIG    1       -1.147  -1.961  -0.768  0.00  0.00    -0.483 OA
ENDROOT
BRANCH   1  17
ATOM     12  C   LIG    1       -0.017   1.378   0.010  0.00  0.00    +0.011 A 
ATOM     13  C   LIG    1        1.169   2.087   0.002  0.00  0.00    +0.046 A 
ATOM     14  C   LIG    1        2.380   1.409  -0.013  0.00  0.00    +0.117 A 
ATOM     15  C   LIG    1        2.396   0.022  -0.021  0.00  0.00    +0.046 A 
ATOM     16  C   LIG    1        1.207  -0.681  -0.013  0.00  0.00    +0.011 A 
ATOM     17  C   LIG    1        0.002  -0.004   0.002  0.00  0.00    -0.007 A 
BRANCH  14  18
ATOM     18  O   LIG    1        3.548   2.104  -0.021  0.00  0.00    -0.507 OA
ATOM     19  H   LIG    1        3.895   2.300   0.860  0.00  0.00    +0.292 HD
ENDBRANCH  14  18
ENDBRANCH   1  17
BRANCH   5  20
ATOM     20  O   LIG    1       -4.978  -3.930   1.336  0.00  0.00    -0.506 OA
ATOM     21  H   LIG    1       -5.763  -3.380   1.210  0.00  0.00    +0.292 HD
ENDBRANCH   5  20
BRANCH   7  22
ATOM     22  O   LIG    1       -3.408  -5.587  -2.829  0.00  0.00    -0.507 OA
ATOM     23  H   LIG    1       -3.968  -5.273  -3.552  0.00  0.00    +0.292 HD
ENDBRANCH   7  22
TORSDOF 4
