REMARK  Name = ZINC00156390
REMARK                            x       y       z     vdW  Elec       q    Type
REMARK                         _______ _______ _______ _____ _____    ______ ____
ROOT
ATOM      1  C   LIG    1       -0.017   1.393   0.010  0.00  0.00    +0.017 A 
ATOM      2  C   LIG    1        1.167   2.096   0.002  0.00  0.00    +0.023 A 
ATOM      3  C   LIG    1        2.381   1.417  -0.013  0.00  0.00    +0.025 A 
ATOM      4  C   LIG    1        2.403   0.025  -0.022  0.00  0.00    +0.023 A 
ATOM      5  C   LIG    1        1.223  -0.683  -0.014  0.00  0.00    +0.017 A 
ATOM      6  C   LIG    1        0.002  -0.004   0.002  0.00  0.00    +0.061 A 
ENDROOT
BRANCH   6   7
ATOM      7  C   LIG    1       -1.266  -0.761   0.011  0.00  0.00    +0.266 C 
ATOM      8  N   LIG    1       -1.246  -2.094   0.003  0.00  0.00    -0.288 N 
ATOM      9  H   LIG    1       -2.079  -2.591   0.009  0.00  0.00    +0.301 HD
ATOM     10  H   LIG    1       -0.399  -2.566  -0.008  0.00  0.00    +0.301 HD
BRANCH   7  11
ATOM     11  N   LIG    1       -2.430  -0.112   0.026  0.00  0.00    -0.250 N 
ATOM     12  H   LIG    1       -3.262  -0.609   0.031  0.00  0.00    +0.288 HD
ATOM     13  H   LIG    1       -2.444   0.858   0.031  0.00  0.00    +0.288 HD
ENDBRANCH   7  11
ENDBRANCH   6   7
BRANCH   3  14
ATOM     14  N   LIG    1        3.575   2.130  -0.022  0.00  0.00    -0.358 N 
ATOM     15  H   LIG    1        4.423   1.657  -0.033  0.00  0.00    +0.142 HD
ATOM     16  H   LIG    1        3.561   3.100  -0.016  0.00  0.00    +0.142 HD
ENDBRANCH   3  14
TORSDOF 3
