REMARK  Name = ZINC00103695
REMARK                            x       y       z     vdW  Elec       q    Type
REMARK                         _______ _______ _______ _____ _____    ______ ____
ROOT
ATOM      1  C   LIG    1        3.792   2.077  -0.099  0.00  0.00    +0.044 C 
ATOM      2  C   LIG    1        2.479   1.337  -0.070  0.00  0.00    -0.049 A 
ATOM      3  C   LIG    1        1.292   2.045  -0.058  0.00  0.00    +0.005 A 
ATOM      4  C   LIG    1        0.080   1.375  -0.051  0.00  0.00    +0.025 A 
ATOM      5  C   LIG    1        0.070  -0.008  -0.040  0.00  0.00    +0.052 A 
ATOM      6  C   LIG    1        1.260  -0.720  -0.019  0.00  0.00    +0.050 A 
ATOM      7  N   LIG    1        1.202  -2.110   0.076  0.00  0.00    -0.331 N 
ATOM      8  H   LIG    1        1.524  -2.653  -0.660  0.00  0.00    +0.147 HD
ATOM      9  C   LIG    1        0.670  -2.754   1.258  0.00  0.00    +0.136 C 
ATOM     10  C   LIG    1       -0.797  -2.495   1.505  0.00  0.00    +0.036 C 
ATOM     11  C   LIG    1       -1.553  -1.579   0.875  0.00  0.00    +0.017 C 
ATOM     12  C   LIG    1       -3.025  -1.426   1.220  0.00  0.00    +0.058 C 
ATOM     13  C   LIG    1       -3.250  -1.746   2.697  0.00  0.00    -0.023 C 
ATOM     14  C   LIG    1       -4.736  -1.609   3.036  0.00  0.00    +0.011 C 
ATOM     15  C   LIG    1       -2.429  -0.792   3.565  0.00  0.00    +0.011 C 
ATOM     16  C   LIG    1       -2.794  -3.190   2.936  0.00  0.00    +0.086 C 
ATOM     17  C   LIG    1       -1.362  -3.316   2.509  0.00  0.00    +0.163 C 
ATOM     18  O   LIG    1       -0.662  -4.153   3.045  0.00  0.00    -0.292 OA
ATOM     19  N   LIG    1       -1.108  -0.745  -0.099  0.00  0.00    -0.316 N 
ATOM     20  H   LIG    1       -1.654  -0.655  -0.896  0.00  0.00    +0.152 HD
ATOM     21  C   LIG    1        2.471  -0.047  -0.054  0.00  0.00    +0.028 A 
ENDROOT
BRANCH   9  22
ATOM     22  C   LIG    1        1.448  -2.274   2.456  0.00  0.00    -0.023 A 
ATOM     23  C   LIG    1        1.449  -0.931   2.786  0.00  0.00    +0.006 A 
ATOM     24  C   LIG    1        2.159  -0.491   3.887  0.00  0.00    +0.000 A 
ATOM     25  C   LIG    1        2.876  -1.393   4.653  0.00  0.00    +0.000 A 
ATOM     26  C   LIG    1        2.878  -2.734   4.320  0.00  0.00    +0.000 A 
ATOM     27  C   LIG    1        2.164  -3.175   3.221  0.00  0.00    +0.006 A 
ENDBRANCH   9  22
TORSDOF 1
