REMARK  Name = ZINC00085670
REMARK                            x       y       z     vdW  Elec       q    Type
REMARK                         _______ _______ _______ _____ _____    ______ ____
ROOT
ATOM      1  N   LIG    1        3.320   3.646  -0.008  0.00  0.00    -0.274 N 
ATOM      2  C   LIG    1        3.558   2.325  -0.018  0.00  0.00    +0.266 A 
ATOM      3  C   LIG    1        2.424   1.409  -0.013  0.00  0.00    +0.055 A 
ATOM      4  C   LIG    1        2.401  -0.002  -0.020  0.00  0.00    +0.016 A 
ATOM      5  C   LIG    1        1.218  -0.675  -0.013  0.00  0.00    +0.033 A 
ATOM      6  C   LIG    1        0.002  -0.004   0.002  0.00  0.00    +0.123 A 
ATOM      7  C   LIG    1       -0.017   1.376   0.010  0.00  0.00    +0.049 A 
ATOM      8  C   LIG    1        1.177   2.070   0.002  0.00  0.00    +0.044 A 
ATOM      9  O   LIG    1        4.700   1.899  -0.030  0.00  0.00    -0.266 OA
ATOM     10  S   LIG    1        1.618   3.787   0.008  0.00  0.00    -0.008 S 
ENDROOT
BRANCH   6  11
ATOM     11  N   LIG    1       -1.267  -0.765   0.011  0.00  0.00    +0.006 N 
ATOM     12  O   LIG    1       -2.332  -0.174   0.024  0.00  0.00    -0.130 OA
BRANCH  11  13
ATOM     13  O   LIG    1       -1.247  -1.983   0.004  0.00  0.00    -0.396 OA
ATOM     14  H   LIG    1       -0.428  -2.438  -0.007  0.00  0.00    +0.329 HD
ENDBRANCH  11  13
ENDBRANCH   6  11
BRANCH   1  15
ATOM     15  C   LIG    1        4.305   4.731  -0.011  0.00  0.00    +0.168 C 
BRANCH  15  19
ATOM     16  C   LIG    1        5.488   5.572  -4.028  0.00  0.00    +0.000 A 
ATOM     17  C   LIG    1        4.412   6.238  -3.470  0.00  0.00    +0.000 A 
ATOM     18  C   LIG    1        4.029   5.966  -2.170  0.00  0.00    +0.005 A 
ATOM     19  C   LIG    1        4.722   5.027  -1.428  0.00  0.00    -0.027 A 
ATOM     20  C   LIG    1        5.800   4.365  -1.984  0.00  0.00    +0.005 A 
ATOM     21  C   LIG    1        6.180   4.634  -3.286  0.00  0.00    +0.000 A 
ENDBRANCH  15  19
ENDBRANCH   1  15
TORSDOF 4
