REMARK  Name = ZINC00171814
REMARK                            x       y       z     vdW  Elec       q    Type
REMARK                         _______ _______ _______ _____ _____    ______ ____
ROOT
ATOM      1  C   LIG    1       -3.451  -1.617   0.026  0.00  0.00    +0.020 A 
ATOM      2  C   LIG    1       -2.521  -0.600   0.023  0.00  0.00    +0.014 A 
ATOM      3  C   LIG    1       -1.147  -0.929   0.008  0.00  0.00    +0.034 A 
ATOM      4  C   LIG    1        0.002  -0.004   0.002  0.00  0.00    +0.092 A 
ATOM      5  C   LIG    1        1.268  -0.601  -0.013  0.00  0.00    +0.080 A 
ATOM      6  S   LIG    1        0.943  -2.343  -0.020  0.00  0.00    -0.064 S 
ATOM      7  C   LIG    1        2.422   0.171  -0.020  0.00  0.00    +0.139 A 
ATOM      8  N   LIG    1        2.293   1.498  -0.012  0.00  0.00    -0.220 NA
ATOM      9  C   LIG    1        1.092   2.045   0.003  0.00  0.00    +0.224 A 
ATOM     10  N   LIG    1       -0.016   1.348   0.009  0.00  0.00    -0.234 NA
ATOM     11  C   LIG    1       -0.833  -2.300  -0.003  0.00  0.00    +0.111 A 
ATOM     12  N   LIG    1       -1.755  -3.239  -0.000  0.00  0.00    -0.248 NA
ATOM     13  C   LIG    1       -3.041  -2.939   0.014  0.00  0.00    +0.112 A 
ENDROOT
BRANCH   7  14
ATOM     14  N   LIG    1        3.675  -0.422  -0.036  0.00  0.00    -0.310 N 
ATOM     15  C   LIG    1        3.837  -1.341   1.100  0.00  0.00    +0.134 C 
ATOM     16  C   LIG    1        5.207  -2.017   1.011  0.00  0.00    +0.178 C 
ATOM     17  O   LIG    1        6.227  -1.014   0.976  0.00  0.00    -0.377 OA
ATOM     18  C   LIG    1        6.100  -0.102  -0.118  0.00  0.00    +0.178 C 
ATOM     19  C   LIG    1        4.738   0.593  -0.041  0.00  0.00    +0.134 C 
ENDBRANCH   7  14
TORSDOF 1
