REMARK  Name = ZINC00154151
REMARK                            x       y       z     vdW  Elec       q    Type
REMARK                         _______ _______ _______ _____ _____    ______ ____
ROOT
ATOM      1  N   LIG    1        3.606  -0.652   0.121  0.00  0.00    -0.269 N 
ATOM      2  H   LIG    1        4.416  -0.158  -0.078  0.00  0.00    +0.156 HD
ATOM      3  C   LIG    1        3.643  -1.996   0.219  0.00  0.00    +0.308 C 
ATOM      4  N   LIG    1        4.823  -2.644   0.144  0.00  0.00    -0.269 N 
ATOM      5  H   LIG    1        5.651  -2.141   0.096  0.00  0.00    +0.156 HD
ATOM      6  O   LIG    1        2.613  -2.623   0.374  0.00  0.00    -0.252 OA
ENDROOT
BRANCH   1  10
ATOM      7  C   LIG    1        0.010   1.377   0.673  0.00  0.00    +0.000 A 
ATOM      8  C   LIG    1        0.264   0.218   1.383  0.00  0.00    +0.002 A 
ATOM      9  C   LIG    1        1.455  -0.457   1.202  0.00  0.00    +0.023 A 
ATOM     10  C   LIG    1        2.398   0.029   0.306  0.00  0.00    +0.035 A 
ATOM     11  C   LIG    1        2.140   1.194  -0.405  0.00  0.00    +0.023 A 
ATOM     12  C   LIG    1        0.947   1.865  -0.220  0.00  0.00    +0.002 A 
ENDBRANCH   1  10
BRANCH   4  13
ATOM     13  C   LIG    1        4.853  -4.043   0.137  0.00  0.00    +0.035 A 
ATOM     14  C   LIG    1        3.824  -4.758  -0.462  0.00  0.00    +0.025 A 
ATOM     15  C   LIG    1        3.856  -6.139  -0.468  0.00  0.00    +0.030 A 
ATOM     16  C   LIG    1        4.912  -6.809   0.122  0.00  0.00    +0.105 A 
ATOM     17  C   LIG    1        5.938  -6.101   0.720  0.00  0.00    +0.030 A 
ATOM     18  C   LIG    1        5.914  -4.720   0.724  0.00  0.00    +0.025 A 
BRANCH  16  19
ATOM     19  S   LIG    1        4.949  -8.571   0.113  0.00  0.00    +0.056 S 
ATOM     20  O   LIG    1        3.603  -9.005  -0.028  0.00  0.00    -0.153 OA
ATOM     21  O   LIG    1        5.767  -8.966   1.206  0.00  0.00    -0.153 OA
BRANCH  19  22
ATOM     22  N   LIG    1        5.743  -9.037  -1.264  0.00  0.00    -0.204 NA
ATOM     23  H   LIG    1        5.702  -8.481  -2.059  0.00  0.00    +0.144 HD
ATOM     24  H   LIG    1        6.249  -9.864  -1.276  0.00  0.00    +0.144 HD
ENDBRANCH  19  22
ENDBRANCH  16  19
ENDBRANCH   4  13
TORSDOF 4
