REMARK  Name = ZINC00210586
REMARK                            x       y       z     vdW  Elec       q    Type
REMARK                         _______ _______ _______ _____ _____    ______ ____
ROOT
ATOM      1  C   LIG    1       -0.017   1.388   0.010  0.00  0.00    +0.049 A 
ATOM      2  C   LIG    1        1.158   2.108   0.002  0.00  0.00    +0.050 A 
ATOM      3  C   LIG    1        2.380   1.445  -0.013  0.00  0.00    +0.136 A 
ATOM      4  C   LIG    1        2.401   0.041  -0.018  0.00  0.00    +0.028 A 
ATOM      5  C   LIG    1        3.818  -0.338  -0.028  0.00  0.00    +0.011 A 
ATOM      6  C   LIG    1        4.525   0.816  -0.020  0.00  0.00    +0.194 A 
ATOM      7  C   LIG    1        5.974   0.996   0.006  0.00  0.00    +0.280 C 
ATOM      8  N   LIG    1        6.923   0.091   0.032  0.00  0.00    -0.309 N 
ATOM      9  H   LIG    1        7.825   0.437   0.116  0.00  0.00    +0.149 HD
ATOM     10  C   LIG    1        6.815  -1.341  -0.046  0.00  0.00    +0.105 C 
ATOM     11  C   LIG    1        5.631  -1.914   0.685  0.00  0.00    +0.023 C 
ATOM     12  O   LIG    1        6.356   2.151   0.003  0.00  0.00    -0.267 OA
ATOM     13  C   LIG    1        4.328  -1.743  -0.050  0.00  0.00    +0.041 C 
ATOM     14  C   LIG    1        1.205  -0.682  -0.011  0.00  0.00    +0.057 A 
ATOM     15  O   LIG    1        3.656   1.865  -0.027  0.00  0.00    -0.450 OA
ATOM     16  C   LIG    1        0.002  -0.004   0.002  0.00  0.00    +0.118 A 
ENDROOT
BRANCH  16  17
ATOM     17  O   LIG    1       -1.167  -0.698   0.008  0.00  0.00    -0.507 OA
ATOM     18  H   LIG    1       -1.513  -0.894  -0.874  0.00  0.00    +0.292 HD
ENDBRANCH  16  17
TORSDOF 1
