REMARK  Name = ZINC00295955
REMARK                            x       y       z     vdW  Elec       q    Type
REMARK                         _______ _______ _______ _____ _____    ______ ____
ROOT
ATOM      1  C   LIG    1        3.742   1.823  -0.025  0.00  0.00    +0.087 A 
ATOM      2  C   LIG    1        4.764   0.959   0.256  0.00  0.00    +0.077 A 
ATOM      3  S   LIG    1        6.139   2.096   0.377  0.00  0.00    -0.060 S 
ATOM      4  C   LIG    1        5.223   3.594   0.045  0.00  0.00    +0.163 A 
ATOM      5  N   LIG    1        4.001   3.125  -0.128  0.00  0.00    -0.224 NA
ENDROOT
BRANCH   1   8
ATOM      6  C   LIG    1        0.040   1.317  -0.641  0.00  0.00    +0.008 A 
ATOM      7  C   LIG    1        1.223   2.013  -0.506  0.00  0.00    +0.017 A 
ATOM      8  C   LIG    1        2.366   1.317  -0.217  0.00  0.00    +0.038 A 
ATOM      9  S   LIG    1        1.763  -0.362  -0.134  0.00  0.00    -0.095 S 
ATOM     10  C   LIG    1        0.045  -0.031  -0.485  0.00  0.00    +0.046 A 
ENDBRANCH   1   8
BRANCH   4  11
ATOM     11  N   LIG    1        5.677   4.902  -0.019  0.00  0.00    -0.294 N 
ATOM     12  H   LIG    1        5.045   5.630  -0.127  0.00  0.00    +0.154 HD
BRANCH  11  13
ATOM     13  C   LIG    1        7.047   5.173   0.073  0.00  0.00    +0.033 A 
ATOM     14  C   LIG    1        7.965   4.331  -0.542  0.00  0.00    +0.027 A 
ATOM     15  C   LIG    1        9.316   4.599  -0.451  0.00  0.00    +0.047 A 
ATOM     16  C   LIG    1        9.758   5.708   0.255  0.00  0.00    +0.117 A 
ATOM     17  C   LIG    1        8.842   6.550   0.869  0.00  0.00    +0.047 A 
ATOM     18  C   LIG    1        7.490   6.287   0.774  0.00  0.00    +0.027 A 
BRANCH  16  19
ATOM     19  O   LIG    1       11.089   5.971   0.344  0.00  0.00    -0.507 OA
ATOM     20  H   LIG    1       11.428   6.534  -0.366  0.00  0.00    +0.292 HD
ENDBRANCH  16  19
ENDBRANCH  11  13
ENDBRANCH   4  11
TORSDOF 4
