REMARK  Name = ZINC00216961
REMARK                            x       y       z     vdW  Elec       q    Type
REMARK                         _______ _______ _______ _____ _____    ______ ____
ROOT
ATOM      1  C   LIG    1       -3.437  -1.037   0.288  0.00  0.00    +0.003 A 
ATOM      2  C   LIG    1       -4.673  -0.423   0.292  0.00  0.00    +0.015 A 
ATOM      3  C   LIG    1       -4.761   0.968   0.204  0.00  0.00    +0.061 A 
ATOM      4  C   LIG    1       -3.597   1.732   0.113  0.00  0.00    +0.038 A 
ATOM      5  C   LIG    1       -2.361   1.105   0.110  0.00  0.00    +0.034 A 
ATOM      6  C   LIG    1       -2.284  -0.281   0.192  0.00  0.00    +0.023 A 
ENDROOT
BRANCH   5   7
ATOM      7  N   LIG    1       -1.191   1.867   0.018  0.00  0.00    -0.285 N 
ATOM      8  H   LIG    1       -0.426   1.524  -0.471  0.00  0.00    +0.155 HD
ATOM      9  C   LIG    1       -1.125   3.076   0.610  0.00  0.00    +0.218 C 
ATOM     10  O   LIG    1       -2.107   3.540   1.150  0.00  0.00    -0.275 OA
BRANCH   9  11
ATOM     11  C   LIG    1        0.169   3.848   0.605  0.00  0.00    +0.107 C 
BRANCH  11  12
ATOM     12  C   LIG    1       -0.026   5.174   1.343  0.00  0.00    +0.129 C 
BRANCH  12  13
ATOM     13  C   LIG    1        1.268   5.946   1.339  0.00  0.00    +0.305 C 
ATOM     14  O   LIG    1        2.246   5.483   0.801  0.00  0.00    -0.251 OA
BRANCH  13  15
ATOM     15  O   LIG    1        1.335   7.148   1.933  0.00  0.00    -0.481 OA
ATOM     16  H   LIG    1        0.576   7.507   2.350  0.00  0.00    +0.295 HD
ENDBRANCH  13  15
ENDBRANCH  12  13
ENDBRANCH  11  12
ENDBRANCH   9  11
ENDBRANCH   5   7
BRANCH   3  17
ATOM     17  C   LIG    1       -6.083   1.628   0.208  0.00  0.00    +0.337 C 
ATOM     18  O   LIG    1       -6.158   2.838   0.131  0.00  0.00    -0.245 OA
BRANCH  17  19
ATOM     19  O   LIG    1       -7.205   0.888   0.297  0.00  0.00    -0.477 OA
ATOM     20  H   LIG    1       -7.148  -0.045   0.356  0.00  0.00    +0.295 HD
ENDBRANCH  17  19
ENDBRANCH   3  17
TORSDOF 7
