REMARK  Name = ZINC00100760
REMARK                            x       y       z     vdW  Elec       q    Type
REMARK                         _______ _______ _______ _____ _____    ______ ____
ROOT
ATOM      1  N   LIG    1        0.745   2.168   3.052  0.00  0.00    -0.210 N 
ATOM      2  C   LIG    1        0.023   1.203   2.472  0.00  0.00    +0.231 C 
ATOM      3  C   LIG    1       -0.651   1.752   1.235  0.00  0.00    +0.095 C 
ATOM      4  C   LIG    1        0.038   1.123  -0.017  0.00  0.00    +0.025 C 
ATOM      5  C   LIG    1        1.411   1.890  -0.004  0.00  0.00    +0.016 C 
ATOM      6  C   LIG    1        0.727   3.303  -0.089  0.00  0.00    +0.025 C 
ATOM      7  C   LIG    1       -0.233   3.060  -1.260  0.00  0.00    -0.027 C 
ATOM      8  C   LIG    1       -0.631   1.804  -1.218  0.00  0.00    -0.027 C 
ATOM      9  C   LIG    1       -0.189   3.252   1.174  0.00  0.00    +0.095 C 
ATOM     10  O   LIG    1       -0.076   0.064   2.876  0.00  0.00    -0.274 OA
ATOM     11  C   LIG    1        0.685   3.378   2.400  0.00  0.00    +0.231 C 
ATOM     12  O   LIG    1        1.263   4.386   2.747  0.00  0.00    -0.274 OA
ENDROOT
BRANCH   1  20
ATOM     13  C   LIG    1        2.874   2.009   4.186  0.00  0.00    +0.027 A 
ATOM     14  C   LIG    1        3.604   1.803   5.341  0.00  0.00    +0.041 A 
ATOM     15  C   LIG    1        2.953   1.548   6.536  0.00  0.00    +0.142 A 
ATOM     16  F   LIG    1        3.669   1.348   7.664  0.00  0.00    -0.204 F 
ATOM     17  C   LIG    1        1.569   1.498   6.576  0.00  0.00    +0.078 A 
ATOM     18 CL   LIG    1        0.755   1.178   8.076  0.00  0.00    -0.081 Cl
ATOM     19  C   LIG    1        0.836   1.709   5.424  0.00  0.00    +0.046 A 
ATOM     20  C   LIG    1        1.487   1.959   4.224  0.00  0.00    +0.045 A 
ENDBRANCH   1  20
TORSDOF 1
