REMARK  Name = ZINC00087000
REMARK                            x       y       z     vdW  Elec       q    Type
REMARK                         _______ _______ _______ _____ _____    ______ ____
ROOT
ATOM      1  C   LIG    1       -0.016   1.358   0.009  0.00  0.00    +0.000 C 
ATOM      2  C   LIG    1        1.170   2.088   0.002  0.00  0.00    +0.002 C 
ATOM      3  C   LIG    1        2.379   1.462  -0.013  0.00  0.00    +0.019 C 
ATOM      4  C   LIG    1        2.438   0.058  -0.022  0.00  0.00    +0.058 C 
ATOM      5  C   LIG    1        1.230  -0.680  -0.013  0.00  0.00    +0.023 C 
ATOM      6  C   LIG    1        1.299  -2.091  -0.019  0.00  0.00    +0.062 C 
ATOM      7  C   LIG    1        2.554  -2.693  -0.038  0.00  0.00    +0.051 C 
ATOM      8  C   LIG    1        3.692  -1.905  -0.051  0.00  0.00    +0.061 C 
ATOM      9  C   LIG    1        5.078  -2.500  -0.089  0.00  0.00    +0.019 C 
ATOM     10  C   LIG    1        5.046  -3.965   0.340  0.00  0.00    +0.004 C 
ATOM     11  C   LIG    1        3.979  -4.689  -0.488  0.00  0.00    +0.032 C 
ATOM     12  C   LIG    1        2.605  -4.197  -0.037  0.00  0.00    +0.121 C 
ATOM     13  N   LIG    1        3.606  -0.586  -0.040  0.00  0.00    -0.310 NA
ATOM     14  H   LIG    1        4.424  -0.065  -0.045  0.00  0.00    +0.122 HD
ATOM     15  C   LIG    1        0.002  -0.004   0.002  0.00  0.00    +0.006 C 
ENDROOT
BRANCH   6  16
ATOM     16  N   LIG    1        0.145  -2.858  -0.007  0.00  0.00    -0.327 NA
ATOM     17  H   LIG    1        0.206  -3.826  -0.011  0.00  0.00    +0.118 HD
ATOM     18  H   LIG    1       -0.724  -2.427   0.007  0.00  0.00    +0.118 HD
ENDBRANCH   6  16
BRANCH  12  19
ATOM     19  O   LIG    1        2.343  -4.677   1.283  0.00  0.00    -0.391 OA
ATOM     20  H   LIG    1        2.359  -5.641   1.361  0.00  0.00    +0.210 HD
ENDBRANCH  12  19
TORSDOF 2
