REMARK  Name = ZINC00342407
REMARK                            x       y       z     vdW  Elec       q    Type
REMARK                         _______ _______ _______ _____ _____    ______ ____
ROOT
ATOM      1  C   LIG    1        4.679  -2.478   5.761  0.00  0.00    +0.102 C 
ATOM      2  N   LIG    1        4.286  -2.235   7.002  0.00  0.00    -0.168 NA
ATOM      3  C   LIG    1        3.280  -1.435   7.278  0.00  0.00    +0.275 C 
ATOM      4  C   LIG    1        2.590  -0.822   6.123  0.00  0.00    +0.078 C 
ATOM      5  C   LIG    1        1.529   0.032   6.093  0.00  0.00    +0.032 C 
ATOM      6  O   LIG    1        2.931  -1.213   8.428  0.00  0.00    -0.267 OA
ATOM      7  S   LIG    1        3.545  -1.511   4.777  0.00  0.00    -0.066 S 
ENDROOT
BRANCH   1  12
ATOM      8  C   LIG    1        8.992  -5.840   3.973  0.00  0.00    +0.044 C 
ATOM      9  C   LIG    1        7.862  -4.960   4.442  0.00  0.00    -0.050 A 
ATOM     10  C   LIG    1        7.605  -4.831   5.795  0.00  0.00    +0.004 A 
ATOM     11  C   LIG    1        6.573  -4.026   6.231  0.00  0.00    +0.010 A 
ATOM     12  C   LIG    1        5.786  -3.341   5.302  0.00  0.00    +0.005 A 
ATOM     13  C   LIG    1        6.047  -3.480   3.937  0.00  0.00    +0.010 A 
ATOM     14  C   LIG    1        7.086  -4.284   3.516  0.00  0.00    +0.004 A 
ENDBRANCH   1  12
BRANCH   5  15
ATOM     15  C   LIG    1        0.915   0.391   4.813  0.00  0.00    +0.018 A 
ATOM     16  C   LIG    1        1.141  -0.399   3.677  0.00  0.00    +0.015 A 
ATOM     17  C   LIG    1        0.562  -0.065   2.486  0.00  0.00    +0.046 A 
ATOM     18  C   LIG    1       -0.244   1.066   2.388  0.00  0.00    +0.124 A 
ATOM     19  C   LIG    1       -0.479   1.860   3.502  0.00  0.00    +0.091 A 
ATOM     20  C   LIG    1        0.096   1.531   4.717  0.00  0.00    +0.131 A 
BRANCH  18  21
ATOM     21  O   LIG    1       -0.810   1.390   1.197  0.00  0.00    -0.495 OA
ATOM     22  C   LIG    1       -0.528   0.531   0.090  0.00  0.00    +0.277 C 
ENDBRANCH  18  21
BRANCH  20  23
ATOM     23  O   LIG    1       -0.129   2.304   5.809  0.00  0.00    -0.494 OA
ATOM     24  C   LIG    1       -0.971   3.445   5.635  0.00  0.00    +0.277 C 
ENDBRANCH  20  23
ENDBRANCH   5  15
TORSDOF 4
