REMARK  Name = ZINC00216834
REMARK                            x       y       z     vdW  Elec       q    Type
REMARK                         _______ _______ _______ _____ _____    ______ ____
ROOT
ATOM      1  N   LIG    1       -0.024  -0.014   0.006  0.00  0.00    +0.382 N 
ATOM      2  H   LIG    1       -0.985  -0.344   0.151  0.00  0.00    -0.082 HD
ATOM      3  C   LIG    1        0.466  -0.517  -1.294  0.00  0.00    -0.060 C 
ATOM      4  C   LIG    1        0.397  -2.046  -1.289  0.00  0.00    +0.086 C 
ATOM      5  N   LIG    1        1.225  -2.568  -0.193  0.00  0.00    -0.333 N 
ATOM      6  C   LIG    1        0.761  -2.054   1.104  0.00  0.00    +0.086 C 
ATOM      7  C   LIG    1        0.830  -0.526   1.099  0.00  0.00    -0.060 C 
ENDROOT
BRANCH   5   8
ATOM      8  C   LIG    1        1.244  -3.964  -0.200  0.00  0.00    +0.031 A 
ATOM      9  C   LIG    1        0.529  -4.665  -1.164  0.00  0.00    +0.023 A 
ATOM     10  C   LIG    1        0.554  -6.046  -1.173  0.00  0.00    +0.003 A 
ATOM     11  C   LIG    1        1.280  -6.732  -0.217  0.00  0.00    +0.020 A 
ATOM     12  C   LIG    1        1.989  -6.038   0.748  0.00  0.00    +0.043 A 
ATOM     13 CL   LIG    1        2.899  -6.904   1.946  0.00  0.00    -0.083 Cl
ATOM     14  C   LIG    1        1.972  -4.656   0.759  0.00  0.00    +0.043 A 
ENDBRANCH   5   8
BRANCH   1  15
ATOM     15  C   LIG    1       -0.018   1.465   0.010  0.00  0.00    -0.074 C 
BRANCH  15  16
ATOM     16  C   LIG    1       -0.734   1.958   1.269  0.00  0.00    +0.016 C 
BRANCH  16  20
ATOM     17  C   LIG    1       -0.792   6.229   1.293  0.00  0.00    +0.000 A 
ATOM     18  C   LIG    1       -1.825   5.527   0.700  0.00  0.00    +0.000 A 
ATOM     19  C   LIG    1       -1.806   4.145   0.692  0.00  0.00    +0.003 A 
ATOM     20  C   LIG    1       -0.754   3.465   1.277  0.00  0.00    -0.049 A 
ATOM     21  C   LIG    1        0.276   4.167   1.875  0.00  0.00    +0.003 A 
ATOM     22  C   LIG    1        0.259   5.549   1.878  0.00  0.00    +0.000 A 
ENDBRANCH  16  20
ENDBRANCH  15  16
ENDBRANCH   1  15
TORSDOF 4
