REMARK  Name = ZINC00270639
REMARK                            x       y       z     vdW  Elec       q    Type
REMARK                         _______ _______ _______ _____ _____    ______ ____
ROOT
ATOM      1  C   LIG    1       -1.599  -1.884   0.131  0.00  0.00    +0.221 A 
ATOM      2  N   LIG    1       -0.591  -2.710  -0.133  0.00  0.00    -0.185 NA
ATOM      3  C   LIG    1       -0.828  -4.000  -0.349  0.00  0.00    +0.238 A 
ATOM      4  N   LIG    1       -2.073  -4.463  -0.302  0.00  0.00    -0.185 NA
ATOM      5  C   LIG    1       -3.080  -3.637  -0.038  0.00  0.00    +0.225 A 
ATOM      6  N   LIG    1       -2.842  -2.348   0.183  0.00  0.00    -0.181 NA
ENDROOT
BRANCH   1   7
ATOM      7  N   LIG    1       -1.353  -0.544   0.356  0.00  0.00    -0.314 N 
ATOM      8  H   LIG    1       -2.087   0.058   0.552  0.00  0.00    +0.149 HD
BRANCH   7  10
ATOM      9  C   LIG    1        0.014   1.472   0.583  0.00  0.00    +0.024 C 
ATOM     10  C   LIG    1        0.019  -0.032   0.298  0.00  0.00    +0.101 C 
ENDBRANCH   7  10
ENDBRANCH   1   7
BRANCH   3  11
ATOM     11  C   LIG    1        0.257  -4.889  -0.634  0.00  0.00    +0.140 C 
ATOM     12  N   LIG    1        1.118  -5.595  -0.860  0.00  0.00    -0.188 NA
ENDBRANCH   3  11
BRANCH   5  13
ATOM     13  N   LIG    1       -4.374  -4.119   0.011  0.00  0.00    -0.283 N 
ATOM     14  H   LIG    1       -5.117  -3.505   0.122  0.00  0.00    +0.155 HD
BRANCH  13  15
ATOM     15  C   LIG    1       -4.614  -5.492  -0.099  0.00  0.00    +0.034 A 
ATOM     16  C   LIG    1       -3.742  -6.400   0.488  0.00  0.00    +0.023 A 
ATOM     17  C   LIG    1       -3.982  -7.756   0.377  0.00  0.00    +0.002 A 
ATOM     18  C   LIG    1       -5.087  -8.209  -0.318  0.00  0.00    +0.000 A 
ATOM     19  C   LIG    1       -5.956  -7.308  -0.905  0.00  0.00    +0.002 A 
ATOM     20  C   LIG    1       -5.726  -5.951  -0.793  0.00  0.00    +0.023 A 
ENDBRANCH  13  15
ENDBRANCH   5  13
TORSDOF 5
