REMARK  Name = ZINC00293064
REMARK                            x       y       z     vdW  Elec       q    Type
REMARK                         _______ _______ _______ _____ _____    ______ ____
ROOT
ATOM      1  C   LIG    1       -3.609   2.354   0.134  0.00  0.00    +0.248 C 
ATOM      2  N   LIG    1       -2.437   1.698   0.023  0.00  0.00    -0.280 N 
ATOM      3  H   LIG    1       -2.428   0.731  -0.048  0.00  0.00    +0.155 HD
ATOM      4  O   LIG    1       -3.627   3.570   0.141  0.00  0.00    -0.270 OA
ENDROOT
BRANCH   2   5
ATOM      5  C   LIG    1       -1.234   2.412   0.010  0.00  0.00    +0.052 A 
ATOM      6  C   LIG    1       -1.174   3.663  -0.589  0.00  0.00    +0.025 A 
ATOM      7  C   LIG    1        0.016   4.364  -0.604  0.00  0.00    +0.002 A 
ATOM      8  C   LIG    1        1.147   3.822  -0.020  0.00  0.00    +0.002 A 
ATOM      9  C   LIG    1        1.090   2.579   0.581  0.00  0.00    +0.022 A 
ATOM     10  C   LIG    1       -0.098   1.873   0.601  0.00  0.00    +0.062 A 
ATOM     11 CL   LIG    1       -0.168   0.311   1.355  0.00  0.00    -0.082 Cl
ENDBRANCH   2   5
BRANCH   1  15
ATOM     12  C   LIG    1       -7.239   0.169   0.460  0.00  0.00    +0.162 A 
ATOM     13  C   LIG    1       -6.031  -0.506   0.345  0.00  0.00    +0.050 A 
ATOM     14  C   LIG    1       -4.853   0.200   0.235  0.00  0.00    +0.017 A 
ATOM     15  C   LIG    1       -4.871   1.597   0.248  0.00  0.00    +0.041 A 
ATOM     16  C   LIG    1       -6.087   2.276   0.363  0.00  0.00    +0.062 A 
ATOM     17  C   LIG    1       -7.265   1.562   0.468  0.00  0.00    +0.162 A 
BRANCH  12  19
ATOM     18  C   LIG    1       -8.299  -1.957   0.548  0.00  0.00    +0.277 C 
ATOM     19  O   LIG    1       -8.399  -0.531   0.564  0.00  0.00    -0.491 OA
ENDBRANCH  12  19
BRANCH  17  20
ATOM     20  O   LIG    1       -8.450   2.220   0.581  0.00  0.00    -0.491 OA
ATOM     21  C   LIG    1       -8.402   3.648   0.583  0.00  0.00    +0.277 C 
ENDBRANCH  17  20
ENDBRANCH   1  15
TORSDOF 4
