REMARK  Name = ZINC00236276
REMARK                            x       y       z     vdW  Elec       q    Type
REMARK                         _______ _______ _______ _____ _____    ______ ____
ROOT
ATOM      1  C   LIG    1       -0.078   4.160   0.026  0.00  0.00    +0.035 A 
ATOM      2  C   LIG    1        1.136   3.504   0.011  0.00  0.00    +0.030 A 
ATOM      3  C   LIG    1        1.175   2.114   0.002  0.00  0.00    +0.066 A 
ATOM      4  C   LIG    1       -0.017   1.388   0.010  0.00  0.00    +0.068 A 
ATOM      5  N   LIG    1        0.002  -0.004   0.002  0.00  0.00    -0.316 N 
ATOM      6  C   LIG    1        1.178  -0.664  -0.013  0.00  0.00    +0.314 A 
ATOM      7  C   LIG    1        2.451   0.112  -0.021  0.00  0.00    +0.314 A 
ATOM      8  O   LIG    1        3.521  -0.464  -0.035  0.00  0.00    -0.262 OA
ATOM      9  O   LIG    1        1.199  -1.879  -0.019  0.00  0.00    -0.262 OA
ATOM     10  H   LIG    1       -0.943  -0.567   0.008  0.00  0.00    +0.169 HD
ATOM     11  C   LIG    1       -1.234   2.060   0.031  0.00  0.00    +0.060 A 
ATOM     12  N   LIG    1        2.404   1.460  -0.014  0.00  0.00    -0.316 N 
ATOM     13  H   LIG    1        3.337   2.041  -0.021  0.00  0.00    +0.169 HD
ATOM     14  C   LIG    1       -1.260   3.440   0.033  0.00  0.00    +0.124 A 
ENDROOT
BRANCH  14  15
ATOM     15  N   LIG    1       -2.558   4.152   0.049  0.00  0.00    +0.006 N 
ATOM     16  O   LIG    1       -2.584   5.370   0.057  0.00  0.00    -0.130 OA
BRANCH  15  17
ATOM     17  O   LIG    1       -3.599   3.521   0.056  0.00  0.00    -0.396 OA
ATOM     18  H   LIG    1       -3.579   2.584   0.050  0.00  0.00    +0.329 HD
ENDBRANCH  15  17
ENDBRANCH  14  15
TORSDOF 2
