REMARK  Name = ZINC00230033
REMARK                            x       y       z     vdW  Elec       q    Type
REMARK                         _______ _______ _______ _____ _____    ______ ____
ROOT
ATOM      1  C   LIG    1       -0.017   1.375   0.010  0.00  0.00    +0.000 A 
ATOM      2  C   LIG    1        1.166   2.093   0.002  0.00  0.00    +0.002 A 
ATOM      3  C   LIG    1        2.381   1.428  -0.019  0.00  0.00    +0.029 A 
ATOM      4  C   LIG    1        2.405   0.053  -0.028  0.00  0.00    +0.109 A 
ATOM      5  C   LIG    1        1.223  -0.683  -0.011  0.00  0.00    -0.016 A 
ATOM      6  C   LIG    1        1.235  -2.166   0.007  0.00  0.00    +0.041 C 
ATOM      7  C   LIG    1        0.020  -2.831  -0.268  0.00  0.00    +0.010 C 
ATOM      8  C   LIG    1       -0.054  -4.184  -0.296  0.00  0.00    +0.006 C 
ATOM      9  C   LIG    1        1.093  -4.959  -0.049  0.00  0.00    +0.008 C 
ATOM     10  C   LIG    1        1.049  -6.365  -0.086  0.00  0.00    +0.006 C 
ATOM     11  C   LIG    1        2.203  -7.052   0.165  0.00  0.00    +0.015 C 
ATOM     12  C   LIG    1        3.378  -6.358   0.446  0.00  0.00    +0.081 C 
ATOM     13  N   LIG    1        3.414  -5.048   0.479  0.00  0.00    -0.311 NA
ATOM     14  H   LIG    1        4.250  -4.601   0.679  0.00  0.00    +0.122 HD
ATOM     15  C   LIG    1        2.320  -4.318   0.242  0.00  0.00    +0.076 C 
ATOM     16  C   LIG    1        2.374  -2.905   0.278  0.00  0.00    +0.101 C 
ATOM     17  N   LIG    1        3.589  -2.301   0.614  0.00  0.00    -0.185 NA
ATOM     18  H   LIG    1        4.333  -2.945   0.343  0.00  0.00    +0.148 HD
ATOM     19  S   LIG    1        3.939  -0.824  -0.068  0.00  0.00    +0.059 S 
ATOM     20  O   LIG    1        4.249  -1.059  -1.435  0.00  0.00    -0.153 OA
ATOM     21  O   LIG    1        4.825  -0.154   0.819  0.00  0.00    -0.153 OA
ATOM     22  C   LIG    1        0.002  -0.004   0.002  0.00  0.00    +0.006 A 
ENDROOT
TORSDOF 0
