REMARK  Name = ZINC00337346
REMARK                            x       y       z     vdW  Elec       q    Type
REMARK                         _______ _______ _______ _____ _____    ______ ____
ROOT
ATOM      1  C   LIG    1        1.168   3.169   0.007  0.00  0.00    +0.001 A 
ATOM      2  C   LIG    1        1.172   1.782   0.000  0.00  0.00    +0.004 A 
ATOM      3  C   LIG    1       -0.013   1.076   0.008  0.00  0.00    +0.047 A 
ATOM      4  C   LIG    1       -1.224   1.754   0.017  0.00  0.00    +0.141 A 
ATOM      5  C   LIG    1       -1.229   3.158   0.030  0.00  0.00    +0.038 A 
ATOM      6  C   LIG    1       -2.521   3.865   0.045  0.00  0.00    +0.042 A 
ATOM      7  C   LIG    1       -3.666   3.111   0.035  0.00  0.00    +0.115 A 
ATOM      8  C   LIG    1       -3.577   1.713   0.028  0.00  0.00    +0.339 A 
ATOM      9  O   LIG    1       -4.602   1.054   0.029  0.00  0.00    -0.245 OA
ATOM     10  O   LIG    1       -2.394   1.078   0.019  0.00  0.00    -0.422 OA
ATOM     11  C   LIG    1       -0.023   3.861   0.022  0.00  0.00    +0.013 A 
ENDROOT
BRANCH   6  12
ATOM     12  N   LIG    1       -2.577   5.241   0.052  0.00  0.00    -0.357 N 
ATOM     13  H   LIG    1       -3.436   5.691   0.062  0.00  0.00    +0.142 HD
ATOM     14  H   LIG    1       -1.757   5.760   0.048  0.00  0.00    +0.142 HD
ENDBRANCH   6  12
TORSDOF 1
