REMARK  Name = ZINC00135906
REMARK                            x       y       z     vdW  Elec       q    Type
REMARK                         _______ _______ _______ _____ _____    ______ ____
ROOT
ATOM      1  C   LIG    1       -1.621   5.653  -1.274  0.00  0.00    +0.090 A 
ATOM      2  C   LIG    1       -1.271   5.177  -0.019  0.00  0.00    +0.084 A 
ATOM      3  C   LIG    1       -0.951   3.765   0.100  0.00  0.00    -0.018 A 
ATOM      4  C   LIG    1       -1.032   3.059  -1.049  0.00  0.00    -0.004 A 
ATOM      5  C   LIG    1       -0.761   1.597  -1.232  0.00  0.00    +0.043 C 
ATOM      6  C   LIG    1       -0.013   1.086   0.008  0.00  0.00    +0.005 C 
ATOM      7  C   LIG    1       -0.735   1.583   1.264  0.00  0.00    +0.005 C 
ATOM      8  C   LIG    1       -0.551   3.094   1.407  0.00  0.00    +0.037 C 
ATOM      9  S   LIG    1       -1.524   4.240  -2.273  0.00  0.00    -0.077 S 
ENDROOT
BRANCH   1  11
ATOM     10  C   LIG    1       -2.278   7.221  -2.922  0.00  0.00    +0.249 C 
ATOM     11  N   LIG    1       -1.964   6.945  -1.641  0.00  0.00    -0.275 N 
ATOM     12  H   LIG    1       -1.979   7.651  -0.975  0.00  0.00    +0.156 HD
ATOM     13  O   LIG    1       -2.260   6.337  -3.757  0.00  0.00    -0.270 OA
BRANCH  10  17
ATOM     14  C   LIG    1       -3.331  11.180  -4.045  0.00  0.00    +0.000 A 
ATOM     15  C   LIG    1       -3.311  10.176  -4.998  0.00  0.00    +0.001 A 
ATOM     16  C   LIG    1       -2.970   8.888  -4.640  0.00  0.00    +0.013 A 
ATOM     17  C   LIG    1       -2.644   8.599  -3.313  0.00  0.00    +0.037 A 
ATOM     18  C   LIG    1       -2.672   9.615  -2.357  0.00  0.00    +0.013 A 
ATOM     19  C   LIG    1       -3.010  10.900  -2.729  0.00  0.00    +0.001 A 
ENDBRANCH  10  17
ENDBRANCH   1  11
BRANCH   2  20
ATOM     20  C   LIG    1       -1.226   6.047   1.118  0.00  0.00    +0.102 C 
ATOM     21  N   LIG    1       -1.191   6.736   2.020  0.00  0.00    -0.191 NA
ENDBRANCH   2  20
TORSDOF 3
