REMARK  Name = ZINC00120283
REMARK                            x       y       z     vdW  Elec       q    Type
REMARK                         _______ _______ _______ _____ _____    ______ ____
ROOT
ATOM      1  C   LIG    1       -0.018   1.462   0.010  0.00  0.00    +0.018 A 
ATOM      2  C   LIG    1        1.169   2.120   0.002  0.00  0.00    +0.092 A 
ATOM      3  C   LIG    1        2.377   1.389  -0.013  0.00  0.00    +0.337 A 
ATOM      4  O   LIG    1        2.390   0.048  -0.020  0.00  0.00    -0.422 OA
ATOM      5  C   LIG    1        1.245  -0.671  -0.013  0.00  0.00    +0.143 A 
ATOM      6  C   LIG    1        1.288  -2.054  -0.022  0.00  0.00    +0.093 A 
ATOM      7  C   LIG    1        0.110  -2.788  -0.015  0.00  0.00    +0.138 A 
ATOM      8  O   LIG    1       -0.149  -4.111  -0.020  0.00  0.00    -0.463 OA
ATOM      9  C   LIG    1       -1.474  -4.342  -0.010  0.00  0.00    +0.196 A 
ATOM     10  C   LIG    1       -2.147  -3.184   0.003  0.00  0.00    +0.049 A 
ATOM     11  C   LIG    1       -1.132  -2.121   0.001  0.00  0.00    +0.021 A 
ATOM     12  C   LIG    1       -1.186  -0.734   0.009  0.00  0.00    +0.023 A 
ATOM     13  O   LIG    1        3.434   1.993  -0.020  0.00  0.00    -0.245 OA
ATOM     14  C   LIG    1        0.002  -0.004   0.002  0.00  0.00    +0.018 A 
ENDROOT
TORSDOF 0
