REMARK  Name = ZINC00104782
REMARK                            x       y       z     vdW  Elec       q    Type
REMARK                         _______ _______ _______ _____ _____    ______ ____
ROOT
ATOM      1  N   LIG    1        1.324  -3.997  -2.291  0.00  0.00    -0.299 N 
ATOM      2  H   LIG    1        0.997  -4.537  -1.554  0.00  0.00    +0.154 HD
ENDROOT
BRANCH   1   3
ATOM      3  C   LIG    1        1.844  -4.606  -3.414  0.00  0.00    +0.134 A 
ATOM      4  C   LIG    1        1.805  -6.014  -3.563  0.00  0.00    +0.040 A 
ATOM      5  C   LIG    1        1.243  -6.850  -2.591  0.00  0.00    +0.013 A 
ATOM      6  C   LIG    1        1.233  -8.199  -2.790  0.00  0.00    +0.001 A 
ATOM      7  C   LIG    1        1.775  -8.755  -3.945  0.00  0.00    +0.002 A 
ATOM      8  C   LIG    1        2.330  -7.969  -4.910  0.00  0.00    +0.028 A 
ATOM      9  C   LIG    1        2.356  -6.578  -4.739  0.00  0.00    +0.076 A 
ATOM     10  N   LIG    1        2.890  -5.759  -5.657  0.00  0.00    -0.235 NA
ATOM     11  C   LIG    1        2.898  -4.461  -5.466  0.00  0.00    +0.223 A 
ATOM     12  N   LIG    1        2.391  -3.889  -4.386  0.00  0.00    -0.220 NA
ENDBRANCH   1   3
BRANCH   1  17
ATOM     13  C   LIG    1        1.009  -0.469  -3.285  0.00  0.00    +0.122 A 
ATOM     14  C   LIG    1        1.156   0.161  -2.057  0.00  0.00    +0.046 A 
ATOM     15  C   LIG    1        1.357  -0.588  -0.913  0.00  0.00    +0.005 A 
ATOM     16  C   LIG    1        1.413  -1.967  -0.988  0.00  0.00    +0.023 A 
ATOM     17  C   LIG    1        1.267  -2.603  -2.215  0.00  0.00    +0.036 A 
ATOM     18  C   LIG    1        1.058  -1.852  -3.364  0.00  0.00    +0.069 A 
BRANCH  13  20
ATOM     19  C   LIG    1        0.772   1.689  -4.253  0.00  0.00    +0.277 C 
ATOM     20  O   LIG    1        0.811   0.269  -4.409  0.00  0.00    -0.495 OA
ENDBRANCH  13  20
ENDBRANCH   1  17
TORSDOF 3
