REMARK  Name = ZINC00133520
REMARK                            x       y       z     vdW  Elec       q    Type
REMARK                         _______ _______ _______ _____ _____    ______ ____
ROOT
ATOM      1  C   LIG    1        1.472  -2.001  -0.023  0.00  0.00    -0.042 A 
ATOM      2  C   LIG    1        1.498  -2.697   1.171  0.00  0.00    +0.007 A 
ATOM      3  C   LIG    1        1.511  -4.080   1.169  0.00  0.00    +0.049 A 
ATOM      4  C   LIG    1        1.509  -4.771  -0.032  0.00  0.00    +0.161 A 
ATOM      5  C   LIG    1        1.488  -4.070  -1.234  0.00  0.00    +0.162 A 
ATOM      6  C   LIG    1        1.470  -2.684  -1.225  0.00  0.00    +0.053 A 
ENDROOT
BRANCH   4   7
ATOM      7  O   LIG    1        1.527  -6.130  -0.036  0.00  0.00    -0.491 OA
ATOM      8  C   LIG    1        1.548  -6.783   1.236  0.00  0.00    +0.277 C 
ENDBRANCH   4   7
BRANCH   5   9
ATOM      9  O   LIG    1        1.486  -4.744  -2.415  0.00  0.00    -0.491 OA
ATOM     10  C   LIG    1        1.464  -3.959  -3.609  0.00  0.00    +0.277 C 
ENDBRANCH   5   9
BRANCH   1  11
ATOM     11  C   LIG    1        1.451  -0.494  -0.015  0.00  0.00    +0.054 C 
BRANCH  11  12
ATOM     12  C   LIG    1        0.002  -0.004   0.002  0.00  0.00    +0.109 C 
BRANCH  12  15
ATOM     13  C   LIG    1       -1.214   3.626   0.028  0.00  0.00    +0.109 C 
ATOM     14  C   LIG    1       -1.194   2.119   0.019  0.00  0.00    +0.210 C 
ATOM     15  N   LIG    1       -0.018   1.461   0.010  0.00  0.00    -0.315 N 
ATOM     16  H   LIG    1        0.816   1.957   0.005  0.00  0.00    +0.149 HD
ATOM     17  O   LIG    1       -2.236   1.498   0.021  0.00  0.00    -0.276 OA
ENDBRANCH  12  15
ENDBRANCH  11  12
ENDBRANCH   1  11
TORSDOF 5
