REMARK  Name = ZINC00319145
REMARK                            x       y       z     vdW  Elec       q    Type
REMARK                         _______ _______ _______ _____ _____    ______ ____
ROOT
ATOM      1  C   LIG    1        1.583  -2.313   2.615  0.00  0.00    +0.144 C 
ENDROOT
BRANCH   1   2
ATOM      2  C   LIG    1        2.035  -3.732   2.384  0.00  0.00    +0.021 A 
ATOM      3  C   LIG    1        1.494  -4.461   1.329  0.00  0.00    +0.010 A 
ATOM      4  C   LIG    1        1.881  -5.745   1.094  0.00  0.00    +0.010 A 
ATOM      5  C   LIG    1        2.840  -6.347   1.926  0.00  0.00    +0.004 A 
ATOM      6  C   LIG    1        3.266  -7.672   1.714  0.00  0.00    +0.011 A 
ATOM      7  C   LIG    1        4.202  -8.191   2.562  0.00  0.00    +0.020 A 
ATOM      8  C   LIG    1        4.707  -7.412   3.601  0.00  0.00    +0.111 A 
ATOM      9  N   LIG    1        4.308  -6.178   3.795  0.00  0.00    -0.251 NA
ATOM     10  C   LIG    1        3.395  -5.611   3.001  0.00  0.00    +0.113 A 
ATOM     11  C   LIG    1        2.973  -4.281   3.211  0.00  0.00    +0.148 A 
BRANCH  11  12
ATOM     12  O   LIG    1        3.494  -3.552   4.232  0.00  0.00    -0.504 OA
ATOM     13  H   LIG    1        3.213  -2.669   4.369  0.00  0.00    +0.292 HD
ENDBRANCH  11  12
ENDBRANCH   1   2
BRANCH   1  14
ATOM     14  C   LIG    1        0.506  -2.294   3.669  0.00  0.00    +0.015 A 
ATOM     15  C   LIG    1        0.607  -1.984   4.985  0.00  0.00    +0.013 A 
ATOM     16  C   LIG    1       -0.528  -2.034   5.774  0.00  0.00    +0.008 A 
ATOM     17  C   LIG    1       -1.707  -2.391   5.208  0.00  0.00    +0.045 A 
ATOM     18  S   LIG    1       -1.232  -2.664   3.508  0.00  0.00    -0.099 S 
ENDBRANCH   1  14
BRANCH   1  20
ATOM     19  C   LIG    1        1.889  -1.218   0.460  0.00  0.00    +0.213 C 
ATOM     20  N   LIG    1        1.052  -1.761   1.366  0.00  0.00    -0.304 N 
ATOM     21  H   LIG    1        0.099  -1.786   1.191  0.00  0.00    +0.150 HD
ATOM     22  O   LIG    1        3.082  -1.187   0.678  0.00  0.00    -0.276 OA
BRANCH  19  24
ATOM     23  C   LIG    1        2.495  -0.101  -1.670  0.00  0.00    +0.013 C 
ATOM     24  C   LIG    1        1.344  -0.650  -0.825  0.00  0.00    +0.092 C 
ENDBRANCH  19  24
ENDBRANCH   1  20
TORSDOF 5
