REMARK  Name = ZINC00164777
REMARK                            x       y       z     vdW  Elec       q    Type
REMARK                         _______ _______ _______ _____ _____    ______ ____
ROOT
ATOM      1  C   LIG    1       -4.095  -0.338  -1.173  0.00  0.00    +0.001 A 
ATOM      2  C   LIG    1       -4.542  -0.881   0.018  0.00  0.00    +0.004 A 
ATOM      3  C   LIG    1       -3.951  -0.514   1.211  0.00  0.00    +0.046 A 
ATOM      4  C   LIG    1       -2.908   0.402   1.214  0.00  0.00    +0.121 A 
ATOM      5  C   LIG    1       -2.462   0.945   0.019  0.00  0.00    +0.005 A 
ATOM      6  C   LIG    1       -3.059   0.578  -1.171  0.00  0.00    +0.008 A 
ENDROOT
BRANCH   4   7
ATOM      7  O   LIG    1       -2.326   0.765   2.387  0.00  0.00    -0.506 OA
ATOM      8  H   LIG    1       -2.738   1.532   2.810  0.00  0.00    +0.292 HD
ENDBRANCH   4   7
BRANCH   5   9
ATOM      9  C   LIG    1       -1.329   1.940   0.019  0.00  0.00    +0.159 C 
BRANCH   9  10
ATOM     10  C   LIG    1       -0.014   1.204   0.009  0.00  0.00    +0.309 C 
ATOM     11  O   LIG    1        0.002  -0.004   0.002  0.00  0.00    -0.251 OA
BRANCH  10  12
ATOM     12  O   LIG    1        1.139   1.891   0.001  0.00  0.00    -0.480 OA
ATOM     13  H   LIG    1        1.126   2.828   0.006  0.00  0.00    +0.295 HD
ENDBRANCH  10  12
ENDBRANCH   9  10
ENDBRANCH   5   9
TORSDOF 4
