REMARK  Name = ZINC00103702
REMARK                            x       y       z     vdW  Elec       q    Type
REMARK                         _______ _______ _______ _____ _____    ______ ____
ROOT
ATOM      1  C   LIG    1        6.043   1.668   2.761  0.00  0.00    +0.044 C 
ATOM      2  C   LIG    1        5.383   2.517   1.705  0.00  0.00    -0.049 A 
ATOM      3  C   LIG    1        6.100   2.906   0.589  0.00  0.00    +0.005 A 
ATOM      4  C   LIG    1        5.510   3.703  -0.378  0.00  0.00    +0.025 A 
ATOM      5  C   LIG    1        4.196   4.106  -0.215  0.00  0.00    +0.052 A 
ATOM      6  C   LIG    1        3.463   3.685   0.885  0.00  0.00    +0.050 A 
ATOM      7  N   LIG    1        2.124   4.060   0.974  0.00  0.00    -0.331 N 
ATOM      8  H   LIG    1        1.839   4.644   1.694  0.00  0.00    +0.147 HD
ATOM      9  C   LIG    1        1.151   3.592   0.010  0.00  0.00    +0.136 C 
ATOM     10  C   LIG    1        1.383   4.082  -1.400  0.00  0.00    +0.036 C 
ATOM     11  C   LIG    1        2.490   4.695  -1.849  0.00  0.00    +0.017 C 
ATOM     12  C   LIG    1        2.605   5.102  -3.309  0.00  0.00    +0.058 C 
ATOM     13  C   LIG    1        1.229   5.489  -3.850  0.00  0.00    -0.023 C 
ATOM     14  C   LIG    1        1.345   5.887  -5.323  0.00  0.00    +0.011 C 
ATOM     15  C   LIG    1        0.664   6.658  -3.040  0.00  0.00    +0.011 C 
ATOM     16  C   LIG    1        0.312   4.269  -3.710  0.00  0.00    +0.086 C 
ATOM     17  C   LIG    1        0.295   3.845  -2.272  0.00  0.00    +0.163 C 
ATOM     18  O   LIG    1       -0.689   3.276  -1.841  0.00  0.00    -0.292 OA
ATOM     19  N   LIG    1        3.577   4.990  -1.091  0.00  0.00    -0.316 N 
ATOM     20  H   LIG    1        3.949   5.883  -1.167  0.00  0.00    +0.152 HD
ATOM     21  C   LIG    1        4.062   2.902   1.859  0.00  0.00    +0.028 A 
ENDROOT
BRANCH   9  22
ATOM     22  C   LIG    1        1.171   2.086   0.002  0.00  0.00    -0.023 A 
ATOM     23  C   LIG    1        0.022   1.377   0.301  0.00  0.00    +0.006 A 
ATOM     24  C   LIG    1        0.041  -0.005   0.294  0.00  0.00    +0.000 A 
ATOM     25  C   LIG    1        1.208  -0.679  -0.013  0.00  0.00    +0.000 A 
ATOM     26  C   LIG    1        2.357   0.029  -0.313  0.00  0.00    +0.000 A 
ATOM     27  C   LIG    1        2.338   1.412  -0.306  0.00  0.00    +0.006 A 
ENDBRANCH   9  22
TORSDOF 1
