REMARK  Name = ZINC00288381
REMARK                            x       y       z     vdW  Elec       q    Type
REMARK                         _______ _______ _______ _____ _____    ______ ____
ROOT
ATOM      1  C   LIG    1        0.060  -4.267  -0.013  0.00  0.00    +0.247 C 
ATOM      2  N   LIG    1       -0.038  -4.936  -1.178  0.00  0.00    -0.295 N 
ATOM      3  C   LIG    1       -0.069  -4.211  -2.456  0.00  0.00    +0.127 C 
ATOM      4  C   LIG    1        1.051  -4.751  -3.353  0.00  0.00    +0.124 C 
ATOM      5  N   LIG    1        0.973  -6.219  -3.370  0.00  0.00    -0.327 N 
ATOM      6  C   LIG    1        1.004  -6.944  -2.092  0.00  0.00    +0.124 C 
ATOM      7  C   LIG    1       -0.111  -6.403  -1.195  0.00  0.00    +0.127 C 
ATOM      8  O   LIG    1        0.190  -4.878   1.030  0.00  0.00    -0.270 OA
ENDROOT
BRANCH   1  13
ATOM      9  C   LIG    1       -0.134   1.484   0.031  0.00  0.00    +0.044 C 
ATOM     10  C   LIG    1       -0.083  -0.022   0.020  0.00  0.00    -0.047 A 
ATOM     11  C   LIG    1       -0.818  -0.729  -0.916  0.00  0.00    +0.004 A 
ATOM     12  C   LIG    1       -0.775  -2.107  -0.932  0.00  0.00    +0.013 A 
ATOM     13  C   LIG    1        0.011  -2.789  -0.001  0.00  0.00    +0.037 A 
ATOM     14  C   LIG    1        0.749  -2.070   0.940  0.00  0.00    +0.016 A 
ATOM     15  C   LIG    1        0.702  -0.691   0.942  0.00  0.00    -0.047 A 
ATOM     16  C   LIG    1        1.502   0.087   1.954  0.00  0.00    +0.044 C 
ENDBRANCH   1  13
BRANCH   5  17
ATOM     17  C   LIG    1        0.871  -6.912  -4.578  0.00  0.00    +0.031 A 
ATOM     18  C   LIG    1        0.971  -6.228  -5.783  0.00  0.00    +0.023 A 
ATOM     19  C   LIG    1        0.870  -6.916  -6.976  0.00  0.00    +0.003 A 
ATOM     20  C   LIG    1        0.669  -8.284  -6.973  0.00  0.00    +0.020 A 
ATOM     21  C   LIG    1        0.570  -8.969  -5.775  0.00  0.00    +0.043 A 
ATOM     22 CL   LIG    1        0.318 -10.686  -5.776  0.00  0.00    -0.083 Cl
ATOM     23  C   LIG    1        0.675  -8.287  -4.577  0.00  0.00    +0.043 A 
ENDBRANCH   5  17
TORSDOF 2
