REMARK  Name = ZINC00171743
REMARK                            x       y       z     vdW  Elec       q    Type
REMARK                         _______ _______ _______ _____ _____    ______ ____
ROOT
ATOM      1  C   LIG    1       -0.365   1.092   1.381  0.00  0.00    +0.067 C 
ATOM      2  C   LIG    1       -0.086  -0.026   0.374  0.00  0.00    +0.041 C 
ATOM      3  C   LIG    1        0.021   2.440   0.766  0.00  0.00    +0.046 C 
ATOM      4  C   LIG    1       -0.317   3.559   1.756  0.00  0.00    -0.001 C 
ATOM      5  C   LIG    1       -1.807   3.484   2.106  0.00  0.00    +0.039 C 
ATOM      6  C   LIG    1       -2.121   2.096   2.669  0.00  0.00    +0.161 C 
ATOM      7  O   LIG    1       -1.755   1.100   1.711  0.00  0.00    -0.374 OA
ENDROOT
BRANCH   4   8
ATOM      8  C   LIG    1       -0.011   4.895   1.131  0.00  0.00    -0.041 A 
ATOM      9  C   LIG    1        0.438   4.959  -0.176  0.00  0.00    +0.008 A 
ATOM     10  C   LIG    1        0.714   6.183  -0.754  0.00  0.00    +0.046 A 
ATOM     11  C   LIG    1        0.550   7.348  -0.019  0.00  0.00    +0.120 A 
ATOM     12  C   LIG    1        0.105   7.281   1.294  0.00  0.00    +0.046 A 
ATOM     13  C   LIG    1       -0.174   6.055   1.865  0.00  0.00    +0.008 A 
BRANCH  11  14
ATOM     14  O   LIG    1        0.826   8.553  -0.583  0.00  0.00    -0.495 OA
ATOM     15  C   LIG    1        1.281   8.546  -1.938  0.00  0.00    +0.277 C 
ENDBRANCH  11  14
ENDBRANCH   4   8
BRANCH   1  17
ATOM     16  C   LIG    1        0.717  -0.644   2.816  0.00  0.00    +0.007 C 
ATOM     17  C   LIG    1        0.459   0.855   2.648  0.00  0.00    +0.031 C 
ENDBRANCH   1  17
BRANCH   4  18
ATOM     18  C   LIG    1        0.516   3.386   3.028  0.00  0.00    -0.008 C 
BRANCH  18  19
ATOM     19  C   LIG    1        2.004   3.430   2.672  0.00  0.00    -0.086 C 
BRANCH  19  20
ATOM     20  N   LIG    1        2.794   3.111   3.874  0.00  0.00    +0.378 N 
ATOM     21  H   LIG    1        2.563   2.161   4.188  0.00  0.00    -0.090 HD
ATOM     22  H   LIG    1        2.577   3.770   4.620  0.00  0.00    -0.090 HD
ATOM     23  H   LIG    1        3.789   3.158   3.660  0.00  0.00    -0.090 HD
ENDBRANCH  19  20
ENDBRANCH  18  19
ENDBRANCH   4  18
TORSDOF 6
