REMARK  Name = ZINC00105000
REMARK                            x       y       z     vdW  Elec       q    Type
REMARK                         _______ _______ _______ _____ _____    ______ ____
ROOT
ATOM      1  N   LIG    1        3.622  -0.650  -0.036  0.00  0.00    -0.238 N 
ENDROOT
BRANCH   1   5
ATOM      2  C   LIG    1       -0.049   1.319   0.028  0.00  0.00    +0.000 A 
ATOM      3  C   LIG    1        0.325   0.521   1.094  0.00  0.00    +0.002 A 
ATOM      4  C   LIG    1        1.541  -0.133   1.076  0.00  0.00    +0.024 A 
ATOM      5  C   LIG    1        2.389   0.011  -0.015  0.00  0.00    +0.042 A 
ATOM      6  C   LIG    1        2.010   0.813  -1.084  0.00  0.00    +0.024 A 
ATOM      7  C   LIG    1        0.793   1.465  -1.059  0.00  0.00    +0.002 A 
ENDBRANCH   1   5
BRANCH   1   8
ATOM      8  C   LIG    1        4.793   0.074  -0.172  0.00  0.00    +0.232 A 
ATOM      9  N   LIG    1        4.758   1.403  -0.159  0.00  0.00    -0.184 NA
ATOM     10  C   LIG    1        5.883   2.098  -0.289  0.00  0.00    +0.238 A 
ATOM     11  N   LIG    1        7.043   1.465  -0.432  0.00  0.00    -0.185 NA
ATOM     12  C   LIG    1        7.077   0.136  -0.445  0.00  0.00    +0.218 A 
ATOM     13  N   LIG    1        5.953  -0.559  -0.310  0.00  0.00    -0.181 NA
BRANCH  12  14
ATOM     14  N   LIG    1        8.282  -0.522  -0.594  0.00  0.00    -0.327 N 
ATOM     15  H   LIG    1        8.307  -1.492  -0.603  0.00  0.00    +0.145 HD
ATOM     16  H   LIG    1        9.103  -0.015  -0.689  0.00  0.00    +0.145 HD
ENDBRANCH  12  14
BRANCH  10  17
ATOM     17  C   LIG    1        5.845   3.530  -0.276  0.00  0.00    +0.140 C 
ATOM     18  N   LIG    1        5.815   4.665  -0.265  0.00  0.00    -0.188 NA
ENDBRANCH  10  17
ENDBRANCH   1   8
BRANCH   1  19
ATOM     19  C   LIG    1        3.670  -2.044   0.079  0.00  0.00    +0.042 A 
ATOM     20  C   LIG    1        4.244  -2.630   1.200  0.00  0.00    +0.024 A 
ATOM     21  C   LIG    1        4.290  -4.005   1.312  0.00  0.00    +0.002 A 
ATOM     22  C   LIG    1        3.765  -4.800   0.309  0.00  0.00    +0.000 A 
ATOM     23  C   LIG    1        3.193  -4.220  -0.809  0.00  0.00    +0.002 A 
ATOM     24  C   LIG    1        3.139  -2.845  -0.924  0.00  0.00    +0.024 A 
ENDBRANCH   1  19
TORSDOF 5
