REMARK  Name = ZINC00138223
REMARK                            x       y       z     vdW  Elec       q    Type
REMARK                         _______ _______ _______ _____ _____    ______ ____
ROOT
ATOM      1  C   LIG    1       -0.017   1.393   0.005  0.00  0.00    +0.043 A 
ATOM      2  C   LIG    1        0.003  -0.004   0.023  0.00  0.00    +0.015 A 
ATOM      3  C   LIG    1        1.208  -0.673   0.004  0.00  0.00    +0.023 A 
ATOM      4  C   LIG    1        2.397   0.036  -0.033  0.00  0.00    +0.071 A 
ATOM      5 CL   LIG    1        3.910  -0.815  -0.058  0.00  0.00    -0.081 Cl
ATOM      6  C   LIG    1        2.385   1.421  -0.051  0.00  0.00    +0.141 A 
ATOM      7  C   LIG    1        1.186   2.103  -0.032  0.00  0.00    +0.047 A 
ENDROOT
BRANCH   1  15
ATOM      8  C   LIG    1       -4.461  -1.630  -0.263  0.00  0.00    +0.069 C 
ATOM      9  C   LIG    1       -3.870  -0.245  -0.206  0.00  0.00    +0.079 A 
ATOM     10  C   LIG    1       -4.591   0.957  -0.259  0.00  0.00    +0.085 A 
ATOM     11 CL   LIG    1       -6.314   1.109  -0.400  0.00  0.00    -0.080 Cl
ATOM     12  C   LIG    1       -3.708   1.977  -0.174  0.00  0.00    +0.064 A 
ATOM     13  C   LIG    1       -4.041   3.447  -0.186  0.00  0.00    +0.067 C 
ATOM     14  N   LIG    1       -2.461   1.434  -0.080  0.00  0.00    -0.199 N 
ATOM     15  C   LIG    1       -1.303   2.117   0.020  0.00  0.00    +0.279 C 
ATOM     16  O   LIG    1       -1.318   3.327   0.122  0.00  0.00    -0.265 OA
ATOM     17  N   LIG    1       -2.599   0.040  -0.100  0.00  0.00    -0.167 NA
ENDBRANCH   1  15
BRANCH   6  18
ATOM     18  N   LIG    1        3.660   2.171  -0.091  0.00  0.00    +0.007 N 
ATOM     19  O   LIG    1        3.651   3.389  -0.106  0.00  0.00    -0.130 OA
BRANCH  18  20
ATOM     20  O   LIG    1        4.720   1.570  -0.107  0.00  0.00    -0.396 OA
ATOM     21  H   LIG    1        4.727   0.633  -0.095  0.00  0.00    +0.329 HD
ENDBRANCH  18  20
ENDBRANCH   6  18
TORSDOF 3
