REMARK  Name = ZINC00112005
REMARK                            x       y       z     vdW  Elec       q    Type
REMARK                         _______ _______ _______ _____ _____    ______ ____
ROOT
ATOM      1  N   LIG    1        2.567   1.400   0.163  0.00  0.00    -0.316 N 
ATOM      2  C   LIG    1        2.982   0.543   1.130  0.00  0.00    +0.030 A 
ATOM      3  C   LIG    1        2.219   0.191   2.381  0.00  0.00    +0.064 C 
ATOM      4  C   LIG    1        4.212   0.048   0.778  0.00  0.00    +0.028 A 
ATOM      5  C   LIG    1        5.160  -0.848   1.314  0.00  0.00    +0.070 A 
ATOM      6  C   LIG    1        4.902  -1.542   2.627  0.00  0.00    +0.068 C 
ATOM      7  N   LIG    1        6.270  -1.065   0.651  0.00  0.00    -0.154 NA
ATOM      8  N   LIG    1        6.562  -0.515  -0.466  0.00  0.00    -0.154 NA
ATOM      9  C   LIG    1        5.791   0.338  -1.095  0.00  0.00    +0.070 A 
ATOM     10  C   LIG    1        6.220   0.935  -2.411  0.00  0.00    +0.068 C 
ATOM     11  C   LIG    1        4.551   0.686  -0.519  0.00  0.00    +0.028 A 
ATOM     12  C   LIG    1        3.491   1.500  -0.826  0.00  0.00    +0.030 A 
ATOM     13  C   LIG    1        3.373   2.362  -2.057  0.00  0.00    +0.064 C 
ENDROOT
BRANCH   1  17
ATOM     14  C   LIG    1       -1.057   3.464   0.232  0.00  0.00    +0.121 A 
ATOM     15  C   LIG    1       -1.048   2.080   0.127  0.00  0.00    +0.047 A 
ATOM     16  C   LIG    1        0.151   1.396   0.110  0.00  0.00    +0.030 A 
ATOM     17  C   LIG    1        1.349   2.094   0.185  0.00  0.00    +0.047 A 
ATOM     18  C   LIG    1        1.340   3.479   0.284  0.00  0.00    +0.030 A 
ATOM     19  C   LIG    1        0.140   4.162   0.306  0.00  0.00    +0.047 A 
BRANCH  14  20
ATOM     20  O   LIG    1       -2.238   4.136   0.254  0.00  0.00    -0.492 OA
BRANCH  20  22
ATOM     21  C   LIG    1       -4.650   4.279   0.213  0.00  0.00    +0.048 C 
ATOM     22  C   LIG    1       -3.431   3.355   0.173  0.00  0.00    +0.225 C 
ENDBRANCH  20  22
ENDBRANCH  14  20
ENDBRANCH   1  17
TORSDOF 3
