REMARK  Name = ZINC00295850
REMARK                            x       y       z     vdW  Elec       q    Type
REMARK                         _______ _______ _______ _____ _____    ______ ____
ROOT
ATOM      1  C   LIG    1        2.893   4.840   0.004  0.00  0.00    +0.017 A 
ATOM      2  C   LIG    1        3.707   5.953  -0.003  0.00  0.00    +0.046 A 
ATOM      3  C   LIG    1        3.147   7.224   0.009  0.00  0.00    +0.117 A 
ATOM      4  C   LIG    1        1.767   7.379   0.023  0.00  0.00    +0.046 A 
ATOM      5  C   LIG    1        0.947   6.271   0.025  0.00  0.00    +0.017 A 
ATOM      6  C   LIG    1        1.506   4.992   0.013  0.00  0.00    +0.039 A 
ENDROOT
BRANCH   6   7
ATOM      7  C   LIG    1        0.630   3.801   0.016  0.00  0.00    +0.247 A 
ATOM      8  N   LIG    1       -0.672   3.821   0.028  0.00  0.00    -0.132 NA
ATOM      9  N   LIG    1       -1.120   2.491   0.020  0.00  0.00    -0.237 N 
ATOM     10  C   LIG    1       -0.021   1.708   0.011  0.00  0.00    +0.264 A 
ATOM     11  S   LIG    1        0.002  -0.004   0.002  0.00  0.00    +0.011 S 
ATOM     12  H   LIG    1       -2.043   2.193   0.022  0.00  0.00    +0.193 HD
ATOM     13  O   LIG    1        1.052   2.518   0.005  0.00  0.00    -0.412 OA
ENDBRANCH   6   7
BRANCH   3  14
ATOM     14  O   LIG    1        3.952   8.319   0.008  0.00  0.00    -0.507 OA
ATOM     15  H   LIG    1        4.193   8.630   0.891  0.00  0.00    +0.292 HD
ENDBRANCH   3  14
TORSDOF 2
