REMARK  Name = ZINC00193347
REMARK                            x       y       z     vdW  Elec       q    Type
REMARK                         _______ _______ _______ _____ _____    ______ ____
ROOT
ATOM      1  C   LIG    1       -0.070   5.322   0.032  0.00  0.00    +0.139 A 
ATOM      2  C   LIG    1       -1.272   5.959   0.047  0.00  0.00    +0.098 A 
ATOM      3  C   LIG    1       -1.310   7.373   0.055  0.00  0.00    +0.193 A 
ATOM      4  C   LIG    1       -0.018   8.087   0.047  0.00  0.00    +0.065 A 
ATOM      5  C   LIG    1        0.041   9.479   0.055  0.00  0.00    +0.035 A 
ATOM      6  C   LIG    1        1.268  10.108   0.048  0.00  0.00    +0.042 A 
ATOM      7 CL   LIG    1        1.351  11.842   0.057  0.00  0.00    -0.084 Cl
ATOM      8  C   LIG    1        2.438   9.360   0.032  0.00  0.00    +0.023 A 
ATOM      9  C   LIG    1        2.391   7.983   0.024  0.00  0.00    +0.048 A 
ATOM     10  C   LIG    1        1.164   7.330   0.032  0.00  0.00    +0.139 A 
ATOM     11  O   LIG    1       -2.369   7.978   0.069  0.00  0.00    -0.287 OA
ATOM     12  O   LIG    1        1.098   5.982   0.030  0.00  0.00    -0.455 OA
ENDROOT
BRANCH   1  15
ATOM     13  C   LIG    1       -1.222   1.748   0.017  0.00  0.00    +0.003 A 
ATOM     14  C   LIG    1       -1.248   3.127   0.031  0.00  0.00    +0.012 A 
ATOM     15  C   LIG    1       -0.050   3.845   0.023  0.00  0.00    +0.020 A 
ATOM     16  C   LIG    1        1.167   3.160   0.008  0.00  0.00    +0.044 A 
ATOM     17  C   LIG    1        1.178   1.781   0.000  0.00  0.00    +0.122 A 
ATOM     18  C   LIG    1       -0.013   1.076   0.008  0.00  0.00    +0.032 A 
BRANCH  17  19
ATOM     19  N   LIG    1        2.467   1.053  -0.016  0.00  0.00    +0.006 N 
ATOM     20  O   LIG    1        2.479  -0.165  -0.023  0.00  0.00    -0.130 OA
BRANCH  19  21
ATOM     21  O   LIG    1        3.516   1.672  -0.023  0.00  0.00    -0.396 OA
ATOM     22  H   LIG    1        3.507   2.609  -0.018  0.00  0.00    +0.329 HD
ENDBRANCH  19  21
ENDBRANCH  17  19
ENDBRANCH   1  15
TORSDOF 3
