REMARK  Name = ZINC00133915
REMARK                            x       y       z     vdW  Elec       q    Type
REMARK                         _______ _______ _______ _____ _____    ______ ____
ROOT
ATOM      1  C   LIG    1       -1.412  -0.526   0.013  0.00  0.00    -0.047 A 
ATOM      2  C   LIG    1       -2.053  -0.767   1.214  0.00  0.00    +0.005 A 
ATOM      3  C   LIG    1       -3.346  -1.245   1.230  0.00  0.00    +0.024 A 
ATOM      4  C   LIG    1       -4.018  -1.489   0.035  0.00  0.00    +0.040 A 
ATOM      5  C   LIG    1       -3.363  -1.242  -1.171  0.00  0.00    +0.018 A 
ATOM      6  C   LIG    1       -4.347  -1.599  -2.239  0.00  0.00    +0.203 C 
ATOM      7  N   LIG    1       -3.836  -2.567  -3.208  0.00  0.00    -0.239 N 
ATOM      8  H   LIG    1       -3.547  -3.458  -2.954  0.00  0.00    +0.170 HD
ATOM      9  N   LIG    1       -3.795  -2.115  -4.514  0.00  0.00    -0.178 NA
ATOM     10  C   LIG    1       -4.181  -0.921  -4.864  0.00  0.00    +0.124 C 
ATOM     11  C   LIG    1       -5.579  -2.061  -1.524  0.00  0.00    +0.257 C 
ATOM     12  O   LIG    1       -6.613  -2.444  -2.030  0.00  0.00    -0.272 OA
ATOM     13  S   LIG    1       -4.703  -0.172  -3.327  0.00  0.00    -0.063 S 
ATOM     14  N   LIG    1       -5.309  -1.968  -0.205  0.00  0.00    -0.282 N 
ATOM     15  H   LIG    1       -5.938  -2.205   0.494  0.00  0.00    +0.155 HD
ATOM     16  C   LIG    1       -2.074  -0.759  -1.179  0.00  0.00    +0.012 A 
ENDROOT
BRANCH  10  17
ATOM     17  C   LIG    1       -4.186  -0.325  -6.217  0.00  0.00    +0.008 A 
ATOM     18  C   LIG    1       -4.634   0.984  -6.405  0.00  0.00    +0.011 A 
ATOM     19  C   LIG    1       -4.636   1.534  -7.670  0.00  0.00    +0.004 A 
ATOM     20  C   LIG    1       -4.196   0.792  -8.751  0.00  0.00    -0.050 A 
ATOM     21  C   LIG    1       -4.201   1.399 -10.130  0.00  0.00    +0.044 C 
ATOM     22  C   LIG    1       -3.751  -0.506  -8.572  0.00  0.00    +0.004 A 
ATOM     23  C   LIG    1       -3.738  -1.067  -7.311  0.00  0.00    +0.011 A 
ENDBRANCH  10  17
BRANCH   1  25
ATOM     24  C   LIG    1       -0.019   1.526   0.010  0.00  0.00    +0.009 C 
ATOM     25  C   LIG    1        0.002  -0.004   0.002  0.00  0.00    +0.032 C 
ENDBRANCH   1  25
TORSDOF 2
