REMARK  Name = ZINC00174849
REMARK                            x       y       z     vdW  Elec       q    Type
REMARK                         _______ _______ _______ _____ _____    ______ ____
ROOT
ATOM      1  C   LIG    1        0.034  -4.146  -2.630  0.00  0.00    -0.021 A 
ATOM      2  C   LIG    1        1.119  -4.929  -2.733  0.00  0.00    +0.087 A 
ATOM      3  N   LIG    1        0.748  -6.246  -2.705  0.00  0.00    -0.360 N 
ATOM      4  C   LIG    1       -0.620  -6.345  -2.580  0.00  0.00    +0.047 A 
ATOM      5  C   LIG    1       -1.499  -7.419  -2.505  0.00  0.00    +0.026 A 
ATOM      6  C   LIG    1       -2.850  -7.189  -2.363  0.00  0.00    +0.002 A 
ATOM      7  C   LIG    1       -3.346  -5.894  -2.310  0.00  0.00    +0.001 A 
ATOM      8  C   LIG    1       -2.500  -4.823  -2.388  0.00  0.00    +0.010 A 
ATOM      9  H   LIG    1        1.358  -6.998  -2.764  0.00  0.00    +0.165 HD
ATOM     10  C   LIG    1       -1.127  -5.033  -2.521  0.00  0.00    +0.003 A 
ENDROOT
BRANCH   1  11
ATOM     11  C   LIG    1        0.013  -2.639  -2.622  0.00  0.00    +0.056 C 
BRANCH  11  12
ATOM     12  C   LIG    1        0.020  -2.136  -1.177  0.00  0.00    +0.109 C 
BRANCH  12  15
ATOM     13  C   LIG    1       -0.018   1.503   0.010  0.00  0.00    +0.109 C 
ATOM     14  C   LIG    1        0.002  -0.004   0.002  0.00  0.00    +0.210 C 
ATOM     15  N   LIG    1        0.000  -0.672  -1.169  0.00  0.00    -0.315 N 
ATOM     16  H   LIG    1       -0.015  -0.182  -2.006  0.00  0.00    +0.149 HD
ATOM     17  O   LIG    1        0.020  -0.616   1.049  0.00  0.00    -0.276 OA
ENDBRANCH  12  15
ENDBRANCH  11  12
ENDBRANCH   1  11
TORSDOF 3
