REMARK  Name = ZINC00083341
REMARK                            x       y       z     vdW  Elec       q    Type
REMARK                         _______ _______ _______ _____ _____    ______ ____
ROOT
ATOM      1  C   LIG    1       -3.583   3.218  -0.794  0.00  0.00    +0.138 C 
ATOM      2  N   LIG    1       -2.521   3.782   0.043  0.00  0.00    -0.272 N 
ATOM      3  C   LIG    1       -1.282   3.161   0.007  0.00  0.00    +0.045 A 
ATOM      4  C   LIG    1       -1.266   1.765  -0.029  0.00  0.00    +0.024 A 
ATOM      5  C   LIG    1       -0.073   1.077  -0.063  0.00  0.00    +0.002 A 
ATOM      6  C   LIG    1        1.127   1.768  -0.072  0.00  0.00    +0.001 A 
ATOM      7  C   LIG    1        1.131   3.143  -0.041  0.00  0.00    +0.012 A 
ATOM      8  C   LIG    1       -0.076   3.859  -0.001  0.00  0.00    +0.022 A 
ATOM      9  C   LIG    1        0.002   5.327   0.034  0.00  0.00    +0.075 C 
ATOM     10  N   LIG    1       -0.748   6.087   0.750  0.00  0.00    -0.273 NA
ATOM     11  C   LIG    1       -1.788   5.545   1.623  0.00  0.00    +0.238 C 
ATOM     12  C   LIG    1       -2.821   4.851   0.777  0.00  0.00    +0.241 C 
ATOM     13  O   LIG    1       -3.956   5.277   0.764  0.00  0.00    -0.273 OA
ENDROOT
BRANCH   9  14
ATOM     14  C   LIG    1        1.021   5.980  -0.822  0.00  0.00    +0.001 A 
ATOM     15  C   LIG    1        1.487   7.256  -0.507  0.00  0.00    +0.010 A 
ATOM     16  C   LIG    1        2.439   7.856  -1.305  0.00  0.00    +0.001 A 
ATOM     17  C   LIG    1        2.923   7.199  -2.422  0.00  0.00    +0.000 A 
ATOM     18  C   LIG    1        2.461   5.935  -2.742  0.00  0.00    +0.001 A 
ATOM     19  C   LIG    1        1.513   5.322  -1.949  0.00  0.00    +0.010 A 
ENDBRANCH   9  14
TORSDOF 1
