REMARK  Name = ZINC00093391
REMARK                            x       y       z     vdW  Elec       q    Type
REMARK                         _______ _______ _______ _____ _____    ______ ____
ROOT
ATOM      1  C   LIG    1        4.998   0.087  -0.045  0.00  0.00    +0.045 C 
ATOM      2  C   LIG    1        3.689  -0.659  -0.037  0.00  0.00    -0.030 A 
ATOM      3  C   LIG    1        3.659  -2.017  -0.044  0.00  0.00    +0.037 A 
ATOM      4  C   LIG    1        4.946  -2.800  -0.060  0.00  0.00    +0.051 C 
ATOM      5  C   LIG    1        2.421  -2.691  -0.035  0.00  0.00    +0.340 A 
ATOM      6  O   LIG    1        1.256  -2.026  -0.021  0.00  0.00    -0.422 OA
ATOM      7  C   LIG    1        1.214  -0.676  -0.013  0.00  0.00    +0.143 A 
ATOM      8  C   LIG    1        0.002  -0.004   0.002  0.00  0.00    +0.092 A 
ATOM      9  C   LIG    1       -0.017   1.381   0.010  0.00  0.00    +0.124 A 
ATOM     10  C   LIG    1        1.173   2.106   0.002  0.00  0.00    +0.046 A 
ATOM     11  C   LIG    1        2.376   1.460  -0.013  0.00  0.00    +0.015 A 
ATOM     12  O   LIG    1        2.409  -3.909  -0.042  0.00  0.00    -0.245 OA
ATOM     13  C   LIG    1        2.413   0.061  -0.021  0.00  0.00    +0.021 A 
ENDROOT
BRANCH   9  14
ATOM     14  O   LIG    1       -1.204   2.038   0.019  0.00  0.00    -0.495 OA
ATOM     15  C   LIG    1       -1.156   3.466   0.026  0.00  0.00    +0.277 C 
ENDBRANCH   9  14
TORSDOF 1
