REMARK  Name = ZINC00119344
REMARK                            x       y       z     vdW  Elec       q    Type
REMARK                         _______ _______ _______ _____ _____    ______ ____
ROOT
ATOM      1  C   LIG    1       -0.017   1.394   0.010  0.00  0.00    +0.015 A 
ATOM      2  C   LIG    1        1.166   2.096   0.002  0.00  0.00    +0.023 A 
ATOM      3  C   LIG    1        2.381   1.417  -0.013  0.00  0.00    +0.025 A 
ATOM      4  C   LIG    1        2.403   0.025  -0.021  0.00  0.00    +0.023 A 
ATOM      5  C   LIG    1        1.224  -0.684  -0.014  0.00  0.00    +0.015 A 
ATOM      6  C   LIG    1        0.002  -0.004   0.002  0.00  0.00    +0.037 A 
ENDROOT
BRANCH   6   7
ATOM      7  C   LIG    1       -1.264  -0.760   0.011  0.00  0.00    +0.245 C 
ATOM      8  N   LIG    1       -1.244  -2.108   0.003  0.00  0.00    -0.301 N 
ATOM      9  H   LIG    1       -0.397  -2.581  -0.008  0.00  0.00    +0.150 HD
ATOM     10  O   LIG    1       -2.326  -0.168   0.024  0.00  0.00    -0.270 OA
BRANCH   8  11
ATOM     11  C   LIG    1       -2.502  -2.859   0.012  0.00  0.00    +0.225 C 
BRANCH  11  12
ATOM     12  C   LIG    1       -2.205  -4.337   0.001  0.00  0.00    +0.322 C 
ATOM     13  O   LIG    1       -1.050  -4.726  -0.013  0.00  0.00    -0.249 OA
BRANCH  12  14
ATOM     14  O   LIG    1       -3.120  -5.143   0.005  0.00  0.00    -0.480 OA
ATOM     15  H   LIG    1       -4.008  -4.843   0.016  0.00  0.00    +0.295 HD
ENDBRANCH  12  14
ENDBRANCH  11  12
ENDBRANCH   8  11
ENDBRANCH   6   7
BRANCH   3  16
ATOM     16  N   LIG    1        3.575   2.130  -0.021  0.00  0.00    -0.358 N 
ATOM     17  H   LIG    1        4.422   1.657  -0.032  0.00  0.00    +0.142 HD
ATOM     18  H   LIG    1        3.561   3.100  -0.016  0.00  0.00    +0.142 HD
ENDBRANCH   3  16
TORSDOF 5
