REMARK  Name = ZINC00136138
REMARK                            x       y       z     vdW  Elec       q    Type
REMARK                         _______ _______ _______ _____ _____    ______ ____
ROOT
ATOM      1  C   LIG    1        0.607  -0.630  -1.040  0.00  0.00    +0.124 A 
ATOM      2  C   LIG    1        1.064   0.146  -2.102  0.00  0.00    +0.046 A 
ATOM      3  C   LIG    1        1.672  -0.441  -3.174  0.00  0.00    +0.019 A 
ATOM      4  C   LIG    1        1.841  -1.830  -3.211  0.00  0.00    +0.064 A 
ATOM      5  C   LIG    1        1.381  -2.616  -2.141  0.00  0.00    +0.131 A 
ATOM      6  C   LIG    1        0.771  -2.008  -1.058  0.00  0.00    +0.091 A 
ENDROOT
BRANCH   1   8
ATOM      7  C   LIG    1       -0.133   1.386  -0.024  0.00  0.00    +0.277 C 
ATOM      8  O   LIG    1        0.004  -0.036   0.021  0.00  0.00    -0.495 OA
ENDBRANCH   1   8
BRANCH   4   9
ATOM      9  C   LIG    1        2.496  -2.464  -4.366  0.00  0.00    +0.197 C 
ATOM     10  O   LIG    1        3.704  -2.393  -4.495  0.00  0.00    -0.287 OA
BRANCH   9  11
ATOM     11  C   LIG    1        1.687  -3.187  -5.370  0.00  0.00    +0.022 A 
ATOM     12  C   LIG    1        0.293  -3.169  -5.292  0.00  0.00    +0.012 A 
ATOM     13  C   LIG    1       -0.456  -3.846  -6.232  0.00  0.00    +0.001 A 
ATOM     14  C   LIG    1        0.171  -4.541  -7.251  0.00  0.00    +0.000 A 
ATOM     15  C   LIG    1        1.552  -4.562  -7.335  0.00  0.00    +0.001 A 
ATOM     16  C   LIG    1        2.313  -3.885  -6.405  0.00  0.00    +0.012 A 
ENDBRANCH   9  11
ENDBRANCH   4   9
BRANCH   5  17
ATOM     17  O   LIG    1        1.540  -3.963  -2.168  0.00  0.00    -0.506 OA
ATOM     18  H   LIG    1        2.369  -4.269  -1.777  0.00  0.00    +0.292 HD
ENDBRANCH   5  17
TORSDOF 4
