REMARK  Name = ZINC00154897
REMARK                            x       y       z     vdW  Elec       q    Type
REMARK                         _______ _______ _______ _____ _____    ______ ____
ROOT
ATOM      1  C   LIG    1       -1.198   1.739   0.017  0.00  0.00    +0.022 C 
ATOM      2  C   LIG    1       -0.013   1.076   0.008  0.00  0.00    +0.092 C 
ENDROOT
BRANCH   1   5
ATOM      3  C   LIG    1       -4.724   0.560   0.028  0.00  0.00    +0.008 A 
ATOM      4  C   LIG    1       -3.719   1.493   0.028  0.00  0.00    +0.015 A 
ATOM      5  C   LIG    1       -2.413   1.015   0.019  0.00  0.00    +0.012 A 
ATOM      6  S   LIG    1       -2.671  -0.751   0.003  0.00  0.00    -0.097 S 
ATOM      7  C   LIG    1       -4.404  -0.761   0.019  0.00  0.00    +0.046 A 
ENDBRANCH   1   5
BRANCH   2   8
ATOM      8  C   LIG    1        1.201   1.798   0.000  0.00  0.00    +0.330 C 
ATOM      9  O   LIG    1        1.184   3.015   0.007  0.00  0.00    -0.246 OA
BRANCH   8  10
ATOM     10  O   LIG    1        2.379   1.139  -0.015  0.00  0.00    -0.478 OA
ATOM     11  H   LIG    1        2.392   0.203  -0.020  0.00  0.00    +0.295 HD
ENDBRANCH   8  10
ENDBRANCH   2   8
TORSDOF 3
