REMARK  Name = ZINC00225957
REMARK                            x       y       z     vdW  Elec       q    Type
REMARK                         _______ _______ _______ _____ _____    ______ ____
ROOT
ATOM      1  C   LIG    1        3.695  -0.684  -0.042  0.00  0.00    +0.248 C 
ATOM      2  N   LIG    1        3.717  -2.032  -0.046  0.00  0.00    -0.280 N 
ATOM      3  H   LIG    1        2.889  -2.531   0.036  0.00  0.00    +0.155 HD
ATOM      4  O   LIG    1        4.738  -0.059  -0.042  0.00  0.00    -0.270 OA
ENDROOT
BRANCH   1   8
ATOM      5  C   LIG    1       -0.018   1.379  -0.028  0.00  0.00    +0.000 A 
ATOM      6  C   LIG    1        1.167   2.093  -0.028  0.00  0.00    +0.001 A 
ATOM      7  C   LIG    1        2.377   1.429  -0.032  0.00  0.00    +0.013 A 
ATOM      8  C   LIG    1        2.403   0.034  -0.036  0.00  0.00    +0.037 A 
ATOM      9  C   LIG    1        1.204  -0.681  -0.036  0.00  0.00    +0.013 A 
ATOM     10  C   LIG    1        0.001  -0.005  -0.032  0.00  0.00    +0.001 A 
ENDBRANCH   1   8
BRANCH   2  11
ATOM     11  C   LIG    1        4.936  -2.712  -0.168  0.00  0.00    +0.055 A 
ATOM     12  C   LIG    1        6.017  -2.097  -0.780  0.00  0.00    +0.025 A 
ATOM     13  C   LIG    1        7.218  -2.771  -0.900  0.00  0.00    +0.002 A 
ATOM     14  C   LIG    1        7.346  -4.057  -0.410  0.00  0.00    +0.002 A 
ATOM     15  C   LIG    1        6.274  -4.678   0.203  0.00  0.00    +0.024 A 
ATOM     16  C   LIG    1        5.066  -4.008   0.332  0.00  0.00    +0.046 A 
BRANCH  16  17
ATOM     17  N   LIG    1        3.981  -4.632   0.957  0.00  0.00    -0.357 N 
ATOM     18  H   LIG    1        4.074  -5.533   1.304  0.00  0.00    +0.142 HD
ATOM     19  H   LIG    1        3.136  -4.163   1.044  0.00  0.00    +0.142 HD
ENDBRANCH  16  17
ENDBRANCH   2  11
TORSDOF 3
