REMARK  Name = ZINC00077278
REMARK                            x       y       z     vdW  Elec       q    Type
REMARK                         _______ _______ _______ _____ _____    ______ ____
ROOT
ATOM      1  C   LIG    1       -0.017   1.386   0.010  0.00  0.00    +0.040 A 
ATOM      2  C   LIG    1        1.159   2.104   0.002  0.00  0.00    +0.029 A 
ATOM      3  C   LIG    1        2.379   1.438  -0.013  0.00  0.00    +0.047 A 
ATOM      4  C   LIG    1        2.400   0.031  -0.021  0.00  0.00    +0.005 A 
ATOM      5  C   LIG    1        3.814  -0.353  -0.036  0.00  0.00    -0.024 A 
ATOM      6  C   LIG    1        4.529   0.783  -0.037  0.00  0.00    +0.087 A 
ATOM      7  C   LIG    1        1.201  -0.684  -0.013  0.00  0.00    +0.048 A 
ATOM      8  N   LIG    1        3.690   1.863  -0.023  0.00  0.00    -0.360 N 
ATOM      9  H   LIG    1        3.975   2.791  -0.021  0.00  0.00    +0.165 HD
ATOM     10  C   LIG    1        0.002  -0.004   0.002  0.00  0.00    +0.124 A 
ATOM     11  F   LIG    1       -1.161  -0.692   0.010  0.00  0.00    -0.205 F 
ENDROOT
BRANCH   5  12
ATOM     12  C   LIG    1        4.361  -1.757  -0.049  0.00  0.00    +0.018 C 
BRANCH  12  13
ATOM     13  C   LIG    1        4.415  -2.270  -1.489  0.00  0.00    -0.082 C 
BRANCH  13  14
ATOM     14  N   LIG    1        4.948  -3.639  -1.502  0.00  0.00    +0.378 N 
ATOM     15  H   LIG    1        4.984  -3.977  -2.451  0.00  0.00    -0.090 HD
ATOM     16  H   LIG    1        4.349  -4.238  -0.953  0.00  0.00    -0.090 HD
ATOM     17  H   LIG    1        5.878  -3.641  -1.108  0.00  0.00    -0.090 HD
ENDBRANCH  13  14
ENDBRANCH  12  13
ENDBRANCH   5  12
TORSDOF 3
