REMARK  Name = ZINC00141452
REMARK                            x       y       z     vdW  Elec       q    Type
REMARK                         _______ _______ _______ _____ _____    ______ ____
ROOT
ATOM      1  C   LIG    1       -1.520   3.600   2.470  0.00  0.00    +0.166 C 
ATOM      2  O   LIG    1       -2.720   3.769   2.407  0.00  0.00    -0.292 OA
ENDROOT
BRANCH   1   3
ATOM      3  C   LIG    1       -0.764   3.110   1.262  0.00  0.00    +0.057 C 
ATOM      4  C   LIG    1       -0.729   1.579   1.267  0.00  0.00    -0.008 C 
ATOM      5  C   LIG    1       -0.013   1.086   0.008  0.00  0.00    -0.082 C 
ATOM      6  N   LIG    1       -0.728   1.565  -1.190  0.00  0.00    +0.379 N 
ATOM      7  H   LIG    1       -0.261   1.202  -2.030  0.00  0.00    -0.086 HD
ATOM      8  H   LIG    1       -1.697   1.226  -1.164  0.00  0.00    -0.086 HD
ATOM      9  C   LIG    1       -0.729   3.040  -1.234  0.00  0.00    -0.082 C 
ATOM     10  C   LIG    1       -1.466   3.591  -0.011  0.00  0.00    -0.008 C 
ENDBRANCH   1   3
BRANCH   1  17
ATOM     11  C   LIG    1        0.579   3.675   3.801  0.00  0.00    +0.014 A 
ATOM     12  C   LIG    1        1.245   3.939   4.978  0.00  0.00    +0.039 A 
ATOM     13  C   LIG    1        0.546   4.390   6.088  0.00  0.00    +0.123 A 
ATOM     14  F   LIG    1        1.204   4.641   7.241  0.00  0.00    -0.205 F 
ATOM     15  C   LIG    1       -0.826   4.585   6.019  0.00  0.00    +0.039 A 
ATOM     16  C   LIG    1       -1.503   4.330   4.847  0.00  0.00    +0.014 A 
ATOM     17  C   LIG    1       -0.804   3.874   3.724  0.00  0.00    +0.018 A 
ENDBRANCH   1  17
TORSDOF 2
