REMARK  Name = ZINC00291740
REMARK                            x       y       z     vdW  Elec       q    Type
REMARK                         _______ _______ _______ _____ _____    ______ ____
ROOT
ATOM      1  C   LIG    1        4.233  -0.854   1.393  0.00  0.00    +0.112 C 
ENDROOT
BRANCH   1   2
ATOM      2  C   LIG    1        5.650  -1.364   1.362  0.00  0.00    +0.309 C 
ATOM      3  O   LIG    1        6.224  -1.503   0.295  0.00  0.00    -0.251 OA
BRANCH   2   4
ATOM      4  O   LIG    1        6.223  -1.638   2.402  0.00  0.00    -0.480 OA
ATOM      5  H   LIG    1        5.782  -1.531   3.222  0.00  0.00    +0.295 HD
ENDBRANCH   2   4
ENDBRANCH   1   2
BRANCH   1   6
ATOM      6  C   LIG    1        3.720  -0.682  -0.038  0.00  0.00    +0.050 C 
BRANCH   6  10
ATOM      7  C   LIG    1       -0.144   1.138   0.039  0.00  0.00    +0.000 A 
ATOM      8  C   LIG    1        0.992   1.923   0.104  0.00  0.00    +0.000 A 
ATOM      9  C   LIG    1        2.242   1.334   0.080  0.00  0.00    +0.003 A 
ATOM     10  C   LIG    1        2.357  -0.040  -0.010  0.00  0.00    -0.047 A 
ATOM     11  C   LIG    1        1.221  -0.826  -0.075  0.00  0.00    +0.003 A 
ATOM     12  C   LIG    1       -0.029  -0.237  -0.051  0.00  0.00    +0.000 A 
ENDBRANCH   6  10
ENDBRANCH   1   6
BRANCH   1  13
ATOM     13  C   LIG    1        3.346  -1.855   2.136  0.00  0.00    +0.135 C 
BRANCH  13  14
ATOM     14  C   LIG    1        3.775  -1.932   3.579  0.00  0.00    +0.305 C 
ATOM     15  O   LIG    1        4.703  -1.248   3.976  0.00  0.00    -0.251 OA
BRANCH  14  16
ATOM     16  O   LIG    1        3.193  -2.677   4.349  0.00  0.00    -0.481 OA
ATOM     17  H   LIG    1        2.480  -3.202   4.044  0.00  0.00    +0.295 HD
ENDBRANCH  14  16
ENDBRANCH  13  14
ENDBRANCH   1  13
TORSDOF 7
