REMARK  Name = ZINC00342068
REMARK                            x       y       z     vdW  Elec       q    Type
REMARK                         _______ _______ _______ _____ _____    ______ ____
ROOT
ATOM      1  N   LIG    1       -2.427   1.041   0.019  0.00  0.00    -0.281 N 
ATOM      2  H   LIG    1       -3.271   1.512   0.106  0.00  0.00    +0.155 HD
ATOM      3  C   LIG    1       -2.414  -0.302  -0.091  0.00  0.00    +0.248 C 
ATOM      4  O   LIG    1       -1.356  -0.901  -0.099  0.00  0.00    -0.270 OA
ENDROOT
BRANCH   3   5
ATOM      5  C   LIG    1       -3.685  -1.047  -0.201  0.00  0.00    +0.038 A 
ATOM      6  C   LIG    1       -4.907  -0.350  -0.184  0.00  0.00    +0.013 A 
ATOM      7  C   LIG    1       -6.087  -1.011  -0.290  0.00  0.00    +0.009 A 
ATOM      8  C   LIG    1       -6.101  -2.413  -0.405  0.00  0.00    -0.018 A 
ATOM      9  C   LIG    1       -7.310  -3.120  -0.509  0.00  0.00    +0.008 A 
ATOM     10  C   LIG    1       -7.292  -4.477  -0.619  0.00  0.00    +0.001 A 
ATOM     11  C   LIG    1       -6.089  -5.180  -0.630  0.00  0.00    +0.001 A 
ATOM     12  C   LIG    1       -4.897  -4.530  -0.532  0.00  0.00    +0.008 A 
ATOM     13  C   LIG    1       -4.876  -3.129  -0.417  0.00  0.00    -0.017 A 
ATOM     14  C   LIG    1       -3.666  -2.428  -0.313  0.00  0.00    +0.021 A 
ENDBRANCH   3   5
BRANCH   1  22
ATOM     15  C   LIG    1       -2.364   3.585   1.291  0.00  0.00    +0.046 C 
ATOM     16  C   LIG    1       -1.150   3.001   0.615  0.00  0.00    -0.028 A 
ATOM     17  C   LIG    1        0.037   3.707   0.596  0.00  0.00    +0.020 A 
ATOM     18  C   LIG    1        1.152   3.172  -0.025  0.00  0.00    +0.018 A 
ATOM     19 BR   LIG    1        2.775   4.143  -0.049  0.00  0.00    -0.050 Br
ATOM     20  C   LIG    1        1.081   1.929  -0.627  0.00  0.00    +0.017 A 
ATOM     21  C   LIG    1       -0.102   1.218  -0.611  0.00  0.00    +0.024 A 
ATOM     22  C   LIG    1       -1.225   1.756   0.006  0.00  0.00    +0.037 A 
ENDBRANCH   1  22
TORSDOF 2
