REMARK  Name = ZINC00088576
REMARK                            x       y       z     vdW  Elec       q    Type
REMARK                         _______ _______ _______ _____ _____    ______ ____
ROOT
ATOM      1  C   LIG    1        0.606  -0.608  -1.056  0.00  0.00    +0.121 A 
ATOM      2  C   LIG    1        1.174   0.169  -2.065  0.00  0.00    +0.047 A 
ATOM      3  C   LIG    1        1.788  -0.426  -3.143  0.00  0.00    +0.030 A 
ATOM      4  C   LIG    1        1.848  -1.813  -3.235  0.00  0.00    +0.048 A 
ATOM      5  C   LIG    1        1.276  -2.606  -2.217  0.00  0.00    +0.007 A 
ATOM      6  C   LIG    1        1.489  -3.946  -2.580  0.00  0.00    -0.008 A 
ATOM      7  C   LIG    1        2.165  -3.956  -3.772  0.00  0.00    +0.106 A 
ATOM      8  C   LIG    1        2.537  -5.234  -4.407  0.00  0.00    +0.261 C 
ATOM      9  N   LIG    1        1.954  -6.353  -3.919  0.00  0.00    -0.310 N 
ATOM     10  H   LIG    1        2.259  -7.215  -4.241  0.00  0.00    +0.149 HD
ATOM     11  C   LIG    1        0.886  -6.314  -2.929  0.00  0.00    +0.109 C 
ATOM     12  O   LIG    1        3.331  -5.280  -5.328  0.00  0.00    -0.269 OA
ATOM     13  C   LIG    1        1.098  -5.221  -1.880  0.00  0.00    +0.057 C 
ATOM     14  N   LIG    1        2.385  -2.668  -4.177  0.00  0.00    -0.350 N 
ATOM     15  H   LIG    1        2.841  -2.400  -4.989  0.00  0.00    +0.166 HD
ATOM     16  C   LIG    1        0.658  -1.983  -1.123  0.00  0.00    +0.056 A 
ENDROOT
BRANCH   1  18
ATOM     17  C   LIG    1       -0.017   1.425   0.010  0.00  0.00    +0.277 C 
ATOM     18  O   LIG    1        0.002  -0.004   0.002  0.00  0.00    -0.495 OA
ENDBRANCH   1  18
TORSDOF 1
