REMARK  Name = ZINC00081904
REMARK                            x       y       z     vdW  Elec       q    Type
REMARK                         _______ _______ _______ _____ _____    ______ ____
ROOT
ATOM      1  C   LIG    1       -1.254  -0.781   0.010  0.00  0.00    +0.022 A 
ATOM      2  C   LIG    1       -1.425  -2.154   0.010  0.00  0.00    +0.039 A 
ATOM      3  C   LIG    1       -2.701  -2.661   0.019  0.00  0.00    +0.045 A 
ATOM      4  C   LIG    1       -3.770  -1.764   0.028  0.00  0.00    +0.095 A 
ATOM      5  S   LIG    1       -2.937  -0.186   0.031  0.00  0.00    -0.082 S 
ENDROOT
BRANCH   1  10
ATOM      6  C   LIG    1       -0.017   1.393   0.010  0.00  0.00    +0.016 A 
ATOM      7  C   LIG    1        1.186   2.009   0.002  0.00  0.00    +0.046 A 
ATOM      8  S   LIG    1        2.320   0.634  -0.017  0.00  0.00    -0.104 S 
ATOM      9  C   LIG    1        1.214  -0.631  -0.013  0.00  0.00    +0.054 A 
ATOM     10  C   LIG    1        0.002  -0.004   0.002  0.00  0.00    -0.004 A 
ENDBRANCH   1  10
BRANCH   4  11
ATOM     11  C   LIG    1       -5.156  -2.036   0.037  0.00  0.00    +0.250 C 
ATOM     12  N   LIG    1       -6.041  -1.020   0.044  0.00  0.00    -0.325 N 
ATOM     13  H   LIG    1       -6.993  -1.206   0.051  0.00  0.00    +0.145 HD
ATOM     14  H   LIG    1       -5.727  -0.102   0.043  0.00  0.00    +0.145 HD
ATOM     15  O   LIG    1       -5.551  -3.188   0.038  0.00  0.00    -0.270 OA
ENDBRANCH   4  11
BRANCH   3  16
ATOM     16  N   LIG    1       -2.922  -4.036   0.019  0.00  0.00    -0.357 N 
ATOM     17  H   LIG    1       -3.829  -4.381   0.025  0.00  0.00    +0.142 HD
ATOM     18  H   LIG    1       -2.170  -4.649   0.013  0.00  0.00    +0.142 HD
ENDBRANCH   3  16
TORSDOF 3
