REMARK  Name = ZINC00319140
REMARK                            x       y       z     vdW  Elec       q    Type
REMARK                         _______ _______ _______ _____ _____    ______ ____
ROOT
ATOM      1  C   LIG    1        1.583  -2.313   2.615  0.00  0.00    +0.144 C 
ENDROOT
BRANCH   1   2
ATOM      2  C   LIG    1        1.021  -3.651   3.023  0.00  0.00    +0.021 A 
ATOM      3  C   LIG    1        0.493  -4.498   2.052  0.00  0.00    +0.010 A 
ATOM      4  C   LIG    1       -0.021  -5.713   2.388  0.00  0.00    +0.010 A 
ATOM      5  C   LIG    1       -0.022  -6.121   3.732  0.00  0.00    +0.004 A 
ATOM      6  C   LIG    1       -0.545  -7.370   4.118  0.00  0.00    +0.011 A 
ATOM      7  C   LIG    1       -0.512  -7.701   5.443  0.00  0.00    +0.020 A 
ATOM      8  C   LIG    1        0.029  -6.811   6.368  0.00  0.00    +0.111 A 
ATOM      9  N   LIG    1        0.514  -5.649   6.005  0.00  0.00    -0.251 NA
ATOM     10  C   LIG    1        0.513  -5.265   4.725  0.00  0.00    +0.113 A 
ATOM     11  C   LIG    1        1.043  -4.015   4.339  0.00  0.00    +0.148 A 
BRANCH  11  12
ATOM     12  O   LIG    1        1.567  -3.178   5.271  0.00  0.00    -0.504 OA
ATOM     13  H   LIG    1        1.918  -2.349   5.012  0.00  0.00    +0.292 HD
ENDBRANCH  11  12
ENDBRANCH   1   2
BRANCH   1  14
ATOM     14  C   LIG    1        3.063  -2.445   2.363  0.00  0.00    +0.015 A 
ATOM     15  C   LIG    1        4.099  -2.123   3.176  0.00  0.00    +0.013 A 
ATOM     16  C   LIG    1        5.390  -2.334   2.731  0.00  0.00    +0.008 A 
ATOM     17  C   LIG    1        5.583  -2.856   1.495  0.00  0.00    +0.045 A 
ATOM     18  S   LIG    1        3.906  -3.074   0.921  0.00  0.00    -0.099 S 
ENDBRANCH   1  14
BRANCH   1  20
ATOM     19  C   LIG    1        0.819  -0.539   1.129  0.00  0.00    +0.213 C 
ATOM     20  N   LIG    1        0.918  -1.857   1.391  0.00  0.00    -0.304 N 
ATOM     21  H   LIG    1        0.550  -2.505   0.769  0.00  0.00    +0.150 HD
ATOM     22  O   LIG    1        1.280   0.270   1.906  0.00  0.00    -0.276 OA
BRANCH  19  24
ATOM     23  C   LIG    1        0.159   1.458  -0.184  0.00  0.00    +0.013 C 
ATOM     24  C   LIG    1        0.135  -0.070  -0.130  0.00  0.00    +0.092 C 
ENDBRANCH  19  24
ENDBRANCH   1  20
TORSDOF 5
