REMARK  Name = ZINC00155174
REMARK                            x       y       z     vdW  Elec       q    Type
REMARK                         _______ _______ _______ _____ _____    ______ ____
ROOT
ATOM      1  C   LIG    1       -0.738   1.583  -1.211  0.00  0.00    -0.048 C 
ATOM      2  C   LIG    1       -1.967   2.047  -1.166  0.00  0.00    -0.042 C 
ATOM      3  C   LIG    1       -2.764   2.133   0.104  0.00  0.00    -0.055 C 
ATOM      4  N   LIG    1       -2.166   1.280   1.143  0.00  0.00    +0.382 N 
ATOM      5  H   LIG    1       -2.631   1.460   2.040  0.00  0.00    -0.085 HD
ATOM      6  H   LIG    1       -2.287   0.294   0.885  0.00  0.00    -0.085 HD
ATOM      7  C   LIG    1       -0.727   1.579   1.269  0.00  0.00    -0.078 C 
ATOM      8  C   LIG    1       -0.013   1.086   0.008  0.00  0.00    +0.016 C 
ENDROOT
BRANCH   1  15
ATOM      9  C   LIG    1        0.321   0.327  -3.083  0.00  0.00    +0.009 A 
ATOM     10  C   LIG    1        0.966   0.302  -4.303  0.00  0.00    +0.020 A 
ATOM     11  C   LIG    1        1.266   1.485  -4.955  0.00  0.00    +0.041 A 
ATOM     12 CL   LIG    1        2.085   1.446  -6.485  0.00  0.00    -0.084 Cl
ATOM     13  C   LIG    1        0.916   2.701  -4.392  0.00  0.00    +0.020 A 
ATOM     14  C   LIG    1        0.265   2.739  -3.176  0.00  0.00    +0.009 A 
ATOM     15  C   LIG    1       -0.040   1.549  -2.514  0.00  0.00    -0.022 A 
ENDBRANCH   1  15
TORSDOF 1
