REMARK  Name = ZINC00122260
REMARK                            x       y       z     vdW  Elec       q    Type
REMARK                         _______ _______ _______ _____ _____    ______ ____
ROOT
ATOM      1  C   LIG    1        2.103  -3.545  -0.045  0.00  0.00    +0.132 A 
ATOM      2  C   LIG    1        1.740  -4.911   0.059  0.00  0.00    +0.041 A 
ATOM      3  C   LIG    1        0.408  -5.319   0.183  0.00  0.00    +0.028 A 
ATOM      4  C   LIG    1        0.119  -6.650   0.279  0.00  0.00    +0.019 A 
ATOM      5 BR   LIG    1       -1.681  -7.204   0.447  0.00  0.00    -0.050 Br
ATOM      6  C   LIG    1        1.132  -7.605   0.255  0.00  0.00    +0.017 A 
ATOM      7  C   LIG    1        2.440  -7.238   0.135  0.00  0.00    +0.029 A 
ATOM      8  C   LIG    1        2.772  -5.880   0.034  0.00  0.00    +0.076 A 
ATOM      9  N   LIG    1        4.042  -5.467  -0.086  0.00  0.00    -0.235 NA
ATOM     10  C   LIG    1        4.319  -4.188  -0.179  0.00  0.00    +0.223 A 
ATOM     11  N   LIG    1        3.389  -3.247  -0.166  0.00  0.00    -0.220 NA
ENDROOT
BRANCH   1  17
ATOM     12  C   LIG    1       -0.026   1.460  -0.162  0.00  0.00    -0.096 C 
ATOM     13  N   LIG    1       -0.002  -0.006  -0.082  0.00  0.00    +0.380 N 
ATOM     14  H   LIG    1       -0.945  -0.352   0.009  0.00  0.00    -0.082 HD
ATOM     15  C   LIG    1        0.600  -0.552  -1.305  0.00  0.00    -0.060 C 
ATOM     16  C   LIG    1        0.521  -2.082  -1.273  0.00  0.00    +0.088 C 
ATOM     17  N   LIG    1        1.144  -2.555  -0.027  0.00  0.00    -0.318 N 
ATOM     18  C   LIG    1        0.715  -1.941   1.239  0.00  0.00    +0.088 C 
ATOM     19  C   LIG    1        0.784  -0.418   1.089  0.00  0.00    -0.060 C 
ENDBRANCH   1  17
TORSDOF 1
