REMARK  Name = ZINC00090067
REMARK                            x       y       z     vdW  Elec       q    Type
REMARK                         _______ _______ _______ _____ _____    ______ ____
ROOT
ATOM      1  C   LIG    1       -0.082   5.583   0.032  0.00  0.00    -0.030 A 
ATOM      2  C   LIG    1        1.112   6.231   0.025  0.00  0.00    +0.096 A 
ATOM      3  C   LIG    1        2.312   5.490   0.009  0.00  0.00    +0.337 A 
ATOM      4  O   LIG    1        2.312   4.148   0.002  0.00  0.00    -0.422 OA
ATOM      5  C   LIG    1        1.160   3.443   0.009  0.00  0.00    +0.143 A 
ATOM      6  C   LIG    1        1.177   2.057   0.002  0.00  0.00    +0.092 A 
ATOM      7  C   LIG    1       -0.016   1.353   0.009  0.00  0.00    +0.120 A 
ATOM      8  C   LIG    1       -1.236   2.028   0.019  0.00  0.00    +0.046 A 
ATOM      9  C   LIG    1       -1.271   3.392   0.032  0.00  0.00    +0.015 A 
ATOM     10  O   LIG    1        3.375   6.083   0.003  0.00  0.00    -0.245 OA
ATOM     11  C   LIG    1       -0.075   4.119   0.024  0.00  0.00    +0.021 A 
ENDROOT
BRANCH   1  13
ATOM     12  C   LIG    1       -1.869   6.494   1.491  0.00  0.00    +0.009 C 
ATOM     13  C   LIG    1       -1.379   6.350   0.048  0.00  0.00    +0.033 C 
ENDBRANCH   1  13
BRANCH   7  14
ATOM     14  O   LIG    1        0.002  -0.004   0.002  0.00  0.00    -0.507 OA
ATOM     15  H   LIG    1        0.016  -0.402   0.883  0.00  0.00    +0.292 HD
ENDBRANCH   7  14
TORSDOF 2
