REMARK  Name = ZINC00235512
REMARK                            x       y       z     vdW  Elec       q    Type
REMARK                         _______ _______ _______ _____ _____    ______ ____
ROOT
ATOM      1  C   LIG    1        1.846  -0.658  -1.980  0.00  0.00    +0.028 C 
ATOM      2  C   LIG    1        0.911  -1.279  -0.939  0.00  0.00    +0.074 C 
ATOM      3  C   LIG    1       -0.463  -0.606  -1.018  0.00  0.00    +0.022 C 
ATOM      4  C   LIG    1       -1.349  -1.131   0.114  0.00  0.00    +0.004 C 
ATOM      5  C   LIG    1       -0.717  -0.782   1.463  0.00  0.00    +0.034 C 
ATOM      6  C   LIG    1        0.654  -1.456   1.570  0.00  0.00    +0.185 C 
ATOM      7  N   LIG    1        1.465  -1.073   0.406  0.00  0.00    -0.285 N 
ATOM      8  C   LIG    1        2.692  -0.538   0.569  0.00  0.00    +0.217 C 
ATOM      9  O   LIG    1        3.416  -0.942   1.454  0.00  0.00    -0.276 OA
ENDROOT
BRANCH   6  10
ATOM     10  C   LIG    1        1.340  -1.010   2.836  0.00  0.00    +0.325 C 
ATOM     11  O   LIG    1        1.500  -1.798   3.752  0.00  0.00    -0.249 OA
BRANCH  10  12
ATOM     12  O   LIG    1        1.733   0.139   2.943  0.00  0.00    -0.479 OA
ATOM     13  H   LIG    1        1.610   0.745   2.239  0.00  0.00    +0.295 HD
ENDBRANCH  10  12
ENDBRANCH   6  10
BRANCH   8  14
ATOM     14  C   LIG    1        3.163   0.560  -0.349  0.00  0.00    +0.106 C 
BRANCH  14  15
ATOM     15  C   LIG    1        4.550   1.033   0.091  0.00  0.00    +0.075 C 
BRANCH  15  16
ATOM     16  S   LIG    1        5.118   2.354  -1.014  0.00  0.00    -0.178 S 
ATOM     17  H   LIG    1        6.330   2.683  -0.532  0.00  0.00    +0.102 HD
ENDBRANCH  15  16
ENDBRANCH  14  15
ENDBRANCH   8  14
TORSDOF 5
