REMARK  Name = ZINC00077296
REMARK                            x       y       z     vdW  Elec       q    Type
REMARK                         _______ _______ _______ _____ _____    ______ ____
ROOT
ATOM      1  C   LIG    1        0.144  -0.285   2.693  0.00  0.00    +0.006 A 
ATOM      2  C   LIG    1        0.807  -0.762   3.803  0.00  0.00    +0.026 A 
ATOM      3  C   LIG    1        1.339   0.131   4.727  0.00  0.00    +0.047 A 
ATOM      4  C   LIG    1        1.190   1.513   4.514  0.00  0.00    +0.003 A 
ATOM      5  C   LIG    1        1.847   2.170   5.646  0.00  0.00    -0.024 A 
ATOM      6  C   LIG    1        2.331   1.199   6.437  0.00  0.00    +0.087 A 
ATOM      7  C   LIG    1        0.519   1.975   3.381  0.00  0.00    +0.014 A 
ATOM      8  N   LIG    1        2.036  -0.026   5.904  0.00  0.00    -0.360 N 
ATOM      9  H   LIG    1        2.282  -0.879   6.296  0.00  0.00    +0.165 HD
ATOM     10  C   LIG    1        0.000   1.080   2.488  0.00  0.00    -0.044 A 
ENDROOT
BRANCH  10  11
ATOM     11  C   LIG    1       -0.729   1.579   1.267  0.00  0.00    +0.019 C 
ATOM     12  C   LIG    1       -0.013   1.086   0.008  0.00  0.00    +0.008 C 
ATOM     13  C   LIG    1       -0.753   1.593  -1.232  0.00  0.00    +0.001 C 
ATOM     14  C   LIG    1       -2.188   1.063  -1.221  0.00  0.00    +0.000 C 
ATOM     15  C   LIG    1       -2.904   1.556   0.038  0.00  0.00    +0.001 C 
ATOM     16  C   LIG    1       -2.164   1.050   1.278  0.00  0.00    +0.008 C 
ENDBRANCH  10  11
BRANCH   5  17
ATOM     17  C   LIG    1        1.961   3.655   5.879  0.00  0.00    +0.018 C 
BRANCH  17  18
ATOM     18  C   LIG    1        0.699   4.159   6.582  0.00  0.00    -0.082 C 
BRANCH  18  19
ATOM     19  N   LIG    1        0.830   5.606   6.824  0.00  0.00    +0.378 N 
ATOM     20  H   LIG    1        1.634   5.774   7.440  0.00  0.00    -0.090 HD
ATOM     21  H   LIG    1       -0.013   5.963   7.272  0.00  0.00    -0.090 HD
ATOM     22  H   LIG    1        0.978   6.096   5.943  0.00  0.00    -0.090 HD
ENDBRANCH  18  19
ENDBRANCH  17  18
ENDBRANCH   5  17
TORSDOF 4
