REMARK  Name = ZINC00243356
REMARK                            x       y       z     vdW  Elec       q    Type
REMARK                         _______ _______ _______ _____ _____    ______ ____
ROOT
ATOM      1  C   LIG    1       -0.029   4.092  -0.077  0.00  0.00    +0.248 C 
ATOM      2  N   LIG    1        1.146   3.437   0.010  0.00  0.00    -0.280 N 
ATOM      3  H   LIG    1        1.976   3.935   0.073  0.00  0.00    +0.155 HD
ATOM      4  O   LIG    1       -1.073   3.470  -0.071  0.00  0.00    -0.270 OA
ENDROOT
BRANCH   1   8
ATOM      5  C   LIG    1       -0.081   8.329  -0.374  0.00  0.00    -0.048 A 
ATOM      6  C   LIG    1       -1.272   7.624  -0.367  0.00  0.00    +0.004 A 
ATOM      7  C   LIG    1       -1.262   6.248  -0.271  0.00  0.00    +0.013 A 
ATOM      8  C   LIG    1       -0.047   5.566  -0.181  0.00  0.00    +0.037 A 
ATOM      9  C   LIG    1        1.151   6.284  -0.183  0.00  0.00    +0.013 A 
ATOM     10  C   LIG    1        1.127   7.659  -0.285  0.00  0.00    +0.004 A 
BRANCH   5  12
ATOM     11  C   LIG    1       -0.157  10.441   0.922  0.00  0.00    +0.009 C 
ATOM     12  C   LIG    1       -0.100   9.832  -0.480  0.00  0.00    +0.032 C 
ENDBRANCH   5  12
ENDBRANCH   1   8
BRANCH   2  13
ATOM     13  C   LIG    1        1.169   2.038   0.008  0.00  0.00    +0.052 A 
ATOM     14  C   LIG    1        0.148   1.314   0.620  0.00  0.00    +0.026 A 
ATOM     15  C   LIG    1        0.214  -0.069   0.593  0.00  0.00    +0.021 A 
ATOM     16  C   LIG    1        1.283  -0.681  -0.036  0.00  0.00    +0.111 A 
ATOM     17  N   LIG    1        2.234   0.033  -0.606  0.00  0.00    -0.261 NA
ATOM     18  C   LIG    1        2.209   1.351  -0.602  0.00  0.00    +0.134 A 
ENDBRANCH   2  13
TORSDOF 3
