REMARK  Name = ZINC00265291
REMARK                            x       y       z     vdW  Elec       q    Type
REMARK                         _______ _______ _______ _____ _____    ______ ____
ROOT
ATOM      1  C   LIG    1       -5.985   7.433   0.094  0.00  0.00    +0.001 A 
ATOM      2  C   LIG    1       -4.751   8.068   0.086  0.00  0.00    +0.004 A 
ATOM      3  C   LIG    1       -3.583   7.335   0.073  0.00  0.00    +0.047 A 
ATOM      4  C   LIG    1       -3.636   5.947   0.066  0.00  0.00    +0.139 A 
ATOM      5  C   LIG    1       -4.885   5.306   0.074  0.00  0.00    +0.064 A 
ATOM      6  C   LIG    1       -4.918   3.829   0.067  0.00  0.00    +0.193 A 
ATOM      7  C   LIG    1       -3.676   3.152   0.047  0.00  0.00    +0.098 A 
ATOM      8  C   LIG    1       -2.521   3.869   0.045  0.00  0.00    +0.139 A 
ATOM      9  O   LIG    1       -5.974   3.219   0.072  0.00  0.00    -0.287 OA
ATOM     10  O   LIG    1       -2.505   5.211   0.052  0.00  0.00    -0.455 OA
ATOM     11  C   LIG    1       -6.058   6.057   0.087  0.00  0.00    +0.015 A 
ENDROOT
BRANCH   8  12
ATOM     12  C   LIG    1       -1.235   3.144   0.030  0.00  0.00    +0.018 A 
ATOM     13  C   LIG    1       -1.217   1.747   0.017  0.00  0.00    +0.011 A 
ATOM     14  C   LIG    1       -0.013   1.076   0.008  0.00  0.00    +0.002 A 
ATOM     15  C   LIG    1        1.177   1.782   0.000  0.00  0.00    +0.015 A 
ATOM     16  C   LIG    1        1.168   3.167   0.008  0.00  0.00    +0.019 A 
ATOM     17 BR   LIG    1        2.800   4.122  -0.001  0.00  0.00    -0.050 Br
ATOM     18  C   LIG    1       -0.031   3.851   0.023  0.00  0.00    +0.026 A 
ENDBRANCH   8  12
TORSDOF 1
