REMARK  Name = ZINC00152322
REMARK                            x       y       z     vdW  Elec       q    Type
REMARK                         _______ _______ _______ _____ _____    ______ ____
ROOT
ATOM      1  C   LIG    1       -0.634  -2.308  -0.004  0.00  0.00    +0.001 A 
ATOM      2  C   LIG    1        0.704  -2.678  -0.019  0.00  0.00    +0.002 A 
ATOM      3  C   LIG    1        1.697  -1.724  -0.023  0.00  0.00    +0.026 A 
ATOM      4  C   LIG    1        1.359  -0.374  -0.013  0.00  0.00    +0.047 A 
ATOM      5  C   LIG    1        0.002  -0.004   0.002  0.00  0.00    +0.001 A 
ATOM      6  C   LIG    1       -0.018   1.461   0.010  0.00  0.00    -0.040 A 
ATOM      7  C   LIG    1        1.260   1.871   0.000  0.00  0.00    +0.085 A 
ATOM      8  N   LIG    1        2.097   0.788  -0.014  0.00  0.00    -0.360 N 
ATOM      9  H   LIG    1        3.066   0.833  -0.023  0.00  0.00    +0.165 HD
ATOM     10  C   LIG    1       -0.989  -0.988   0.007  0.00  0.00    +0.010 A 
ENDROOT
BRANCH   6  11
ATOM     11  C   LIG    1       -1.241   2.341   0.021  0.00  0.00    -0.048 C 
BRANCH  11  12
ATOM     12  N   LIG    1       -1.778   2.399   1.392  0.00  0.00    +0.381 N 
ATOM     13  H   LIG    1       -2.054   1.456   1.687  0.00  0.00    -0.090 HD
ATOM     14  H   LIG    1       -2.594   3.009   1.422  0.00  0.00    -0.090 HD
ATOM     15  H   LIG    1       -1.067   2.753   2.030  0.00  0.00    -0.090 HD
ENDBRANCH  11  12
ENDBRANCH   6  11
TORSDOF 2
