REMARK  Name = ZINC00194815
REMARK                            x       y       z     vdW  Elec       q    Type
REMARK                         _______ _______ _______ _____ _____    ______ ____
ROOT
ATOM      1  N   LIG    1       -1.363   2.340  -2.412  0.00  0.00    -0.248 N 
ATOM      2  C   LIG    1       -1.371   2.927  -1.071  0.00  0.00    +0.173 C 
ATOM      3  N   LIG    1       -2.538   3.801  -0.906  0.00  0.00    -0.324 N 
ATOM      4  H   LIG    1       -2.450   4.667  -0.477  0.00  0.00    +0.148 HD
ATOM      5  C   LIG    1       -3.772   3.364  -1.374  0.00  0.00    +0.041 A 
ATOM      6  C   LIG    1       -4.960   3.784  -0.799  0.00  0.00    +0.024 A 
ATOM      7  C   LIG    1       -6.163   3.344  -1.317  0.00  0.00    +0.002 A 
ATOM      8  C   LIG    1       -6.190   2.491  -2.409  0.00  0.00    +0.001 A 
ATOM      9  C   LIG    1       -5.016   2.061  -2.991  0.00  0.00    +0.015 A 
ATOM     10  C   LIG    1       -3.796   2.485  -2.471  0.00  0.00    +0.058 A 
ATOM     11  C   LIG    1       -2.514   2.051  -3.053  0.00  0.00    +0.254 C 
ATOM     12  O   LIG    1       -2.493   1.437  -4.102  0.00  0.00    -0.270 OA
ENDROOT
BRANCH   1  17
ATOM     13  C   LIG    1        3.592   1.262  -4.954  0.00  0.00    +0.044 C 
ATOM     14  C   LIG    1        2.275   1.549  -4.279  0.00  0.00    -0.050 A 
ATOM     15  C   LIG    1        1.418   0.509  -3.970  0.00  0.00    +0.005 A 
ATOM     16  C   LIG    1        0.211   0.768  -3.351  0.00  0.00    +0.024 A 
ATOM     17  C   LIG    1       -0.142   2.074  -3.039  0.00  0.00    +0.038 A 
ATOM     18  C   LIG    1        0.719   3.117  -3.356  0.00  0.00    +0.024 A 
ATOM     19  C   LIG    1        1.927   2.851  -3.970  0.00  0.00    +0.005 A 
ENDBRANCH   1  17
BRANCH   2  20
ATOM     20  C   LIG    1       -1.423   1.809  -0.029  0.00  0.00    +0.055 C 
ATOM     21  C   LIG    1       -1.566   2.419   1.367  0.00  0.00    +0.016 C 
BRANCH  20  22
ATOM     22  C   LIG    1       -0.153   1.000  -0.096  0.00  0.00    -0.041 A 
ATOM     23  C   LIG    1        1.071   1.622   0.057  0.00  0.00    +0.004 A 
ATOM     24  C   LIG    1        2.236   0.881  -0.013  0.00  0.00    +0.000 A 
ATOM     25  C   LIG    1        2.176  -0.483  -0.231  0.00  0.00    +0.000 A 
ATOM     26  C   LIG    1        0.951  -1.105  -0.382  0.00  0.00    +0.000 A 
ATOM     27  C   LIG    1       -0.214  -0.364  -0.315  0.00  0.00    +0.004 A 
ENDBRANCH  20  22
ENDBRANCH   2  20
TORSDOF 3
