REMARK  Name = ZINC00084532
REMARK                            x       y       z     vdW  Elec       q    Type
REMARK                         _______ _______ _______ _____ _____    ______ ____
ROOT
ATOM      1  C   LIG    1        2.408  -0.008  -0.021  0.00  0.00    +0.163 A 
ATOM      2  C   LIG    1        1.207  -0.693  -0.014  0.00  0.00    +0.049 A 
ATOM      3  C   LIG    1        0.002  -0.004   0.002  0.00  0.00    +0.004 A 
ATOM      4  C   LIG    1       -0.016   1.361   0.009  0.00  0.00    +0.012 A 
ATOM      5  C   LIG    1        1.190   2.079   0.002  0.00  0.00    +0.022 A 
ATOM      6  C   LIG    1        1.175   3.496   0.011  0.00  0.00    +0.033 A 
ATOM      7  C   LIG    1        2.383   4.174   0.003  0.00  0.00    +0.144 A 
ATOM      8  C   LIG    1        3.629   3.398  -0.013  0.00  0.00    +0.352 A 
ATOM      9  O   LIG    1        4.701   3.973  -0.020  0.00  0.00    -0.244 OA
ATOM     10  O   LIG    1        3.587   2.056  -0.021  0.00  0.00    -0.418 OA
ATOM     11  C   LIG    1        2.413   1.387  -0.013  0.00  0.00    +0.180 A 
ENDROOT
BRANCH   1  13
ATOM     12  C   LIG    1        3.501  -2.120  -0.045  0.00  0.00    +0.277 C 
ATOM     13  O   LIG    1        3.582  -0.693  -0.037  0.00  0.00    -0.491 OA
ENDBRANCH   1  13
BRANCH   7  14
ATOM     14  C   LIG    1        2.416   5.645   0.011  0.00  0.00    +0.344 C 
ATOM     15  O   LIG    1        3.482   6.229   0.004  0.00  0.00    -0.245 OA
BRANCH  14  16
ATOM     16  O   LIG    1        1.265   6.345   0.026  0.00  0.00    -0.477 OA
ATOM     17  H   LIG    1        0.443   5.895   0.032  0.00  0.00    +0.295 HD
ENDBRANCH  14  16
ENDBRANCH   7  14
TORSDOF 3
