REMARK  Name = ZINC00099797
REMARK                            x       y       z     vdW  Elec       q    Type
REMARK                         _______ _______ _______ _____ _____    ______ ____
ROOT
ATOM      1  N   LIG    1       -3.130   2.379   0.959  0.00  0.00    -0.327 N 
ATOM      2  C   LIG    1       -2.939   0.925   0.862  0.00  0.00    +0.124 C 
ATOM      3  C   LIG    1       -1.569   0.634   0.239  0.00  0.00    +0.127 C 
ATOM      4  N   LIG    1       -1.465   1.365  -1.032  0.00  0.00    -0.294 N 
ATOM      5  C   LIG    1       -1.095   0.734  -2.164  0.00  0.00    +0.254 C 
ATOM      6  O   LIG    1       -1.105   1.330  -3.224  0.00  0.00    -0.270 OA
ATOM      7  C   LIG    1       -1.774   2.803  -1.036  0.00  0.00    +0.127 C 
ATOM      8  C   LIG    1       -3.137   3.010  -0.368  0.00  0.00    +0.124 C 
ENDROOT
BRANCH   5   9
ATOM      9  C   LIG    1       -0.678  -0.678  -2.118  0.00  0.00    +0.122 A 
ATOM     10  C   LIG    1       -0.001  -1.177  -1.018  0.00  0.00    +0.031 A 
ATOM     11  C   LIG    1        0.382  -2.542  -1.016  0.00  0.00    +0.018 A 
ATOM     12  C   LIG    1        1.069  -3.080   0.083  0.00  0.00    +0.011 A 
ATOM     13  C   LIG    1        1.435  -4.395   0.078  0.00  0.00    +0.001 A 
ATOM     14  C   LIG    1        1.131  -5.206  -1.007  0.00  0.00    +0.004 A 
ATOM     15  C   LIG    1        0.457  -4.699  -2.097  0.00  0.00    +0.047 A 
ATOM     16  C   LIG    1        0.073  -3.362  -2.116  0.00  0.00    +0.139 A 
ATOM     17  O   LIG    1       -0.587  -2.867  -3.185  0.00  0.00    -0.422 OA
ATOM     18  C   LIG    1       -0.977  -1.582  -3.234  0.00  0.00    +0.350 A 
ATOM     19  O   LIG    1       -1.575  -1.166  -4.208  0.00  0.00    -0.244 OA
ENDBRANCH   5   9
BRANCH   1  23
ATOM     20  C   LIG    1       -6.604   3.291   3.063  0.00  0.00    +0.000 A 
ATOM     21  C   LIG    1       -5.638   2.488   3.642  0.00  0.00    +0.002 A 
ATOM     22  C   LIG    1       -4.484   2.184   2.946  0.00  0.00    +0.023 A 
ATOM     23  C   LIG    1       -4.295   2.685   1.665  0.00  0.00    +0.030 A 
ATOM     24  C   LIG    1       -5.266   3.495   1.089  0.00  0.00    +0.023 A 
ATOM     25  C   LIG    1       -6.419   3.791   1.788  0.00  0.00    +0.002 A 
ENDBRANCH   1  23
TORSDOF 2
