REMARK  Name = ZINC00156949
REMARK                            x       y       z     vdW  Elec       q    Type
REMARK                         _______ _______ _______ _____ _____    ______ ____
ROOT
ATOM      1  C   LIG    1       -2.426   1.535   0.017  0.00  0.00    +0.026 A 
ATOM      2  C   LIG    1       -3.565   2.315   0.031  0.00  0.00    +0.026 A 
ATOM      3  C   LIG    1       -3.458   3.700   0.038  0.00  0.00    +0.045 A 
ATOM      4  C   LIG    1       -2.205   4.299   0.036  0.00  0.00    +0.026 A 
ATOM      5  C   LIG    1       -1.067   3.518   0.026  0.00  0.00    +0.026 A 
ATOM      6  C   LIG    1       -1.174   2.134   0.019  0.00  0.00    +0.045 A 
ENDROOT
BRANCH   3   7
ATOM      7  N   LIG    1       -4.615   4.493   0.048  0.00  0.00    -0.203 N 
ATOM      8  C   LIG    1       -4.633   5.838   0.060  0.00  0.00    +0.250 C 
ATOM      9  C   LIG    1       -6.043   6.286   0.063  0.00  0.00    +0.073 C 
ATOM     10  C   LIG    1       -6.803   5.178   0.061  0.00  0.00    +0.073 C 
ATOM     11  O   LIG    1       -3.658   6.561   0.066  0.00  0.00    -0.270 OA
ATOM     12  C   LIG    1       -5.876   4.024   0.051  0.00  0.00    +0.250 C 
ATOM     13  O   LIG    1       -6.199   2.854   0.046  0.00  0.00    -0.270 OA
ENDBRANCH   3   7
BRANCH   6  14
ATOM     14  N   LIG    1       -0.016   1.341   0.009  0.00  0.00    -0.203 N 
ATOM     15  C   LIG    1        1.245   1.809  -0.000  0.00  0.00    +0.250 C 
ATOM     16  C   LIG    1        2.172   0.656  -0.015  0.00  0.00    +0.073 C 
ATOM     17  C   LIG    1        1.412  -0.452  -0.014  0.00  0.00    +0.073 C 
ATOM     18  O   LIG    1        1.568   2.980   0.003  0.00  0.00    -0.270 OA
ATOM     19  C   LIG    1        0.002  -0.004   0.002  0.00  0.00    +0.250 C 
ATOM     20  O   LIG    1       -0.973  -0.727   0.008  0.00  0.00    -0.270 OA
ENDBRANCH   6  14
TORSDOF 2
