REMARK  Name = ZINC00098409
REMARK                            x       y       z     vdW  Elec       q    Type
REMARK                         _______ _______ _______ _____ _____    ______ ____
ROOT
ATOM      1  C   LIG    1       -0.439  -2.752  -2.516  0.00  0.00    +0.099 A 
ATOM      2  C   LIG    1       -1.188  -3.467  -1.566  0.00  0.00    +0.128 A 
ATOM      3  N   LIG    1       -0.619  -4.054  -0.545  0.00  0.00    -0.254 NA
ATOM      4  C   LIG    1        0.707  -4.009  -0.347  0.00  0.00    +0.073 A 
ATOM      5  C   LIG    1        1.289  -4.651   0.758  0.00  0.00    +0.028 A 
ATOM      6  C   LIG    1        2.638  -4.594   0.941  0.00  0.00    +0.002 A 
ATOM      7  C   LIG    1        3.455  -3.907   0.048  0.00  0.00    +0.001 A 
ATOM      8  C   LIG    1        2.924  -3.273  -1.036  0.00  0.00    +0.012 A 
ATOM      9  C   LIG    1        1.540  -3.312  -1.253  0.00  0.00    +0.022 A 
ATOM     10  C   LIG    1        0.954  -2.670  -2.372  0.00  0.00    +0.056 A 
ENDROOT
BRANCH   1  11
ATOM     11  C   LIG    1       -1.108  -2.102  -3.653  0.00  0.00    +0.342 C 
ATOM     12  O   LIG    1       -0.447  -1.574  -4.526  0.00  0.00    -0.245 OA
BRANCH  11  13
ATOM     13  O   LIG    1       -2.454  -2.092  -3.727  0.00  0.00    -0.461 OA
BRANCH  13  15
ATOM     14  C   LIG    1       -4.563  -1.714  -4.885  0.00  0.00    +0.048 C 
ATOM     15  C   LIG    1       -3.044  -1.539  -4.934  0.00  0.00    +0.229 C 
ENDBRANCH  13  15
ENDBRANCH  11  13
ENDBRANCH   1  11
BRANCH  10  16
ATOM     16  N   LIG    1        1.726  -1.984  -3.284  0.00  0.00    -0.313 N 
ATOM     17  H   LIG    1        1.980  -1.064  -3.110  0.00  0.00    +0.152 HD
BRANCH  16  18
ATOM     18  C   LIG    1        2.143  -2.614  -4.459  0.00  0.00    +0.034 A 
ATOM     19  C   LIG    1        1.812  -3.943  -4.693  0.00  0.00    +0.023 A 
ATOM     20  C   LIG    1        2.222  -4.560  -5.858  0.00  0.00    +0.002 A 
ATOM     21  C   LIG    1        2.970  -3.860  -6.787  0.00  0.00    +0.000 A 
ATOM     22  C   LIG    1        3.305  -2.539  -6.556  0.00  0.00    +0.005 A 
ATOM     23  C   LIG    1        2.895  -1.914  -5.394  0.00  0.00    -0.029 A 
ATOM     24  C   LIG    1        3.262  -0.474  -5.143  0.00  0.00    +0.045 C 
ENDBRANCH  16  18
ENDBRANCH  10  16
TORSDOF 5
