REMARK  Name = ZINC00155677
REMARK                            x       y       z     vdW  Elec       q    Type
REMARK                         _______ _______ _______ _____ _____    ______ ____
ROOT
ATOM      1  C   LIG    1       -0.016   1.357   0.009  0.00  0.00    +0.001 A 
ATOM      2  C   LIG    1        1.169   2.090   0.002  0.00  0.00    +0.001 A 
ATOM      3  C   LIG    1        2.379   1.466  -0.013  0.00  0.00    +0.012 A 
ATOM      4  C   LIG    1        2.438   0.063  -0.021  0.00  0.00    +0.024 A 
ATOM      5  C   LIG    1        1.233  -0.683  -0.013  0.00  0.00    -0.011 A 
ATOM      6  C   LIG    1        1.290  -2.086  -0.021  0.00  0.00    +0.054 A 
ATOM      7  C   LIG    1        2.513  -2.718  -0.035  0.00  0.00    +0.121 A 
ATOM      8  C   LIG    1        3.699  -1.980  -0.043  0.00  0.00    +0.091 A 
ATOM      9  C   LIG    1        3.674  -0.615  -0.036  0.00  0.00    +0.128 A 
ATOM     10  C   LIG    1        0.002  -0.004   0.002  0.00  0.00    +0.009 A 
ENDROOT
BRANCH   7  11
ATOM     11  O   LIG    1        2.567  -4.076  -0.042  0.00  0.00    -0.507 OA
ATOM     12  H   LIG    1        2.574  -4.465  -0.927  0.00  0.00    +0.292 HD
ENDBRANCH   7  11
BRANCH   9  13
ATOM     13  O   LIG    1        4.837   0.087  -0.043  0.00  0.00    -0.506 OA
ATOM     14  H   LIG    1        5.181   0.286   0.838  0.00  0.00    +0.292 HD
ENDBRANCH   9  13
TORSDOF 2
