REMARK  Name = ZINC00120208
REMARK                            x       y       z     vdW  Elec       q    Type
REMARK                         _______ _______ _______ _____ _____    ______ ____
ROOT
ATOM      1  C   LIG    1       -2.408   1.365   0.026  0.00  0.00    +0.002 A 
ATOM      2  C   LIG    1       -2.393  -0.017   0.016  0.00  0.00    +0.004 A 
ATOM      3  C   LIG    1       -1.190  -0.704   0.004  0.00  0.00    +0.048 A 
ATOM      4  C   LIG    1        0.002  -0.004   0.002  0.00  0.00    +0.150 A 
ATOM      5  C   LIG    1       -0.017   1.391   0.010  0.00  0.00    +0.074 A 
ATOM      6  N   LIG    1        1.213   2.077   0.002  0.00  0.00    -0.309 N 
ATOM      7  H   LIG    1        1.301   2.978   0.349  0.00  0.00    +0.152 HD
ATOM      8  C   LIG    1        2.308   1.378  -0.540  0.00  0.00    +0.074 A 
ATOM      9  C   LIG    1        3.396   2.046  -1.068  0.00  0.00    +0.027 A 
ATOM     10  C   LIG    1        4.452   1.324  -1.600  0.00  0.00    +0.002 A 
ATOM     11  C   LIG    1        4.415  -0.058  -1.603  0.00  0.00    +0.004 A 
ATOM     12  C   LIG    1        3.328  -0.731  -1.072  0.00  0.00    +0.048 A 
ATOM     13  C   LIG    1        2.272  -0.018  -0.536  0.00  0.00    +0.150 A 
ATOM     14  O   LIG    1        1.195  -0.660  -0.004  0.00  0.00    -0.452 OA
ATOM     15  C   LIG    1       -1.218   2.073   0.019  0.00  0.00    +0.027 A 
ENDROOT
TORSDOF 0
