REMARK  Name = ZINC00121480
REMARK                            x       y       z     vdW  Elec       q    Type
REMARK                         _______ _______ _______ _____ _____    ______ ____
ROOT
ATOM      1  N   LIG    1       -1.184  -0.721  -0.148  0.00  0.00    -0.269 N 
ATOM      2  H   LIG    1       -2.009  -0.253   0.057  0.00  0.00    +0.156 HD
ATOM      3  C   LIG    1       -1.182  -2.064  -0.261  0.00  0.00    +0.308 C 
ATOM      4  N   LIG    1       -2.342  -2.748  -0.193  0.00  0.00    -0.269 N 
ATOM      5  H   LIG    1       -3.184  -2.269  -0.139  0.00  0.00    +0.156 HD
ATOM      6  O   LIG    1       -0.135  -2.659  -0.423  0.00  0.00    -0.252 OA
ENDROOT
BRANCH   4   7
ATOM      7  C   LIG    1       -2.331  -4.147  -0.201  0.00  0.00    +0.036 A 
ATOM      8  C   LIG    1       -1.281  -4.838   0.391  0.00  0.00    +0.025 A 
ATOM      9  C   LIG    1       -1.272  -6.219   0.382  0.00  0.00    +0.023 A 
ATOM     10  C   LIG    1       -2.307  -6.915  -0.216  0.00  0.00    +0.059 A 
ATOM     11 CL   LIG    1       -2.292  -8.651  -0.226  0.00  0.00    -0.082 Cl
ATOM     12  C   LIG    1       -3.355  -6.230  -0.806  0.00  0.00    +0.061 A 
ATOM     13 CL   LIG    1       -4.653  -7.107  -1.556  0.00  0.00    -0.082 Cl
ATOM     14  C   LIG    1       -3.372  -4.848  -0.795  0.00  0.00    +0.044 A 
ENDBRANCH   4   7
BRANCH   1  21
ATOM     15  C   LIG    1        0.960  -0.452  -1.227  0.00  0.00    +0.025 A 
ATOM     16  C   LIG    1        2.131   0.260  -1.401  0.00  0.00    +0.022 A 
ATOM     17  C   LIG    1        2.352   1.420  -0.679  0.00  0.00    +0.041 A 
ATOM     18 CL   LIG    1        3.825   2.311  -0.901  0.00  0.00    -0.084 Cl
ATOM     19  C   LIG    1        1.400   1.870   0.219  0.00  0.00    +0.022 A 
ATOM     20  C   LIG    1        0.228   1.162   0.397  0.00  0.00    +0.025 A 
ATOM     21  C   LIG    1        0.004  -0.002  -0.326  0.00  0.00    +0.035 A 
ENDBRANCH   1  21
TORSDOF 2
