REMARK  Name = ZINC00160637
REMARK                            x       y       z     vdW  Elec       q    Type
REMARK                         _______ _______ _______ _____ _____    ______ ____
ROOT
ATOM      1  C   LIG    1        3.696  -0.685  -0.038  0.00  0.00    +0.200 C 
ATOM      2  O   LIG    1        4.738  -0.061  -0.125  0.00  0.00    -0.286 OA
ENDROOT
BRANCH   1   6
ATOM      3  C   LIG    1       -0.019   1.376  -0.034  0.00  0.00    +0.000 A 
ATOM      4  C   LIG    1        1.154   2.071  -0.273  0.00  0.00    +0.001 A 
ATOM      5  C   LIG    1        2.364   1.408  -0.275  0.00  0.00    +0.012 A 
ATOM      6  C   LIG    1        2.403   0.033  -0.036  0.00  0.00    +0.023 A 
ATOM      7  C   LIG    1        1.216  -0.662   0.204  0.00  0.00    +0.012 A 
ATOM      8  C   LIG    1        0.013   0.013   0.204  0.00  0.00    +0.001 A 
ENDBRANCH   1   6
BRANCH   1   9
ATOM      9  C   LIG    1        3.723  -2.145   0.064  0.00  0.00    +0.059 A 
ATOM     10  C   LIG    1        4.817  -2.995   0.167  0.00  0.00    +0.019 A 
ATOM     11  C   LIG    1        4.524  -4.334   0.249  0.00  0.00    +0.008 A 
ATOM     12  C   LIG    1        3.226  -4.729   0.225  0.00  0.00    +0.046 A 
ATOM     13  S   LIG    1        2.361  -3.294   0.098  0.00  0.00    -0.093 S 
ENDBRANCH   1   9
TORSDOF 2
