REMARK  Name = ZINC00306266
REMARK                            x       y       z     vdW  Elec       q    Type
REMARK                         _______ _______ _______ _____ _____    ______ ____
ROOT
ATOM      1  N   LIG    1        5.453  -1.673   1.382  0.00  0.00    -0.326 N 
ATOM      2  H   LIG    1        5.869  -1.904   0.536  0.00  0.00    +0.148 HD
ENDROOT
BRANCH   1   3
ATOM      3  C   LIG    1        6.051  -2.011   2.541  0.00  0.00    +0.136 C 
ATOM      4  S   LIG    1        5.319  -1.602   4.033  0.00  0.00    -0.019 S 
BRANCH   3   5
ATOM      5  N   LIG    1        7.226  -2.671   2.526  0.00  0.00    -0.282 N 
ATOM      6  H   LIG    1        7.604  -2.969   1.683  0.00  0.00    +0.155 HD
BRANCH   5   7
ATOM      7  C   LIG    1        7.898  -2.925   3.720  0.00  0.00    +0.124 A 
ATOM      8  C   LIG    1        9.159  -3.511   3.689  0.00  0.00    +0.044 A 
ATOM      9  C   LIG    1        9.815  -3.758   4.882  0.00  0.00    +0.005 A 
ATOM     10  C   LIG    1        9.185  -3.409   6.069  0.00  0.00    +0.020 A 
ATOM     11  C   LIG    1        7.932  -2.831   6.025  0.00  0.00    +0.113 A 
ATOM     12  N   LIG    1        7.333  -2.602   4.872  0.00  0.00    -0.240 NA
ENDBRANCH   5   7
ENDBRANCH   3   5
ENDBRANCH   1   3
BRANCH   1  13
ATOM     13  C   LIG    1        4.176  -0.955   1.398  0.00  0.00    +0.108 C 
BRANCH  13  14
ATOM     14  C   LIG    1        3.719  -0.695  -0.038  0.00  0.00    +0.054 C 
BRANCH  14  18
ATOM     15  C   LIG    1       -0.005   1.398   0.008  0.00  0.00    +0.000 A 
ATOM     16  C   LIG    1        1.184   2.103   0.004  0.00  0.00    +0.000 A 
ATOM     17  C   LIG    1        2.389   1.426  -0.011  0.00  0.00    +0.004 A 
ATOM     18  C   LIG    1        2.405   0.043  -0.021  0.00  0.00    -0.046 A 
ATOM     19  C   LIG    1        1.216  -0.662  -0.016  0.00  0.00    +0.004 A 
ATOM     20  C   LIG    1        0.011   0.016  -0.002  0.00  0.00    +0.000 A 
ENDBRANCH  14  18
ENDBRANCH  13  14
ENDBRANCH   1  13
TORSDOF 6
