REMARK  Name = ZINC00272582
REMARK                            x       y       z     vdW  Elec       q    Type
REMARK                         _______ _______ _______ _____ _____    ______ ____
ROOT
ATOM      1  C   LIG    1       -0.104  -0.689  -1.192  0.00  0.00    +0.116 C 
ATOM      2  C   LIG    1       -0.132  -0.151  -2.438  0.00  0.00    +0.129 C 
ATOM      3 CL   LIG    1       -0.040   1.536  -2.840  0.00  0.00    -0.076 Cl
ATOM      4  C   LIG    1       -0.254  -1.270  -3.380  0.00  0.00    +0.271 C 
ATOM      5  N   LIG    1       -0.295  -2.420  -2.685  0.00  0.00    -0.200 N 
ATOM      6  O   LIG    1       -0.308  -1.173  -4.590  0.00  0.00    -0.268 OA
ATOM      7  C   LIG    1       -0.205  -2.161  -1.368  0.00  0.00    +0.273 C 
ATOM      8  O   LIG    1       -0.207  -2.986  -0.478  0.00  0.00    -0.268 OA
ENDROOT
BRANCH   5   9
ATOM      9  C   LIG    1       -0.409  -3.698  -3.249  0.00  0.00    +0.046 A 
ATOM     10  C   LIG    1       -0.449  -4.819  -2.429  0.00  0.00    +0.025 A 
ATOM     11  C   LIG    1       -0.561  -6.077  -2.987  0.00  0.00    +0.023 A 
ATOM     12  C   LIG    1       -0.634  -6.223  -4.361  0.00  0.00    +0.059 A 
ATOM     13 CL   LIG    1       -0.774  -7.807  -5.058  0.00  0.00    -0.082 Cl
ATOM     14  C   LIG    1       -0.595  -5.108  -5.181  0.00  0.00    +0.061 A 
ATOM     15 CL   LIG    1       -0.687  -5.294  -6.904  0.00  0.00    -0.082 Cl
ATOM     16  C   LIG    1       -0.488  -3.846  -4.627  0.00  0.00    +0.045 A 
ENDBRANCH   5   9
BRANCH   1  18
ATOM     17  C   LIG    1       -0.059   1.460   0.015  0.00  0.00    +0.129 C 
ATOM     18  N   LIG    1        0.002  -0.004   0.002  0.00  0.00    -0.331 N 
ATOM     19  C   LIG    1        0.176  -0.741   1.256  0.00  0.00    +0.129 C 
ENDBRANCH   1  18
TORSDOF 2
