REMARK  Name = ZINC00079237
REMARK                            x       y       z     vdW  Elec       q    Type
REMARK                         _______ _______ _______ _____ _____    ______ ____
ROOT
ATOM      1  C   LIG    1       -1.253   3.532   0.027  0.00  0.00    +0.153 C 
ENDROOT
BRANCH   1   2
ATOM      2  C   LIG    1       -2.592   4.015   0.522  0.00  0.00    +0.022 A 
ATOM      3  C   LIG    1       -3.662   3.126   0.582  0.00  0.00    +0.010 A 
ATOM      4  C   LIG    1       -4.883   3.530   1.030  0.00  0.00    +0.010 A 
ATOM      5  C   LIG    1       -5.074   4.863   1.427  0.00  0.00    +0.004 A 
ATOM      6  C   LIG    1       -6.323   5.319   1.890  0.00  0.00    +0.011 A 
ATOM      7  C   LIG    1       -6.434   6.629   2.260  0.00  0.00    +0.020 A 
ATOM      8  C   LIG    1       -5.329   7.472   2.172  0.00  0.00    +0.111 A 
ATOM      9  N   LIG    1       -4.167   7.044   1.741  0.00  0.00    -0.251 NA
ATOM     10  C   LIG    1       -3.991   5.775   1.363  0.00  0.00    +0.113 A 
ATOM     11  C   LIG    1       -2.739   5.319   0.900  0.00  0.00    +0.148 A 
BRANCH  11  12
ATOM     12  O   LIG    1       -1.685   6.173   0.829  0.00  0.00    -0.504 OA
ATOM     13  H   LIG    1       -1.608   6.634  -0.017  0.00  0.00    +0.292 HD
ENDBRANCH  11  12
ENDBRANCH   1   2
BRANCH   1  18
ATOM     14  C   LIG    1        0.011   4.733  -3.315  0.00  0.00    +0.003 A 
ATOM     15  C   LIG    1       -0.980   4.215  -4.135  0.00  0.00    +0.020 A 
ATOM     16  C   LIG    1       -2.017   3.498  -3.569  0.00  0.00    +0.111 A 
ATOM     17  N   LIG    1       -2.067   3.301  -2.266  0.00  0.00    -0.258 NA
ATOM     18  C   LIG    1       -1.146   3.782  -1.455  0.00  0.00    +0.066 A 
ATOM     19  C   LIG    1       -0.079   4.509  -1.950  0.00  0.00    +0.025 A 
ENDBRANCH   1  18
BRANCH   1  20
ATOM     20  N   LIG    1       -1.124   2.097   0.291  0.00  0.00    -0.332 N 
ATOM     21  H   LIG    1       -1.916   1.541   0.347  0.00  0.00    +0.147 HD
BRANCH  20  22
ATOM     22  C   LIG    1        0.141   1.530   0.462  0.00  0.00    +0.031 A 
ATOM     23  C   LIG    1        1.278   2.325   0.377  0.00  0.00    +0.023 A 
ATOM     24  C   LIG    1        2.528   1.761   0.540  0.00  0.00    +0.005 A 
ATOM     25  C   LIG    1        2.650   0.406   0.789  0.00  0.00    +0.038 A 
ATOM     26  C   LIG    1        1.520  -0.390   0.876  0.00  0.00    +0.125 A 
ATOM     27  F   LIG    1        1.643  -1.713   1.119  0.00  0.00    -0.205 F 
ATOM     28  C   LIG    1        0.265   0.170   0.712  0.00  0.00    +0.061 A 
ENDBRANCH  20  22
ENDBRANCH   1  20
TORSDOF 5
