REMARK  Name = ZINC00120367
REMARK                            x       y       z     vdW  Elec       q    Type
REMARK                         _______ _______ _______ _____ _____    ______ ____
ROOT
ATOM      1  C   LIG    1       -4.450   1.387   4.161  0.00  0.00    +0.121 A 
ATOM      2  C   LIG    1       -5.619   1.046   3.490  0.00  0.00    +0.047 A 
ATOM      3  C   LIG    1       -5.642   0.800   2.129  0.00  0.00    +0.030 A 
ATOM      4  C   LIG    1       -4.435   0.910   1.443  0.00  0.00    +0.047 A 
ATOM      5  C   LIG    1       -3.240   1.258   2.124  0.00  0.00    +0.006 A 
ATOM      6  C   LIG    1       -2.201   1.278   1.119  0.00  0.00    -0.022 A 
ATOM      7  C   LIG    1       -2.779   0.961  -0.061  0.00  0.00    +0.017 A 
ATOM      8  CA  LIG    1       -2.011   0.881  -1.359  0.00  0.00    +0.087 C 
ATOM      9  N   LIG    1       -0.719   1.582  -1.191  0.00  0.00    +0.392 N 
ATOM     10  H1  LIG    1       -0.135   1.418  -2.019  0.00  0.00    -0.084 HD
ATOM     11  H2  LIG    1       -0.892   2.589  -1.088  0.00  0.00    -0.084 HD
ATOM     12  C   LIG    1       -0.013   1.086   0.008  0.00  0.00    -0.076 C 
ATOM     13  C   LIG    1       -0.731   1.581   1.271  0.00  0.00    +0.018 C 
ATOM     14  N   LIG    1       -4.116   0.738   0.123  0.00  0.00    -0.359 N 
ATOM     15  H   LIG    1       -4.744   0.494  -0.575  0.00  0.00    +0.166 HD
ATOM     16  C   LIG    1       -3.236   1.502   3.502  0.00  0.00    +0.056 A 
ENDROOT
BRANCH   1  18
ATOM     17  C   LIG    1       -5.774   1.484   6.135  0.00  0.00    +0.277 C 
ATOM     18  O   LIG    1       -4.500   1.614   5.501  0.00  0.00    -0.495 OA
ENDBRANCH   1  18
BRANCH   8  19
ATOM     19  C   LIG    1       -2.799   1.551  -2.456  0.00  0.00    +0.296 C 
ATOM     20  O   LIG    1       -2.535   2.683  -2.785  0.00  0.00    -0.252 OA
BRANCH  19  21
ATOM     21  OXT LIG    1       -3.793   0.889  -3.068  0.00  0.00    -0.481 OA
ATOM     22  HXT LIG    1       -3.998   0.011  -2.813  0.00  0.00    +0.295 HD
ENDBRANCH  19  21
ENDBRANCH   8  19
TORSDOF 3
