REMARK  Name = ZINC00161475
REMARK                            x       y       z     vdW  Elec       q    Type
REMARK                         _______ _______ _______ _____ _____    ______ ____
ROOT
ATOM      1  C   LIG    1        0.116   5.191   0.029  0.00  0.00    +0.162 A 
ATOM      2  C   LIG    1        0.057   3.811   0.022  0.00  0.00    +0.065 A 
ATOM      3  C   LIG    1        1.238   3.064   0.007  0.00  0.00    +0.076 A 
ATOM      4  C   LIG    1        2.475   3.717   0.004  0.00  0.00    +0.036 A 
ATOM      5 BR   LIG    1        4.076   2.712  -0.009  0.00  0.00    -0.049 Br
ATOM      6  C   LIG    1        2.526   5.096   0.006  0.00  0.00    +0.065 A 
ATOM      7  C   LIG    1        1.352   5.836   0.021  0.00  0.00    +0.163 A 
ENDROOT
BRANCH   1   9
ATOM      8  C   LIG    1       -2.263   5.194   0.051  0.00  0.00    +0.277 C 
ATOM      9  O   LIG    1       -1.032   5.920   0.044  0.00  0.00    -0.491 OA
ENDBRANCH   1   9
BRANCH   3  10
ATOM     10  C   LIG    1        1.181   1.591  -0.001  0.00  0.00    +0.338 C 
ATOM     11  O   LIG    1        2.209   0.943  -0.014  0.00  0.00    -0.245 OA
BRANCH  10  12
ATOM     12  O   LIG    1       -0.011   0.963   0.007  0.00  0.00    -0.477 OA
ATOM     13  H   LIG    1       -0.804   1.462   0.018  0.00  0.00    +0.295 HD
ENDBRANCH  10  12
ENDBRANCH   3  10
BRANCH   7  14
ATOM     14  O   LIG    1        1.407   7.193   0.028  0.00  0.00    -0.491 OA
ATOM     15  C   LIG    1        2.706   7.789   0.020  0.00  0.00    +0.277 C 
ENDBRANCH   7  14
TORSDOF 4
