REMARK  Name = ZINC00153920
REMARK                            x       y       z     vdW  Elec       q    Type
REMARK                         _______ _______ _______ _____ _____    ______ ____
ROOT
ATOM      1  C   LIG    1       -1.236   2.028   0.019  0.00  0.00    +0.046 A 
ATOM      2  C   LIG    1       -1.271   3.392   0.032  0.00  0.00    +0.015 A 
ATOM      3  C   LIG    1       -0.075   4.119   0.024  0.00  0.00    +0.022 A 
ATOM      4  C   LIG    1       -0.082   5.583   0.032  0.00  0.00    -0.019 A 
ATOM      5  C   LIG    1        1.112   6.231   0.025  0.00  0.00    +0.096 A 
ATOM      6  C   LIG    1        2.312   5.490   0.009  0.00  0.00    +0.338 A 
ATOM      7  O   LIG    1        2.312   4.148   0.002  0.00  0.00    -0.422 OA
ATOM      8  O   LIG    1        3.375   6.083   0.003  0.00  0.00    -0.245 OA
ATOM      9  C   LIG    1        1.160   3.443   0.009  0.00  0.00    +0.143 A 
ATOM     10  C   LIG    1        1.177   2.057   0.002  0.00  0.00    +0.092 A 
ATOM     11  C   LIG    1       -0.016   1.353   0.009  0.00  0.00    +0.120 A 
ENDROOT
BRANCH  11  12
ATOM     12  O   LIG    1        0.002  -0.004   0.002  0.00  0.00    -0.507 OA
ATOM     13  H   LIG    1        0.016  -0.402   0.883  0.00  0.00    +0.292 HD
ENDBRANCH  11  12
BRANCH   4  14
ATOM     14  C   LIG    1       -1.379   6.350   0.048  0.00  0.00    +0.156 C 
BRANCH  14  15
ATOM     15  C   LIG    1       -1.861   6.492   1.469  0.00  0.00    +0.309 C 
ATOM     16  O   LIG    1       -1.218   6.018   2.376  0.00  0.00    -0.251 OA
BRANCH  15  17
ATOM     17  O   LIG    1       -3.006   7.144   1.727  0.00  0.00    -0.480 OA
ATOM     18  H   LIG    1       -3.505   7.511   1.024  0.00  0.00    +0.295 HD
ENDBRANCH  15  17
ENDBRANCH  14  15
ENDBRANCH   4  14
TORSDOF 4
