REMARK  Name = ZINC00205125
REMARK                            x       y       z     vdW  Elec       q    Type
REMARK                         _______ _______ _______ _____ _____    ______ ____
ROOT
ATOM      1  N   LIG    1       -0.017   1.397   0.010  0.00  0.00    -0.281 N 
ATOM      2  H   LIG    1        0.686   1.793  -0.529  0.00  0.00    +0.155 HD
ATOM      3  C   LIG    1       -0.858   2.186   0.707  0.00  0.00    +0.254 C 
ATOM      4  O   LIG    1       -1.673   1.690   1.461  0.00  0.00    -0.270 OA
ENDROOT
BRANCH   1   8
ATOM      5  C   LIG    1       -0.425  -2.750   0.181  0.00  0.00    +0.030 A 
ATOM      6  C   LIG    1       -1.549  -1.938   0.260  0.00  0.00    +0.025 A 
ATOM      7  C   LIG    1       -1.414  -0.565   0.203  0.00  0.00    +0.025 A 
ATOM      8  C   LIG    1       -0.154   0.004   0.067  0.00  0.00    +0.034 A 
ATOM      9  C   LIG    1        0.969  -0.809  -0.017  0.00  0.00    +0.025 A 
ATOM     10  C   LIG    1        0.834  -2.181   0.044  0.00  0.00    +0.025 A 
BRANCH   5  11
ATOM     11  N   LIG    1       -0.562  -4.141   0.239  0.00  0.00    -0.330 N 
BRANCH  11  13
ATOM     12  C   LIG    1        1.171  -5.250   1.562  0.00  0.00    +0.024 C 
ATOM     13  C   LIG    1        0.623  -4.998   0.155  0.00  0.00    +0.102 C 
ENDBRANCH  11  13
BRANCH  11  14
ATOM     14  C   LIG    1       -1.891  -4.741   0.383  0.00  0.00    +0.102 C 
ATOM     15  C   LIG    1       -2.489  -4.996  -1.002  0.00  0.00    +0.024 C 
ENDBRANCH  11  14
ENDBRANCH   5  11
ENDBRANCH   1   8
BRANCH   3  16
ATOM     16  C   LIG    1       -0.789   3.650   0.557  0.00  0.00    +0.106 A 
ATOM     17  C   LIG    1       -1.456   4.450  -0.336  0.00  0.00    +0.147 A 
ATOM     18  C   LIG    1       -2.434   4.003  -1.392  0.00  0.00    +0.090 C 
ATOM     19  O   LIG    1       -1.071   5.703  -0.084  0.00  0.00    -0.359 OA
ATOM     20  N   LIG    1       -0.269   5.787   0.814  0.00  0.00    -0.077 NA
ATOM     21  C   LIG    1        0.020   4.618   1.326  0.00  0.00    +0.126 A 
BRANCH  21  22
ATOM     22  C   LIG    1        0.958   4.328   2.438  0.00  0.00    +0.004 A 
ATOM     23  C   LIG    1        0.679   3.302   3.339  0.00  0.00    +0.010 A 
ATOM     24  C   LIG    1        1.558   3.033   4.368  0.00  0.00    +0.001 A 
ATOM     25  C   LIG    1        2.709   3.786   4.513  0.00  0.00    +0.000 A 
ATOM     26  C   LIG    1        2.989   4.809   3.624  0.00  0.00    +0.001 A 
ATOM     27  C   LIG    1        2.120   5.083   2.588  0.00  0.00    +0.010 A 
ENDBRANCH  21  22
ENDBRANCH   3  16
TORSDOF 6
