REMARK  Name = ZINC00128065
REMARK                            x       y       z     vdW  Elec       q    Type
REMARK                         _______ _______ _______ _____ _____    ______ ____
ROOT
ATOM      1  C   LIG    1        5.194  -2.446   0.544  0.00  0.00    +0.121 A 
ATOM      2  C   LIG    1        6.252  -2.608  -0.339  0.00  0.00    +0.047 A 
ATOM      3  C   LIG    1        7.490  -2.999   0.131  0.00  0.00    +0.027 A 
ATOM      4  C   LIG    1        7.677  -3.229   1.488  0.00  0.00    +0.033 A 
ATOM      5  C   LIG    1        6.618  -3.065   2.371  0.00  0.00    +0.027 A 
ATOM      6  C   LIG    1        5.381  -2.670   1.900  0.00  0.00    +0.047 A 
ENDROOT
BRANCH   4   7
ATOM      7  N   LIG    1        8.932  -3.626   1.965  0.00  0.00    -0.295 N 
ATOM      8  H   LIG    1        8.995  -4.240   2.714  0.00  0.00    +0.154 HD
BRANCH   7   9
ATOM      9  C   LIG    1       10.070  -3.148   1.376  0.00  0.00    +0.146 C 
ATOM     10  N   LIG    1       11.232  -3.864   1.453  0.00  0.00    -0.295 N 
ATOM     11  H   LIG    1       11.250  -4.710   1.926  0.00  0.00    +0.186 HD
BRANCH  10  12
ATOM     12  N   LIG    1       12.398  -3.374   0.849  0.00  0.00    -0.303 N 
ATOM     13  H   LIG    1       13.223  -3.882   0.904  0.00  0.00    +0.162 HD
ATOM     14  H   LIG    1       12.380  -2.528   0.376  0.00  0.00    +0.162 HD
ENDBRANCH  10  12
BRANCH   9  15
ATOM     15  S   LIG    1       10.040  -1.699   0.566  0.00  0.00    -0.108 S 
ATOM     16  H   LIG    1        8.787  -1.175   0.622  0.00  0.00    +0.110 HD
ENDBRANCH   9  15
ENDBRANCH   7   9
ENDBRANCH   4   7
BRANCH   1  17
ATOM     17  O   LIG    1        3.975  -2.061   0.080  0.00  0.00    -0.487 OA
BRANCH  17  18
ATOM     18  C   LIG    1        3.854  -1.848  -1.328  0.00  0.00    +0.264 C 
BRANCH  18  22
ATOM     19  C   LIG    1       -0.144  -0.662  -2.252  0.00  0.00    +0.000 A 
ATOM     20  C   LIG    1        0.809   0.294  -1.954  0.00  0.00    +0.000 A 
ATOM     21  C   LIG    1        2.103  -0.089  -1.655  0.00  0.00    +0.007 A 
ATOM     22  C   LIG    1        2.443  -1.429  -1.653  0.00  0.00    -0.010 A 
ATOM     23  C   LIG    1        1.490  -2.385  -1.950  0.00  0.00    +0.007 A 
ATOM     24  C   LIG    1        0.197  -2.001  -2.250  0.00  0.00    +0.000 A 
ENDBRANCH  18  22
ENDBRANCH  17  18
ENDBRANCH   1  17
TORSDOF 7
