REMARK  Name = ZINC00160011
REMARK                            x       y       z     vdW  Elec       q    Type
REMARK                         _______ _______ _______ _____ _____    ______ ____
ROOT
ATOM      1  N   LIG    1       -1.948  -1.147  -1.567  0.00  0.00    -0.216 N 
ATOM      2  H   LIG    1       -1.381  -0.801  -2.293  0.00  0.00    +0.174 HD
ENDROOT
BRANCH   1   3
ATOM      3  C   LIG    1       -3.124  -1.844  -1.869  0.00  0.00    +0.049 A 
ATOM      4  C   LIG    1       -3.923  -2.325  -0.822  0.00  0.00    +0.026 A 
ATOM      5  C   LIG    1       -5.072  -3.005  -1.056  0.00  0.00    +0.032 A 
ATOM      6  C   LIG    1       -5.486  -3.243  -2.384  0.00  0.00    +0.094 A 
ATOM      7  N   LIG    1       -6.519  -3.852  -2.938  0.00  0.00    -0.173 NA
ATOM      8  N   LIG    1       -6.402  -3.774  -4.331  0.00  0.00    -0.266 N 
ATOM      9  H   LIG    1       -7.034  -4.146  -4.965  0.00  0.00    +0.190 HD
ATOM     10  C   LIG    1       -5.284  -3.108  -4.658  0.00  0.00    +0.132 A 
ATOM     11 CL   LIG    1       -4.731  -2.770  -6.269  0.00  0.00    -0.062 Cl
ATOM     12  C   LIG    1       -4.650  -2.740  -3.485  0.00  0.00    +0.040 A 
ATOM     13  C   LIG    1       -3.468  -2.034  -3.174  0.00  0.00    +0.037 A 
ENDBRANCH   1   3
BRANCH   1  14
ATOM     14  S   LIG    1       -1.512  -0.905   0.012  0.00  0.00    +0.072 S 
ATOM     15  O   LIG    1       -2.492  -0.046   0.577  0.00  0.00    -0.150 OA
ATOM     16  O   LIG    1       -1.218  -2.186   0.553  0.00  0.00    -0.150 OA
BRANCH  14  23
ATOM     17  C   LIG    1       -0.017   1.378   0.010  0.00  0.00    +0.030 A 
ATOM     18  C   LIG    1        1.171   2.086   0.002  0.00  0.00    +0.022 A 
ATOM     19  C   LIG    1        2.378   1.410  -0.013  0.00  0.00    +0.041 A 
ATOM     20 CL   LIG    1        3.870   2.298  -0.023  0.00  0.00    -0.084 Cl
ATOM     21  C   LIG    1        2.396   0.027  -0.021  0.00  0.00    +0.022 A 
ATOM     22  C   LIG    1        1.208  -0.679  -0.013  0.00  0.00    +0.030 A 
ATOM     23  C   LIG    1        0.002  -0.004   0.002  0.00  0.00    +0.109 A 
ENDBRANCH  14  23
ENDBRANCH   1  14
TORSDOF 3
