REMARK  Name = ZINC00128065
REMARK                            x       y       z     vdW  Elec       q    Type
REMARK                         _______ _______ _______ _____ _____    ______ ____
ROOT
ATOM      1  C   LIG    1        5.313  -1.624   1.438  0.00  0.00    +0.121 A 
ATOM      2  C   LIG    1        6.175  -1.791   0.365  0.00  0.00    +0.047 A 
ATOM      3  C   LIG    1        7.374  -2.454   0.538  0.00  0.00    +0.027 A 
ATOM      4  C   LIG    1        7.716  -2.953   1.788  0.00  0.00    +0.033 A 
ATOM      5  C   LIG    1        6.853  -2.785   2.863  0.00  0.00    +0.027 A 
ATOM      6  C   LIG    1        5.657  -2.118   2.688  0.00  0.00    +0.047 A 
ENDROOT
BRANCH   4   7
ATOM      7  N   LIG    1        8.932  -3.626   1.965  0.00  0.00    -0.296 N 
ATOM      8  H   LIG    1        8.967  -4.431   2.505  0.00  0.00    +0.154 HD
BRANCH   7   9
ATOM      9  C   LIG    1       10.054  -3.155   1.384  0.00  0.00    +0.148 C 
ATOM     10  S   LIG    1       10.023  -1.661   0.549  0.00  0.00    -0.017 S 
BRANCH   9  11
ATOM     11  N   LIG    1       11.200  -3.861   1.461  0.00  0.00    -0.265 N 
ATOM     12  H   LIG    1       12.007  -3.522   1.043  0.00  0.00    +0.168 HD
BRANCH  11  13
ATOM     13  N   LIG    1       11.224  -5.053   2.127  0.00  0.00    -0.255 NA
ATOM     14  H   LIG    1       12.146  -5.464   2.100  0.00  0.00    +0.140 HD
ATOM     15  H   LIG    1       10.534  -5.689   1.756  0.00  0.00    +0.140 HD
ENDBRANCH  11  13
ENDBRANCH   9  11
ENDBRANCH   7   9
ENDBRANCH   4   7
BRANCH   1  16
ATOM     16  O   LIG    1        4.132  -0.971   1.267  0.00  0.00    -0.487 OA
BRANCH  16  17
ATOM     17  C   LIG    1        3.842  -0.490  -0.047  0.00  0.00    +0.264 C 
BRANCH  17  21
ATOM     18  C   LIG    1        0.046   1.469  -0.043  0.00  0.00    +0.000 A 
ATOM     19  C   LIG    1        1.196   2.190   0.220  0.00  0.00    +0.000 A 
ATOM     20  C   LIG    1        2.425   1.556   0.219  0.00  0.00    +0.007 A 
ATOM     21  C   LIG    1        2.503   0.201  -0.045  0.00  0.00    -0.010 A 
ATOM     22  C   LIG    1        1.353  -0.520  -0.306  0.00  0.00    +0.007 A 
ATOM     23  C   LIG    1        0.125   0.114  -0.306  0.00  0.00    +0.000 A 
ENDBRANCH  17  21
ENDBRANCH  16  17
ENDBRANCH   1  16
TORSDOF 7
