REMARK  Name = ZINC00113410
REMARK                            x       y       z     vdW  Elec       q    Type
REMARK                         _______ _______ _______ _____ _____    ______ ____
ROOT
ATOM      1  C   LIG    1       -2.794  -2.566  -0.111  0.00  0.00    +0.066 C 
ENDROOT
BRANCH   1   2
ATOM      2  C   LIG    1       -2.848  -4.071  -0.054  0.00  0.00    -0.038 A 
ATOM      3  C   LIG    1       -2.397  -4.820  -1.125  0.00  0.00    +0.006 A 
ATOM      4  C   LIG    1       -2.446  -6.200  -1.073  0.00  0.00    +0.020 A 
ATOM      5  C   LIG    1       -2.948  -6.832   0.051  0.00  0.00    +0.041 A 
ATOM      6 CL   LIG    1       -3.011  -8.566   0.116  0.00  0.00    -0.084 Cl
ATOM      7  C   LIG    1       -3.399  -6.083   1.122  0.00  0.00    +0.020 A 
ATOM      8  C   LIG    1       -3.344  -4.702   1.071  0.00  0.00    +0.006 A 
ENDBRANCH   1   2
BRANCH   1   9
ATOM      9  C   LIG    1       -3.731  -2.070  -1.181  0.00  0.00    +0.049 A 
ATOM     10  C   LIG    1       -3.306  -2.028  -2.496  0.00  0.00    +0.024 A 
ATOM     11  C   LIG    1       -4.177  -1.570  -3.473  0.00  0.00    +0.003 A 
ATOM     12  C   LIG    1       -5.447  -1.169  -3.089  0.00  0.00    +0.020 A 
ATOM     13  C   LIG    1       -5.802  -1.239  -1.756  0.00  0.00    +0.111 A 
ATOM     14  N   LIG    1       -4.949  -1.685  -0.854  0.00  0.00    -0.259 NA
ENDBRANCH   1   9
BRANCH   1  15
ATOM     15  C   LIG    1       -1.367  -2.119  -0.435  0.00  0.00    -0.004 C 
BRANCH  15  16
ATOM     16  C   LIG    1       -1.284  -0.593  -0.370  0.00  0.00    -0.079 C 
BRANCH  16  18
ATOM     17  C   LIG    1        0.139   1.303  -0.738  0.00  0.00    -0.097 C 
ATOM     18  N   LIG    1        0.086  -0.164  -0.682  0.00  0.00    +0.376 N 
ATOM     19  H   LIG    1        0.363  -0.544  -1.575  0.00  0.00    -0.083 HD
ATOM     20  C   LIG    1        1.000  -0.647   0.361  0.00  0.00    -0.097 C 
ENDBRANCH  16  18
ENDBRANCH  15  16
ENDBRANCH   1  15
TORSDOF 5
