REMARK  Name = ZINC00119717
REMARK                            x       y       z     vdW  Elec       q    Type
REMARK                         _______ _______ _______ _____ _____    ______ ____
ROOT
ATOM      1  C   LIG    1       -0.016   1.357   0.009  0.00  0.00    +0.001 A 
ATOM      2  C   LIG    1        1.169   2.091   0.002  0.00  0.00    +0.001 A 
ATOM      3  C   LIG    1        2.378   1.468  -0.013  0.00  0.00    +0.009 A 
ATOM      4  C   LIG    1        2.438   0.064  -0.021  0.00  0.00    -0.014 A 
ATOM      5  C   LIG    1        1.233  -0.683  -0.013  0.00  0.00    -0.018 A 
ATOM      6  C   LIG    1        1.292  -2.087  -0.021  0.00  0.00    +0.008 A 
ATOM      7  C   LIG    1        2.502  -2.709  -0.036  0.00  0.00    +0.001 A 
ATOM      8  C   LIG    1        3.687  -1.976  -0.043  0.00  0.00    +0.005 A 
ATOM      9  C   LIG    1        3.668  -0.615  -0.037  0.00  0.00    -0.028 A 
ATOM     10  C   LIG    1        0.002  -0.004   0.002  0.00  0.00    +0.008 A 
ENDROOT
BRANCH   9  11
ATOM     11  C   LIG    1        4.960   0.161  -0.046  0.00  0.00    +0.159 C 
BRANCH  11  12
ATOM     12  C   LIG    1        5.341   0.519   1.367  0.00  0.00    +0.243 C 
ATOM     13  N   LIG    1        4.947   1.630   1.944  0.00  0.00    -0.275 N 
ATOM     14  H   LIG    1        4.390   2.309   1.532  0.00  0.00    +0.304 HD
ATOM     15  C   LIG    1        5.482   1.683   3.313  0.00  0.00    +0.276 C 
ATOM     16  C   LIG    1        6.280   0.368   3.431  0.00  0.00    +0.268 C 
ATOM     17  N   LIG    1        6.088  -0.260   2.115  0.00  0.00    -0.237 N 
ATOM     18  H   LIG    1        6.456  -1.115   1.841  0.00  0.00    +0.291 HD
ENDBRANCH  11  12
ENDBRANCH   9  11
TORSDOF 2
