REMARK  Name = ZINC00169811
REMARK                            x       y       z     vdW  Elec       q    Type
REMARK                         _______ _______ _______ _____ _____    ______ ____
ROOT
ATOM      1  C   LIG    1        3.711  -0.707  -0.038  0.00  0.00    +0.157 C 
ENDROOT
BRANCH   1   5
ATOM      2  C   LIG    1       -0.017   1.378   0.010  0.00  0.00    +0.000 A 
ATOM      3  C   LIG    1        1.171   2.086   0.002  0.00  0.00    +0.000 A 
ATOM      4  C   LIG    1        2.377   1.411  -0.013  0.00  0.00    +0.005 A 
ATOM      5  C   LIG    1        2.396   0.029  -0.020  0.00  0.00    -0.028 A 
ATOM      6  C   LIG    1        1.208  -0.679  -0.012  0.00  0.00    +0.005 A 
ATOM      7  C   LIG    1        0.002  -0.004   0.002  0.00  0.00    +0.000 A 
ENDBRANCH   1   5
BRANCH   1   8
ATOM      8  N   LIG    1        4.152  -0.952   1.338  0.00  0.00    -0.334 N 
ATOM      9  C   LIG    1        4.929  -0.124   2.102  0.00  0.00    +0.105 A 
ATOM     10  C   LIG    1        5.092  -0.731   3.293  0.00  0.00    +0.101 A 
ATOM     11  N   LIG    1        4.432  -1.898   3.257  0.00  0.00    -0.352 N 
ATOM     12  H   LIG    1        4.383  -2.538   3.985  0.00  0.00    +0.166 HD
ATOM     13  C   LIG    1        3.862  -2.035   2.091  0.00  0.00    +0.174 A 
ENDBRANCH   1   8
TORSDOF 2
