REMARK  Name = ZINC00169533
REMARK                            x       y       z     vdW  Elec       q    Type
REMARK                         _______ _______ _______ _____ _____    ______ ____
ROOT
ATOM      1  C   LIG    1       -1.208   1.635   0.017  0.00  0.00    +0.105 A 
ATOM      2  C   LIG    1       -2.386   0.942   0.013  0.00  0.00    +0.111 A 
ATOM      3  C   LIG    1       -3.596   1.653   0.029  0.00  0.00    +0.256 A 
ATOM      4  N   LIG    1       -3.576   3.001   0.035  0.00  0.00    -0.275 N 
ATOM      5  C   LIG    1       -2.407   3.667   0.033  0.00  0.00    +0.328 A 
ATOM      6  O   LIG    1       -2.411   4.883   0.039  0.00  0.00    -0.247 OA
ATOM      7  H   LIG    1       -4.437   3.509   0.042  0.00  0.00    +0.173 HD
ATOM      8  O   LIG    1       -4.659   1.056   0.032  0.00  0.00    -0.268 OA
ATOM      9  N   LIG    1       -1.234   3.009   0.024  0.00  0.00    -0.296 N 
ATOM     10  H   LIG    1       -0.376   3.522   0.023  0.00  0.00    +0.172 HD
ENDROOT
BRANCH   1  11
ATOM     11  N   LIG    1       -0.011   0.966   0.007  0.00  0.00    -0.326 N 
ATOM     12  H   LIG    1        0.002  -0.004   0.002  0.00  0.00    +0.148 HD
BRANCH  11  13
ATOM     13  C   LIG    1        1.248   1.716  -0.001  0.00  0.00    +0.138 C 
BRANCH  13  17
ATOM     14  C   LIG    1        4.532  -1.016  -0.047  0.00  0.00    +0.000 A 
ATOM     15  C   LIG    1        3.989  -0.567  -1.236  0.00  0.00    +0.000 A 
ATOM     16  C   LIG    1        2.926   0.316  -1.221  0.00  0.00    +0.005 A 
ATOM     17  C   LIG    1        2.406   0.752  -0.017  0.00  0.00    -0.030 A 
ATOM     18  C   LIG    1        2.953   0.308   1.173  0.00  0.00    +0.005 A 
ATOM     19  C   LIG    1        4.012  -0.580   1.158  0.00  0.00    +0.000 A 
ENDBRANCH  13  17
ENDBRANCH  11  13
ENDBRANCH   1  11
TORSDOF 3
