REMARK  Name = ZINC00088466
REMARK                            x       y       z     vdW  Elec       q    Type
REMARK                         _______ _______ _______ _____ _____    ______ ____
ROOT
ATOM      1  C   LIG    1       -4.723   2.547  -1.043  0.00  0.00    +0.068 C 
ATOM      2  C   LIG    1       -3.335   2.577  -0.458  0.00  0.00    +0.073 A 
ATOM      3  C   LIG    1       -2.844   3.535   0.450  0.00  0.00    +0.088 A 
ATOM      4  C   LIG    1       -1.519   3.186   0.737  0.00  0.00    +0.089 A 
ATOM      5  N   LIG    1       -1.238   2.070   0.019  0.00  0.00    -0.231 N 
ATOM      6  C   LIG    1       -0.756   4.031   1.663  0.00  0.00    +0.025 A 
ATOM      7  C   LIG    1        0.571   3.730   1.978  0.00  0.00    +0.012 A 
ATOM      8  C   LIG    1        1.266   4.534   2.853  0.00  0.00    +0.001 A 
ATOM      9  C   LIG    1        0.654   5.641   3.422  0.00  0.00    +0.002 A 
ATOM     10  C   LIG    1       -0.654   5.952   3.121  0.00  0.00    +0.026 A 
ATOM     11  C   LIG    1       -1.376   5.153   2.239  0.00  0.00    +0.054 A 
ATOM     12  N   LIG    1       -2.689   5.465   1.937  0.00  0.00    -0.311 N 
ATOM     13  C   LIG    1       -3.301   6.642   2.558  0.00  0.00    +0.152 C 
ATOM     14  C   LIG    1       -3.421   4.719   1.089  0.00  0.00    +0.263 A 
ATOM     15  O   LIG    1       -4.574   5.031   0.852  0.00  0.00    -0.267 OA
ATOM     16  N   LIG    1       -2.384   1.718  -0.706  0.00  0.00    -0.170 NA
ENDROOT
BRANCH   5  17
ATOM     17  C   LIG    1       -0.017   1.385   0.010  0.00  0.00    +0.066 A 
ATOM     18  C   LIG    1        0.610   1.095  -1.196  0.00  0.00    +0.028 A 
ATOM     19  C   LIG    1        1.811   0.415  -1.202  0.00  0.00    +0.002 A 
ATOM     20  C   LIG    1        2.391   0.021  -0.010  0.00  0.00    +0.000 A 
ATOM     21  C   LIG    1        1.770   0.307   1.192  0.00  0.00    +0.002 A 
ATOM     22  C   LIG    1        0.568   0.988   1.205  0.00  0.00    +0.028 A 
ENDBRANCH   5  17
TORSDOF 1
