REMARK  Name = ZINC00096890
REMARK                            x       y       z     vdW  Elec       q    Type
REMARK                         _______ _______ _______ _____ _____    ______ ____
ROOT
ATOM      1  C   LIG    1       -3.519  -1.074   0.033  0.00  0.00    +0.004 A 
ATOM      2  C   LIG    1       -3.379  -2.449   0.023  0.00  0.00    +0.024 A 
ATOM      3  C   LIG    1       -2.113  -3.019   0.007  0.00  0.00    +0.046 A 
ATOM      4  C   LIG    1       -0.988  -2.207   0.000  0.00  0.00    +0.048 A 
ATOM      5  C   LIG    1       -1.132  -0.828   0.009  0.00  0.00    +0.046 A 
ATOM      6  C   LIG    1       -2.401  -0.263   0.030  0.00  0.00    +0.024 A 
ENDROOT
BRANCH   3   7
ATOM      7  N   LIG    1       -1.972  -4.414  -0.001  0.00  0.00    -0.203 N 
ATOM      8  C   LIG    1       -0.800  -5.074  -0.022  0.00  0.00    +0.250 C 
ATOM      9  C   LIG    1       -1.083  -6.527  -0.021  0.00  0.00    +0.073 C 
ATOM     10  C   LIG    1       -2.419  -6.662  -0.008  0.00  0.00    +0.073 C 
ATOM     11  O   LIG    1        0.302  -4.565  -0.036  0.00  0.00    -0.270 OA
ATOM     12  C   LIG    1       -2.987  -5.296   0.005  0.00  0.00    +0.250 C 
ATOM     13  O   LIG    1       -4.169  -5.018   0.018  0.00  0.00    -0.270 OA
ENDBRANCH   3   7
BRANCH   5  14
ATOM     14  N   LIG    1        0.002  -0.004   0.002  0.00  0.00    -0.203 N 
ATOM     15  C   LIG    1       -0.016   1.341   0.009  0.00  0.00    +0.250 C 
ATOM     16  C   LIG    1        1.381   1.827  -0.001  0.00  0.00    +0.073 C 
ATOM     17  C   LIG    1        2.170   0.740  -0.015  0.00  0.00    +0.073 C 
ATOM     18  O   LIG    1       -1.010   2.038   0.018  0.00  0.00    -0.270 OA
ATOM     19  C   LIG    1        1.275  -0.438  -0.013  0.00  0.00    +0.250 C 
ATOM     20  O   LIG    1        1.630  -1.599  -0.022  0.00  0.00    -0.270 OA
ENDBRANCH   5  14
TORSDOF 2
