REMARK  Name = ZINC00087281
REMARK                            x       y       z     vdW  Elec       q    Type
REMARK                         _______ _______ _______ _____ _____    ______ ____
ROOT
ATOM      1  C   LIG    1       -0.695  -2.642  -2.403  0.00  0.00    +0.023 A 
ATOM      2  C   LIG    1       -0.690  -1.874  -3.565  0.00  0.00    +0.030 A 
ATOM      3  C   LIG    1       -1.327  -2.303  -4.691  0.00  0.00    +0.051 A 
ATOM      4 CL   LIG    1       -1.308  -1.330  -6.128  0.00  0.00    -0.083 Cl
ATOM      5  C   LIG    1       -2.000  -3.537  -4.683  0.00  0.00    +0.022 A 
ATOM      6  C   LIG    1       -2.668  -4.014  -5.826  0.00  0.00    +0.013 A 
ATOM      7  C   LIG    1       -3.300  -5.223  -5.745  0.00  0.00    +0.020 A 
ATOM      8  C   LIG    1       -3.270  -5.944  -4.554  0.00  0.00    +0.111 A 
ATOM      9  N   LIG    1       -2.646  -5.497  -3.492  0.00  0.00    -0.251 NA
ATOM     10  C   LIG    1       -2.009  -4.322  -3.504  0.00  0.00    +0.114 A 
ATOM     11  C   LIG    1       -1.334  -3.848  -2.360  0.00  0.00    +0.148 A 
ENDROOT
BRANCH  11  12
ATOM     12  O   LIG    1       -1.324  -4.585  -1.219  0.00  0.00    -0.504 OA
ATOM     13  H   LIG    1       -2.061  -4.397  -0.622  0.00  0.00    +0.292 HD
ENDBRANCH  11  12
BRANCH   1  14
ATOM     14  C   LIG    1        0.020  -2.136  -1.177  0.00  0.00    +0.144 C 
BRANCH  14  17
ATOM     15  C   LIG    1        0.161   1.526  -0.072  0.00  0.00    +0.109 C 
ATOM     16  C   LIG    1        0.124   0.020  -0.046  0.00  0.00    +0.211 C 
ATOM     17  N   LIG    1        0.056  -0.672  -1.201  0.00  0.00    -0.304 N 
ATOM     18  H   LIG    1        0.031  -0.200  -2.048  0.00  0.00    +0.150 HD
ATOM     19  O   LIG    1        0.156  -0.570   1.013  0.00  0.00    -0.276 OA
ENDBRANCH  14  17
BRANCH  14  20
ATOM     20  C   LIG    1        1.428  -2.673  -1.159  0.00  0.00    +0.015 A 
ATOM     21  C   LIG    1        1.933  -3.723  -0.466  0.00  0.00    +0.013 A 
ATOM     22  C   LIG    1        3.271  -4.038  -0.607  0.00  0.00    +0.008 A 
ATOM     23  C   LIG    1        4.039  -3.288  -1.435  0.00  0.00    +0.045 A 
ATOM     24  S   LIG    1        2.862  -2.097  -2.053  0.00  0.00    -0.099 S 
ENDBRANCH  14  20
ENDBRANCH   1  14
TORSDOF 4
