REMARK  Name = ZINC00236623
REMARK                            x       y       z     vdW  Elec       q    Type
REMARK                         _______ _______ _______ _____ _____    ______ ____
ROOT
ATOM      1  C   LIG    1       -0.661  -2.303  -0.004  0.00  0.00    +0.002 A 
ATOM      2  C   LIG    1        0.670  -2.693  -0.019  0.00  0.00    +0.002 A 
ATOM      3  C   LIG    1        1.675  -1.749  -0.023  0.00  0.00    +0.028 A 
ATOM      4  C   LIG    1        1.353  -0.398  -0.013  0.00  0.00    +0.069 A 
ATOM      5  C   LIG    1        0.002  -0.004   0.002  0.00  0.00    +0.089 A 
ATOM      6  N   LIG    1       -0.016   1.355   0.009  0.00  0.00    -0.234 NA
ATOM      7  C   LIG    1        1.199   1.809   0.000  0.00  0.00    +0.094 A 
ATOM      8  C   LIG    1        1.636   3.256   0.007  0.00  0.00    -0.007 C 
ATOM      9  N   LIG    1        3.066   3.310   0.386  0.00  0.00    +0.385 N 
ATOM     10  H   LIG    1        3.164   3.051   1.374  0.00  0.00    -0.085 HD
ATOM     11  H   LIG    1        3.417   4.264   0.245  0.00  0.00    -0.085 HD
ATOM     12  C   LIG    1        3.854   2.374  -0.442  0.00  0.00    -0.060 C 
ATOM     13  C   LIG    1        3.539   0.930  -0.034  0.00  0.00    +0.104 C 
ATOM     14  N   LIG    1        2.082   0.765  -0.015  0.00  0.00    -0.331 N 
ATOM     15  C   LIG    1       -0.999  -0.979   0.006  0.00  0.00    +0.030 A 
ENDROOT
TORSDOF 0
