REMARK  Name = ZINC00080555
REMARK                            x       y       z     vdW  Elec       q    Type
REMARK                         _______ _______ _______ _____ _____    ______ ____
ROOT
ATOM      1  C   LIG    1       -0.017   1.363   0.009  0.00  0.00    +0.001 A 
ATOM      2  C   LIG    1        1.170   2.083   0.002  0.00  0.00    +0.002 A 
ATOM      3  C   LIG    1        2.385   1.434  -0.013  0.00  0.00    +0.026 A 
ATOM      4  C   LIG    1        2.426   0.043  -0.021  0.00  0.00    +0.047 A 
ATOM      5  C   LIG    1        1.221  -0.680  -0.013  0.00  0.00    +0.007 A 
ATOM      6  C   LIG    1        1.602  -2.102  -0.025  0.00  0.00    +0.007 A 
ATOM      7  C   LIG    1        2.958  -2.142  -0.039  0.00  0.00    +0.092 A 
ATOM      8  N   LIG    1        3.456  -0.873  -0.037  0.00  0.00    -0.360 N 
ATOM      9  H   LIG    1        4.399  -0.647  -0.045  0.00  0.00    +0.165 HD
ATOM     10  C   LIG    1        0.002  -0.004   0.002  0.00  0.00    +0.010 A 
ENDROOT
BRANCH   6  11
ATOM     11  C   LIG    1        0.683  -3.263  -0.022  0.00  0.00    -0.013 A 
ATOM     12  C   LIG    1       -0.362  -3.351   0.904  0.00  0.00    +0.028 A 
ATOM     13  C   LIG    1       -1.195  -4.449   0.871  0.00  0.00    +0.111 A 
ATOM     14  N   LIG    1       -1.015  -5.409  -0.018  0.00  0.00    -0.263 NA
ATOM     15  C   LIG    1       -0.042  -5.365  -0.908  0.00  0.00    +0.111 A 
ATOM     16  C   LIG    1        0.833  -4.301  -0.949  0.00  0.00    +0.028 A 
ENDBRANCH   6  11
TORSDOF 1
