REMARK  Name = ZINC00111949
REMARK                            x       y       z     vdW  Elec       q    Type
REMARK                         _______ _______ _______ _____ _____    ______ ____
ROOT
ATOM      1  C   LIG    1        0.056  -2.148   5.299  0.00  0.00    +0.173 C 
ATOM      2  O   LIG    1        0.073  -3.354   5.431  0.00  0.00    -0.291 OA
ENDROOT
BRANCH   1   3
ATOM      3  C   LIG    1        0.050  -1.280   6.483  0.00  0.00    +0.022 A 
ATOM      4  C   LIG    1        0.024   0.112   6.332  0.00  0.00    +0.015 A 
ATOM      5  C   LIG    1        0.018   0.924   7.444  0.00  0.00    +0.050 A 
ATOM      6  C   LIG    1        0.037   0.367   8.716  0.00  0.00    +0.158 A 
ATOM      7  C   LIG    1        0.062  -1.019   8.875  0.00  0.00    +0.159 A 
ATOM      8  C   LIG    1        0.063  -1.841   7.766  0.00  0.00    +0.060 A 
BRANCH   6   9
ATOM      9  O   LIG    1        0.032   1.173   9.809  0.00  0.00    -0.503 OA
ATOM     10  H   LIG    1       -0.853   1.391  10.132  0.00  0.00    +0.292 HD
ENDBRANCH   6   9
BRANCH   7  11
ATOM     11  O   LIG    1        0.082  -1.560  10.122  0.00  0.00    -0.503 OA
ATOM     12  H   LIG    1       -0.796  -1.732  10.490  0.00  0.00    +0.292 HD
ENDBRANCH   7  11
ENDBRANCH   1   3
BRANCH   1  13
ATOM     13  C   LIG    1        0.041  -1.542   3.919  0.00  0.00    +0.157 C 
BRANCH  13  14
ATOM     14  S   LIG    1        0.053  -2.864   2.678  0.00  0.00    -0.078 S 
BRANCH  14  21
ATOM     15  C   LIG    1       -0.018   1.503   0.010  0.00  0.00    +0.066 C 
ATOM     16  C   LIG    1        0.002  -0.004   0.002  0.00  0.00    +0.043 A 
ATOM     17  C   LIG    1        0.006  -0.699  -1.198  0.00  0.00    +0.046 A 
ATOM     18  C   LIG    1        0.025  -2.084  -1.161  0.00  0.00    +0.043 A 
ATOM     19  C   LIG    1        0.029  -2.881  -2.440  0.00  0.00    +0.066 C 
ATOM     20  N   LIG    1        0.039  -2.699   0.010  0.00  0.00    -0.227 NA
ATOM     21  C   LIG    1        0.035  -2.005   1.140  0.00  0.00    +0.189 A 
ATOM     22  N   LIG    1        0.022  -0.679   1.139  0.00  0.00    -0.227 NA
ENDBRANCH  14  21
ENDBRANCH  13  14
ENDBRANCH   1  13
TORSDOF 6
