REMARK  Name = ZINC00334446
REMARK                            x       y       z     vdW  Elec       q    Type
REMARK                         _______ _______ _______ _____ _____    ______ ____
ROOT
ATOM      1  N   LIG    1        3.623  -0.652  -0.037  0.00  0.00    -0.299 N 
ATOM      2  C   LIG    1        4.666  -0.421  -0.883  0.00  0.00    +0.205 A 
ATOM      3  N   LIG    1        5.644  -1.237  -0.619  0.00  0.00    -0.235 NA
ATOM      4  C   LIG    1        5.298  -2.047   0.414  0.00  0.00    +0.089 A 
ATOM      5  C   LIG    1        5.954  -3.080   1.089  0.00  0.00    +0.030 A 
ATOM      6  C   LIG    1        5.327  -3.720   2.134  0.00  0.00    +0.002 A 
ATOM      7  C   LIG    1        4.043  -3.357   2.515  0.00  0.00    +0.002 A 
ATOM      8  C   LIG    1        3.380  -2.342   1.857  0.00  0.00    +0.028 A 
ATOM      9  C   LIG    1        3.999  -1.681   0.806  0.00  0.00    +0.073 A 
ENDROOT
BRANCH   1  13
ATOM     10  C   LIG    1       -0.017   1.379   0.010  0.00  0.00    +0.000 A 
ATOM     11  C   LIG    1        1.170   2.089   0.002  0.00  0.00    +0.002 A 
ATOM     12  C   LIG    1        2.377   1.419  -0.013  0.00  0.00    +0.026 A 
ATOM     13  C   LIG    1        2.400   0.031  -0.021  0.00  0.00    +0.048 A 
ATOM     14  C   LIG    1        1.207  -0.680  -0.013  0.00  0.00    +0.026 A 
ATOM     15  C   LIG    1        0.002  -0.004   0.002  0.00  0.00    +0.002 A 
ENDBRANCH   1  13
TORSDOF 1
