REMARK  Name = ZINC00100150
REMARK                            x       y       z     vdW  Elec       q    Type
REMARK                         _______ _______ _______ _____ _____    ______ ____
ROOT
ATOM      1  C   LIG    1       -0.718   1.572   1.248  0.00  0.00    -0.047 A 
ATOM      2  C   LIG    1       -0.359   2.779   1.818  0.00  0.00    +0.005 A 
ATOM      3  C   LIG    1       -1.007   3.230   2.951  0.00  0.00    +0.024 A 
ATOM      4  C   LIG    1       -2.012   2.463   3.525  0.00  0.00    +0.044 A 
ATOM      5  C   LIG    1       -2.367   1.249   2.954  0.00  0.00    +0.024 A 
ATOM      6  C   LIG    1       -1.720   0.807   1.817  0.00  0.00    +0.005 A 
ENDROOT
BRANCH   4   7
ATOM      7  N   LIG    1       -2.667   2.915   4.679  0.00  0.00    -0.203 N 
ATOM      8  C   LIG    1       -3.656   2.261   5.315  0.00  0.00    +0.250 C 
ATOM      9  C   LIG    1       -4.073   3.067   6.484  0.00  0.00    +0.073 C 
ATOM     10  C   LIG    1       -3.312   4.175   6.483  0.00  0.00    +0.073 C 
ATOM     11  O   LIG    1       -4.125   1.191   4.987  0.00  0.00    -0.270 OA
ATOM     12  C   LIG    1       -2.408   4.071   5.316  0.00  0.00    +0.250 C 
ATOM     13  O   LIG    1       -1.572   4.889   4.990  0.00  0.00    -0.270 OA
ENDBRANCH   4   7
BRANCH   1  14
ATOM     14  C   LIG    1       -0.013   1.086   0.008  0.00  0.00    +0.035 C 
BRANCH  14  16
ATOM     15  C   LIG    1       -0.037   1.099  -2.490  0.00  0.00    +0.004 C 
ATOM     16  C   LIG    1       -0.753   1.593  -1.232  0.00  0.00    +0.001 C 
ENDBRANCH  14  16
ENDBRANCH   1  14
TORSDOF 3
