REMARK  Name = ZINC00327248
REMARK                            x       y       z     vdW  Elec       q    Type
REMARK                         _______ _______ _______ _____ _____    ______ ____
ROOT
ATOM      1  C   LIG    1       -6.047   2.947  -0.721  0.00  0.00    -0.004 C 
ATOM      2  C   LIG    1       -5.902   1.428  -0.839  0.00  0.00    +0.023 C 
ATOM      3  C   LIG    1       -4.939   0.926   0.243  0.00  0.00    +0.108 C 
ATOM      4  N   LIG    1       -3.674   1.664   0.130  0.00  0.00    -0.298 N 
ATOM      5  C   LIG    1       -2.503   1.006   0.019  0.00  0.00    +0.247 C 
ATOM      6  O   LIG    1       -2.494  -0.204  -0.095  0.00  0.00    -0.270 OA
ATOM      7  C   LIG    1       -3.709   3.133   0.146  0.00  0.00    +0.108 C 
ATOM      8  C   LIG    1       -4.686   3.610  -0.940  0.00  0.00    +0.023 C 
ENDROOT
BRANCH   5   9
ATOM      9  C   LIG    1       -1.229   1.757   0.036  0.00  0.00    +0.038 A 
ATOM     10  C   LIG    1       -0.201   1.412  -0.842  0.00  0.00    +0.013 A 
ATOM     11  C   LIG    1        0.983   2.120  -0.826  0.00  0.00    +0.002 A 
ATOM     12  C   LIG    1        1.155   3.166   0.063  0.00  0.00    +0.020 A 
ATOM     13  C   LIG    1        0.141   3.511   0.941  0.00  0.00    +0.042 A 
ATOM     14 CL   LIG    1        0.366   4.826   2.051  0.00  0.00    -0.084 Cl
ATOM     15  C   LIG    1       -1.049   2.810   0.934  0.00  0.00    +0.033 A 
ENDBRANCH   5   9
BRANCH   1  16
ATOM     16  C   LIG    1       -7.034   3.448  -1.777  0.00  0.00    +0.038 C 
BRANCH  16  20
ATOM     17  C   LIG    1       -7.709   7.630  -1.227  0.00  0.00    +0.000 A 
ATOM     18  C   LIG    1       -6.687   7.197  -2.052  0.00  0.00    +0.000 A 
ATOM     19  C   LIG    1       -6.469   5.844  -2.230  0.00  0.00    +0.003 A 
ATOM     20  C   LIG    1       -7.272   4.923  -1.583  0.00  0.00    -0.047 A 
ATOM     21  C   LIG    1       -8.297   5.356  -0.762  0.00  0.00    +0.003 A 
ATOM     22  C   LIG    1       -8.512   6.709  -0.581  0.00  0.00    +0.000 A 
ENDBRANCH  16  20
ENDBRANCH   1  16
TORSDOF 3
