REMARK  Name = ZINC00085644
REMARK                            x       y       z     vdW  Elec       q    Type
REMARK                         _______ _______ _______ _____ _____    ______ ____
ROOT
ATOM      1  N   LIG    1       -1.372  -0.511   0.012  0.00  0.00    -0.314 N 
ATOM      2  C   LIG    1       -2.098  -0.783   1.129  0.00  0.00    +0.068 A 
ATOM      3  C   LIG    1       -1.828  -0.690   2.496  0.00  0.00    +0.028 A 
ATOM      4  C   LIG    1       -2.793  -1.049   3.410  0.00  0.00    +0.002 A 
ATOM      5  C   LIG    1       -4.032  -1.504   2.984  0.00  0.00    +0.002 A 
ATOM      6  C   LIG    1       -4.314  -1.603   1.637  0.00  0.00    +0.028 A 
ATOM      7  C   LIG    1       -3.355  -1.244   0.702  0.00  0.00    +0.069 A 
ATOM      8  N   LIG    1       -3.322  -1.227  -0.682  0.00  0.00    -0.306 N 
ATOM      9  C   LIG    1       -2.091  -0.766  -1.052  0.00  0.00    +0.175 A 
ENDROOT
BRANCH   9  10
ATOM     10  N   LIG    1       -1.666  -0.598  -2.354  0.00  0.00    -0.330 N 
ATOM     11  H   LIG    1       -2.261  -0.810  -3.089  0.00  0.00    +0.145 HD
ATOM     12  H   LIG    1       -0.772  -0.267  -2.533  0.00  0.00    +0.145 HD
ENDBRANCH   9  10
BRANCH   1  14
ATOM     13  C   LIG    1       -0.019   1.526   0.010  0.00  0.00    +0.027 C 
ATOM     14  C   LIG    1        0.002  -0.004   0.002  0.00  0.00    +0.122 C 
ENDBRANCH   1  14
BRANCH   8  15
ATOM     15  C   LIG    1       -4.408  -1.624  -1.582  0.00  0.00    +0.204 C 
BRANCH  15  16
ATOM     16  C   LIG    1       -5.271  -0.427  -1.886  0.00  0.00    +0.183 C 
ATOM     17  O   LIG    1       -5.006   0.652  -1.398  0.00  0.00    -0.290 OA
BRANCH  16  18
ATOM     18  C   LIG    1       -6.436  -0.566  -2.773  0.00  0.00    +0.019 A 
ATOM     19  C   LIG    1       -6.748  -1.810  -3.333  0.00  0.00    +0.013 A 
ATOM     20  C   LIG    1       -7.842  -1.933  -4.163  0.00  0.00    +0.020 A 
ATOM     21  C   LIG    1       -8.630  -0.829  -4.444  0.00  0.00    +0.041 A 
ATOM     22 CL   LIG    1      -10.005  -0.993  -5.492  0.00  0.00    -0.084 Cl
ATOM     23  C   LIG    1       -8.327   0.406  -3.893  0.00  0.00    +0.020 A 
ATOM     24  C   LIG    1       -7.240   0.543  -3.057  0.00  0.00    +0.013 A 
ENDBRANCH  16  18
ENDBRANCH  15  16
ENDBRANCH   8  15
TORSDOF 5
