REMARK  Name = ZINC00289771
REMARK                            x       y       z     vdW  Elec       q    Type
REMARK                         _______ _______ _______ _____ _____    ______ ____
ROOT
ATOM      1  C   LIG    1        1.153   4.088   1.433  0.00  0.00    +0.039 C 
ATOM      2  C   LIG    1       -0.029   4.399   2.077  0.00  0.00    +0.090 C 
ATOM      3  N   LIG    1       -0.054   4.848   3.364  0.00  0.00    -0.289 NA
ATOM      4  H   LIG    1       -0.927   5.065   3.801  0.00  0.00    +0.125 HD
ATOM      5  C   LIG    1        1.163   4.968   3.967  0.00  0.00    +0.192 C 
ATOM      6  N   LIG    1        2.317   4.680   3.386  0.00  0.00    -0.274 NA
ATOM      7  H   LIG    1        2.763   3.965   3.960  0.00  0.00    +0.126 HD
ATOM      8  C   LIG    1        2.352   4.237   2.133  0.00  0.00    +0.126 C 
ENDROOT
BRANCH   5   9
ATOM      9  N   LIG    1        1.161   5.423   5.274  0.00  0.00    -0.303 NA
ATOM     10  H   LIG    1        1.998   5.527   5.753  0.00  0.00    +0.121 HD
ATOM     11  H   LIG    1        0.322   5.637   5.712  0.00  0.00    +0.121 HD
ENDBRANCH   5   9
BRANCH   8  12
ATOM     12  N   LIG    1        3.561   3.931   1.529  0.00  0.00    -0.315 NA
ATOM     13  H   LIG    1        4.390   4.037   2.021  0.00  0.00    +0.120 HD
ATOM     14  H   LIG    1        3.578   3.612   0.613  0.00  0.00    +0.120 HD
ENDBRANCH   8  12
BRANCH   1  15
ATOM     15  C   LIG    1        1.147   3.593   0.010  0.00  0.00    +0.042 C 
BRANCH  15  19
ATOM     16  C   LIG    1        1.213  -0.680  -0.013  0.00  0.00    +0.121 A 
ATOM     17  C   LIG    1        0.002  -0.004   0.002  0.00  0.00    +0.046 A 
ATOM     18  C   LIG    1       -0.017   1.377   0.010  0.00  0.00    +0.007 A 
ATOM     19  C   LIG    1        1.171   2.086   0.002  0.00  0.00    -0.047 A 
ATOM     20  C   LIG    1        2.379   1.415  -0.013  0.00  0.00    +0.007 A 
ATOM     21  C   LIG    1        2.403   0.033  -0.021  0.00  0.00    +0.046 A 
BRANCH  16  22
ATOM     22  O   LIG    1        1.234  -2.039  -0.021  0.00  0.00    -0.492 OA
BRANCH  22  24
ATOM     23  C   LIG    1        2.341  -4.188  -0.044  0.00  0.00    +0.048 C 
ATOM     24  C   LIG    1        2.518  -2.668  -0.037  0.00  0.00    +0.225 C 
ENDBRANCH  22  24
ENDBRANCH  16  22
ENDBRANCH  15  19
ENDBRANCH   1  15
TORSDOF 6
