REMARK  Name = ZINC00163634
REMARK                            x       y       z     vdW  Elec       q    Type
REMARK                         _______ _______ _______ _____ _____    ______ ____
ROOT
ATOM      1  C   LIG    1        1.137   3.598   0.010  0.00  0.00    +0.044 C 
ATOM      2  C   LIG    1        1.169   2.092   0.002  0.00  0.00    -0.048 A 
ATOM      3  C   LIG    1       -0.017   1.377   0.010  0.00  0.00    +0.007 A 
ATOM      4  C   LIG    1        0.002  -0.004   0.002  0.00  0.00    +0.049 A 
ATOM      5  C   LIG    1        1.213  -0.679  -0.013  0.00  0.00    +0.157 A 
ATOM      6  C   LIG    1        2.406   0.042  -0.021  0.00  0.00    +0.088 A 
ATOM      7  N   LIG    1        3.438  -0.896  -0.035  0.00  0.00    -0.288 N 
ATOM      8  C   LIG    1        2.874  -2.119  -0.035  0.00  0.00    +0.419 A 
ATOM      9  O   LIG    1        3.481  -3.173  -0.046  0.00  0.00    -0.223 OA
ATOM     10  H   LIG    1        4.389  -0.703  -0.042  0.00  0.00    +0.172 HD
ATOM     11  O   LIG    1        1.537  -1.995  -0.023  0.00  0.00    -0.408 OA
ATOM     12  C   LIG    1        2.380   1.428  -0.014  0.00  0.00    +0.033 A 
ENDROOT
TORSDOF 0
