REMARK  Name = ZINC00347781
REMARK                            x       y       z     vdW  Elec       q    Type
REMARK                         _______ _______ _______ _____ _____    ______ ____
ROOT
ATOM      1  C   LIG    1        1.741  -1.853  -0.016  0.00  0.00    +0.064 C 
ATOM      2  C   LIG    1        1.294  -0.414  -0.009  0.00  0.00    +0.020 A 
ATOM      3  C   LIG    1        2.124   0.655  -0.011  0.00  0.00    -0.021 A 
ATOM      4  C   LIG    1        1.290   1.857  -0.000  0.00  0.00    +0.003 A 
ATOM      5  C   LIG    1        1.473   3.242   0.002  0.00  0.00    +0.010 A 
ATOM      6  C   LIG    1        0.380   4.067   0.015  0.00  0.00    +0.001 A 
ATOM      7  C   LIG    1       -0.924   3.571   0.026  0.00  0.00    +0.006 A 
ATOM      8  C   LIG    1       -1.129   2.219   0.030  0.00  0.00    -0.023 A 
ATOM      9  C   LIG    1       -2.464   1.525   0.054  0.00  0.00    +0.039 C 
ATOM     10  C   LIG    1       -2.345   0.162  -0.633  0.00  0.00    +0.026 C 
ATOM     11  C   LIG    1       -1.275  -0.730   0.004  0.00  0.00    +0.122 C 
ATOM     12  C   LIG    1       -0.017   1.381   0.010  0.00  0.00    +0.053 A 
ATOM     13  N   LIG    1        0.002  -0.004   0.002  0.00  0.00    -0.344 N 
ENDROOT
BRANCH   3  14
ATOM     14  C   LIG    1        3.630   0.614  -0.023  0.00  0.00    +0.018 C 
BRANCH  14  15
ATOM     15  C   LIG    1        4.129   0.606  -1.469  0.00  0.00    -0.082 C 
BRANCH  15  16
ATOM     16  N   LIG    1        5.601   0.544  -1.469  0.00  0.00    +0.378 N 
ATOM     17  H   LIG    1        5.902  -0.327  -1.016  0.00  0.00    -0.090 HD
ATOM     18  H   LIG    1        5.984   1.335  -0.955  0.00  0.00    -0.090 HD
ATOM     19  H   LIG    1        5.951   0.560  -2.425  0.00  0.00    -0.090 HD
ENDBRANCH  15  16
ENDBRANCH  14  15
ENDBRANCH   3  14
TORSDOF 3
