REMARK  Name = ZINC00090754
REMARK                            x       y       z     vdW  Elec       q    Type
REMARK                         _______ _______ _______ _____ _____    ______ ____
ROOT
ATOM      1  C   LIG    1        0.038  -2.791   0.090  0.00  0.00    +0.163 A 
ATOM      2  N   LIG    1       -0.154  -4.094   0.192  0.00  0.00    -0.225 NA
ATOM      3  C   LIG    1       -1.374  -4.602   0.292  0.00  0.00    +0.084 A 
ATOM      4  C   LIG    1       -2.453  -3.764   0.290  0.00  0.00    +0.077 A 
ATOM      5  S   LIG    1       -1.640  -2.178   0.143  0.00  0.00    -0.060 S 
ENDROOT
BRANCH   3   6
ATOM      6  C   LIG    1       -1.566  -6.069   0.406  0.00  0.00    +0.043 A 
ATOM      7  C   LIG    1       -2.850  -6.598   0.518  0.00  0.00    +0.017 A 
ATOM      8  C   LIG    1       -3.026  -7.963   0.619  0.00  0.00    +0.046 A 
ATOM      9  C   LIG    1       -1.926  -8.811   0.620  0.00  0.00    +0.120 A 
ATOM     10  C   LIG    1       -0.645  -8.290   0.515  0.00  0.00    +0.091 A 
ATOM     11  C   LIG    1       -0.459  -6.923   0.408  0.00  0.00    +0.129 A 
BRANCH   9  12
ATOM     12  O   LIG    1       -2.106 -10.154   0.725  0.00  0.00    -0.507 OA
ATOM     13  H   LIG    1       -2.111 -10.480   1.635  0.00  0.00    +0.292 HD
ENDBRANCH   9  12
BRANCH  11  14
ATOM     14  O   LIG    1        0.796  -6.412   0.305  0.00  0.00    -0.506 OA
ATOM     15  H   LIG    1        1.206  -6.202   1.155  0.00  0.00    +0.292 HD
ENDBRANCH  11  14
ENDBRANCH   3   6
BRANCH   1  16
ATOM     16  N   LIG    1        1.226  -2.086  -0.021  0.00  0.00    -0.294 N 
ATOM     17  H   LIG    1        2.075  -2.549   0.057  0.00  0.00    +0.154 HD
BRANCH  16  22
ATOM     18  C   LIG    1        2.177   1.468   0.070  0.00  0.00    +0.003 A 
ATOM     19  C   LIG    1        1.169   2.036  -0.683  0.00  0.00    +0.015 A 
ATOM     20  C   LIG    1        0.165   1.232  -1.226  0.00  0.00    +0.061 A 
ATOM     21  C   LIG    1        0.185  -0.145  -1.005  0.00  0.00    +0.038 A 
ATOM     22  C   LIG    1        1.202  -0.706  -0.247  0.00  0.00    +0.034 A 
ATOM     23  C   LIG    1        2.197   0.104   0.289  0.00  0.00    +0.023 A 
BRANCH  20  24
ATOM     24  C   LIG    1       -0.914   1.838  -2.032  0.00  0.00    +0.337 C 
ATOM     25  O   LIG    1       -1.787   1.136  -2.504  0.00  0.00    -0.245 OA
BRANCH  24  26
ATOM     26  O   LIG    1       -0.931   3.168  -2.245  0.00  0.00    -0.477 OA
ATOM     27  H   LIG    1       -0.258   3.709  -1.881  0.00  0.00    +0.295 HD
ENDBRANCH  24  26
ENDBRANCH  20  24
ENDBRANCH  16  22
ENDBRANCH   1  16
TORSDOF 7
