REMARK  Name = ZINC00077354
REMARK                            x       y       z     vdW  Elec       q    Type
REMARK                         _______ _______ _______ _____ _____    ______ ____
ROOT
ATOM      1  C   LIG    1        1.202  -2.203  -0.021  0.00  0.00    +0.044 C 
ATOM      2  C   LIG    1        1.206  -0.696  -0.013  0.00  0.00    -0.050 A 
ATOM      3  C   LIG    1        0.002  -0.004   0.002  0.00  0.00    +0.005 A 
ATOM      4  C   LIG    1       -0.017   1.373   0.010  0.00  0.00    +0.026 A 
ATOM      5  C   LIG    1        1.181   2.081   0.002  0.00  0.00    +0.047 A 
ATOM      6  C   LIG    1        2.398   1.375  -0.013  0.00  0.00    +0.003 A 
ATOM      7  C   LIG    1        3.455   2.390  -0.017  0.00  0.00    -0.021 A 
ATOM      8  C   LIG    1        2.848   3.587  -0.005  0.00  0.00    +0.087 A 
ATOM      9  N   LIG    1        1.490   3.422   0.007  0.00  0.00    -0.360 N 
ATOM     10  H   LIG    1        0.841   4.143   0.017  0.00  0.00    +0.165 HD
ATOM     11  C   LIG    1        2.394  -0.021  -0.021  0.00  0.00    +0.013 A 
ENDROOT
BRANCH   7  12
ATOM     12  C   LIG    1        4.940   2.137  -0.033  0.00  0.00    +0.056 C 
BRANCH  12  13
ATOM     13  C   LIG    1        5.409   1.936  -1.475  0.00  0.00    +0.109 C 
BRANCH  13  14
ATOM     14  N   LIG    1        6.853   1.691  -1.490  0.00  0.00    -0.315 N 
ATOM     15  H   LIG    1        7.351   1.677  -0.658  0.00  0.00    +0.149 HD
ATOM     16  C   LIG    1        7.489   1.484  -2.660  0.00  0.00    +0.210 C 
ATOM     17  C   LIG    1        8.975   1.232  -2.675  0.00  0.00    +0.109 C 
ATOM     18  O   LIG    1        6.866   1.502  -3.700  0.00  0.00    -0.276 OA
ENDBRANCH  13  14
ENDBRANCH  12  13
ENDBRANCH   7  12
TORSDOF 3
