REMARK  Name = ZINC00083028
REMARK                            x       y       z     vdW  Elec       q    Type
REMARK                         _______ _______ _______ _____ _____    ______ ____
ROOT
ATOM      1  C   LIG    1       -0.017   1.387   0.010  0.00  0.00    +0.040 A 
ATOM      2  C   LIG    1        1.158   2.105   0.002  0.00  0.00    +0.029 A 
ATOM      3  C   LIG    1        2.379   1.435  -0.013  0.00  0.00    +0.047 A 
ATOM      4  C   LIG    1        2.396   0.026  -0.021  0.00  0.00    +0.003 A 
ATOM      5  C   LIG    1        3.754  -0.370  -0.036  0.00  0.00    +0.043 A 
ATOM      6  CA  LIG    1        4.516   0.758  -0.037  0.00  0.00    +0.125 A 
ATOM      7  C   LIG    1        1.188  -0.683  -0.013  0.00  0.00    +0.048 A 
ATOM      8  N   LIG    1        3.685   1.864  -0.023  0.00  0.00    -0.349 N 
ATOM      9  H   LIG    1        3.977   2.789  -0.021  0.00  0.00    +0.166 HD
ATOM     10  C   LIG    1        0.002  -0.004   0.002  0.00  0.00    +0.124 A 
ATOM     11  F   LIG    1       -1.162  -0.690   0.009  0.00  0.00    -0.205 F 
ENDROOT
BRANCH   6  12
ATOM     12  C   LIG    1        5.981   0.795  -0.051  0.00  0.00    +0.353 C 
ATOM     13  O   LIG    1        6.566   1.870  -0.051  0.00  0.00    -0.243 OA
BRANCH  12  14
ATOM     14  OXT LIG    1        6.620  -0.249  -0.064  0.00  0.00    -0.476 OA
ATOM     15  HXT LIG    1        6.172  -1.073  -0.064  0.00  0.00    +0.295 HD
ENDBRANCH  12  14
ENDBRANCH   6  12
TORSDOF 2
