REMARK  Name = ZINC00096687
REMARK                            x       y       z     vdW  Elec       q    Type
REMARK                         _______ _______ _______ _____ _____    ______ ____
ROOT
ATOM      1  C   LIG    1        2.380   1.416  -0.013  0.00  0.00    +0.002 A 
ATOM      2  C   LIG    1        1.171   2.087   0.002  0.00  0.00    +0.002 A 
ATOM      3  C   LIG    1       -0.017   1.378   0.010  0.00  0.00    +0.022 A 
ATOM      4  C   LIG    1        0.002  -0.004   0.002  0.00  0.00    +0.063 A 
ATOM      5 CL   LIG    1       -1.489  -0.894   0.011  0.00  0.00    -0.082 Cl
ATOM      6  C   LIG    1        1.215  -0.680  -0.013  0.00  0.00    +0.063 A 
ATOM      7  C   LIG    1        2.405   0.035  -0.021  0.00  0.00    +0.025 A 
ENDROOT
BRANCH   6   8
ATOM      8  N   LIG    1        1.238  -2.082  -0.021  0.00  0.00    -0.202 N 
ATOM      9  C   LIG    1        1.235  -2.852  -1.125  0.00  0.00    +0.250 C 
ATOM     10  C   LIG    1        1.268  -4.270  -0.706  0.00  0.00    +0.073 C 
ATOM     11  C   LIG    1        1.280  -4.278   0.637  0.00  0.00    +0.073 C 
ATOM     12  O   LIG    1        1.211  -2.450  -2.270  0.00  0.00    -0.270 OA
ATOM     13  C   LIG    1        1.261  -2.864   1.073  0.00  0.00    +0.250 C 
ATOM     14  O   LIG    1        1.266  -2.475   2.223  0.00  0.00    -0.270 OA
ENDBRANCH   6   8
TORSDOF 1
