REMARK  Name = ZINC00156972
REMARK                            x       y       z     vdW  Elec       q    Type
REMARK                         _______ _______ _______ _____ _____    ______ ____
ROOT
ATOM      1  C   LIG    1       -0.017   1.372   0.010  0.00  0.00    +0.001 A 
ATOM      2  C   LIG    1        1.161   2.099   0.002  0.00  0.00    +0.002 A 
ATOM      3  C   LIG    1        2.377   1.432  -0.013  0.00  0.00    +0.029 A 
ATOM      4  C   LIG    1        2.399   0.066  -0.020  0.00  0.00    +0.121 A 
ATOM      5  C   LIG    1        1.225  -0.698  -0.013  0.00  0.00    +0.065 A 
ATOM      6  C   LIG    1        1.491  -2.142  -0.024  0.00  0.00    +0.268 C 
ATOM      7  N   LIG    1        2.769  -2.551  -0.039  0.00  0.00    -0.161 N 
ATOM      8  O   LIG    1        0.579  -2.946  -0.020  0.00  0.00    -0.268 OA
ATOM      9  S   LIG    1        3.686  -1.151  -0.040  0.00  0.00    +0.078 S 
ATOM     10  O   LIG    1        4.343  -1.066  -1.297  0.00  0.00    -0.150 OA
ATOM     11  O   LIG    1        4.367  -1.080   1.206  0.00  0.00    -0.150 OA
ATOM     12  C   LIG    1        0.002  -0.004   0.002  0.00  0.00    +0.015 A 
ENDROOT
BRANCH   7  13
ATOM     13  C   LIG    1        3.258  -3.932  -0.051  0.00  0.00    +0.197 C 
BRANCH  13  14
ATOM     14  C   LIG    1        3.296  -4.439  -1.469  0.00  0.00    +0.099 A 
ATOM     15  N   LIG    1        4.282  -4.370  -2.315  0.00  0.00    -0.242 NA
ATOM     16  C   LIG    1        4.192  -4.866  -3.566  0.00  0.00    +0.079 A 
ATOM     17  C   LIG    1        5.146  -4.880  -4.605  0.00  0.00    +0.029 A 
ATOM     18  C   LIG    1        4.848  -5.439  -5.810  0.00  0.00    +0.002 A 
ATOM     19  C   LIG    1        3.608  -6.009  -6.061  0.00  0.00    +0.001 A 
ATOM     20  C   LIG    1        2.647  -6.015  -5.067  0.00  0.00    +0.017 A 
ATOM     21  C   LIG    1        2.938  -5.454  -3.847  0.00  0.00    +0.039 A 
ATOM     22  S   LIG    1        2.074  -5.229  -2.314  0.00  0.00    -0.070 S 
ENDBRANCH  13  14
ENDBRANCH   7  13
TORSDOF 2
