REMARK  Name = ZINC00253122
REMARK                            x       y       z     vdW  Elec       q    Type
REMARK                         _______ _______ _______ _____ _____    ______ ____
ROOT
ATOM      1  C   LIG    1        3.567  -1.942   2.398  0.00  0.00    +0.189 C 
ENDROOT
BRANCH   1   2
ATOM      2  N   LIG    1        4.378  -1.079   1.536  0.00  0.00    -0.176 NA
ATOM      3  H   LIG    1        5.174  -0.651   1.888  0.00  0.00    +0.149 HD
BRANCH   2   4
ATOM      4  S   LIG    1        3.934  -0.832  -0.041  0.00  0.00    +0.059 S 
ATOM      5  O   LIG    1        4.890   0.060  -0.597  0.00  0.00    -0.153 OA
ATOM      6  O   LIG    1        3.674  -2.114  -0.595  0.00  0.00    -0.153 OA
BRANCH   4  10
ATOM      7  C   LIG    1       -0.017   1.378   0.010  0.00  0.00    +0.000 A 
ATOM      8  C   LIG    1        1.171   2.086   0.002  0.00  0.00    +0.002 A 
ATOM      9  C   LIG    1        2.377   1.411  -0.013  0.00  0.00    +0.028 A 
ATOM     10  C   LIG    1        2.396   0.029  -0.020  0.00  0.00    +0.105 A 
ATOM     11  C   LIG    1        1.208  -0.679  -0.012  0.00  0.00    +0.028 A 
ATOM     12  C   LIG    1        0.002  -0.004   0.002  0.00  0.00    +0.002 A 
ENDBRANCH   4  10
ENDBRANCH   2   4
ENDBRANCH   1   2
BRANCH   1  13
ATOM     13  C   LIG    1        4.141  -3.336   2.395  0.00  0.00    +0.324 C 
ATOM     14  O   LIG    1        5.338  -3.502   2.234  0.00  0.00    -0.249 OA
BRANCH  13  15
ATOM     15  O   LIG    1        3.408  -4.297   2.553  0.00  0.00    -0.479 OA
ATOM     16  H   LIG    1        2.488  -4.169   2.677  0.00  0.00    +0.295 HD
ENDBRANCH  13  15
ENDBRANCH   1  13
BRANCH   1  17
ATOM     17  C   LIG    1        3.576  -1.390   3.825  0.00  0.00    +0.069 C 
BRANCH  17  18
ATOM     18  C   LIG    1        2.892  -0.048   3.849  0.00  0.00    -0.020 A 
ATOM     19  C   LIG    1        3.485   1.153   3.756  0.00  0.00    +0.087 A 
ATOM     20  N   LIG    1        2.544   2.144   3.814  0.00  0.00    -0.360 N 
ATOM     21  C   LIG    1        1.290   1.592   3.951  0.00  0.00    +0.047 A 
ATOM     22  C   LIG    1        0.012   2.131   4.056  0.00  0.00    +0.026 A 
ATOM     23  C   LIG    1       -1.077   1.294   4.169  0.00  0.00    +0.002 A 
ATOM     24  C   LIG    1       -0.911  -0.084   4.194  0.00  0.00    +0.001 A 
ATOM     25  C   LIG    1        0.336  -0.635   4.096  0.00  0.00    +0.010 A 
ATOM     26  H   LIG    1        2.732   3.095   3.767  0.00  0.00    +0.165 HD
ATOM     27  C   LIG    1        1.452   0.194   3.972  0.00  0.00    +0.003 A 
ENDBRANCH  17  18
ENDBRANCH   1  17
TORSDOF 7
