REMARK  Name = ZINC00147092
REMARK                            x       y       z     vdW  Elec       q    Type
REMARK                         _______ _______ _______ _____ _____    ______ ____
ROOT
ATOM      1  C   LIG    1        5.645   3.601  -0.724  0.00  0.00    +0.001 A 
ATOM      2  C   LIG    1        5.658   3.594   0.658  0.00  0.00    +0.001 A 
ATOM      3  C   LIG    1        4.544   3.177   1.370  0.00  0.00    +0.014 A 
ATOM      4  C   LIG    1        3.410   2.763   0.689  0.00  0.00    +0.049 A 
ATOM      5  C   LIG    1        3.397   2.770  -0.720  0.00  0.00    +0.049 A 
ATOM      6  C   LIG    1        2.060   2.279  -1.115  0.00  0.00    +0.254 C 
ATOM      7  N   LIG    1        1.356   2.010  -0.000  0.00  0.00    -0.228 N 
ATOM      8  O   LIG    1        1.663   2.142  -2.254  0.00  0.00    -0.270 OA
ATOM      9  C   LIG    1        2.079   2.273   1.104  0.00  0.00    +0.254 C 
ATOM     10  O   LIG    1        1.701   2.129   2.249  0.00  0.00    -0.270 OA
ATOM     11  C   LIG    1        4.518   3.190  -1.418  0.00  0.00    +0.014 A 
ENDROOT
BRANCH   7  12
ATOM     12  C   LIG    1       -0.018   1.503   0.010  0.00  0.00    +0.173 C 
BRANCH  12  13
ATOM     13  C   LIG    1        0.002  -0.004   0.002  0.00  0.00    +0.067 A 
ATOM     14  C   LIG    1       -0.075  -0.692   1.171  0.00  0.00    +0.072 A 
ATOM     15  S   LIG    1       -0.010  -2.375   0.571  0.00  0.00    -0.075 S 
ATOM     16  C   LIG    1        0.120  -1.981  -1.169  0.00  0.00    +0.115 A 
ATOM     17  N   LIG    1        0.100  -0.654  -1.135  0.00  0.00    -0.242 NA
BRANCH  16  18
ATOM     18  C   LIG    1        0.223  -2.885  -2.325  0.00  0.00    +0.044 A 
ATOM     19  C   LIG    1        0.249  -4.256  -2.352  0.00  0.00    +0.018 A 
ATOM     20  C   LIG    1        0.347  -4.892  -3.569  0.00  0.00    +0.008 A 
ATOM     21  C   LIG    1        0.426  -4.146  -4.701  0.00  0.00    +0.046 A 
ATOM     22  S   LIG    1        0.353  -2.481  -4.060  0.00  0.00    -0.095 S 
ENDBRANCH  16  18
ENDBRANCH  12  13
ENDBRANCH   7  12
TORSDOF 3
