REMARK  Name = ZINC00171580
REMARK                            x       y       z     vdW  Elec       q    Type
REMARK                         _______ _______ _______ _____ _____    ______ ____
ROOT
ATOM      1  C   LIG    1       -0.979   1.746  -3.600  0.00  0.00    +0.103 A 
ATOM      2  C   LIG    1       -0.618   1.503  -4.888  0.00  0.00    +0.041 A 
ATOM      3  C   LIG    1       -1.561   2.143  -5.728  0.00  0.00    +0.003 A 
ATOM      4  C   LIG    1       -1.702   2.238  -7.119  0.00  0.00    +0.010 A 
ATOM      5  C   LIG    1       -2.738   2.950  -7.649  0.00  0.00    +0.003 A 
ATOM      6  C   LIG    1       -3.658   3.582  -6.822  0.00  0.00    +0.035 A 
ATOM      7  C   LIG    1       -3.542   3.503  -5.452  0.00  0.00    +0.145 A 
ATOM      8  C   LIG    1       -2.492   2.783  -4.887  0.00  0.00    +0.077 A 
ATOM      9  N   LIG    1       -2.118   2.528  -3.589  0.00  0.00    -0.349 N 
ATOM     10  H   LIG    1       -2.578   2.845  -2.796  0.00  0.00    +0.166 HD
ENDROOT
BRANCH   1  13
ATOM     11  N   LIG    1       -0.721   1.571  -1.179  0.00  0.00    -0.310 N 
ATOM     12  H   LIG    1       -1.516   2.118  -1.079  0.00  0.00    +0.149 HD
ATOM     13  C   LIG    1       -0.268   1.258  -2.409  0.00  0.00    +0.260 C 
ATOM     14  O   LIG    1        0.729   0.573  -2.534  0.00  0.00    -0.269 OA
BRANCH  11  15
ATOM     15  C   LIG    1       -0.013   1.086   0.008  0.00  0.00    +0.109 C 
BRANCH  15  16
ATOM     16  C   LIG    1       -0.729   1.579   1.267  0.00  0.00    +0.054 C 
BRANCH  16  20
ATOM     17  C   LIG    1        1.337   0.164   4.728  0.00  0.00    +0.000 A 
ATOM     18  C   LIG    1        1.680   1.380   4.167  0.00  0.00    +0.000 A 
ATOM     19  C   LIG    1        1.012   1.838   3.046  0.00  0.00    +0.004 A 
ATOM     20  C   LIG    1        0.000   1.080   2.488  0.00  0.00    -0.046 A 
ATOM     21  C   LIG    1       -0.347  -0.133   3.052  0.00  0.00    +0.004 A 
ATOM     22  C   LIG    1        0.325  -0.593   4.169  0.00  0.00    +0.000 A 
ENDBRANCH  16  20
ENDBRANCH  15  16
ENDBRANCH  11  15
ENDBRANCH   1  13
BRANCH   7  23
ATOM     23  N   LIG    1       -4.529   4.182  -4.583  0.00  0.00    +0.008 N 
ATOM     24  O   LIG    1       -5.447   4.811  -5.079  0.00  0.00    -0.130 OA
BRANCH  23  25
ATOM     25  O   LIG    1       -4.424   4.111  -3.371  0.00  0.00    -0.396 OA
ATOM     26  H   LIG    1       -3.718   3.627  -2.990  0.00  0.00    +0.329 HD
ENDBRANCH  23  25
ENDBRANCH   7  23
TORSDOF 6
