REMARK  Name = ZINC00093989
REMARK                            x       y       z     vdW  Elec       q    Type
REMARK                         _______ _______ _______ _____ _____    ______ ____
ROOT
ATOM      1  C   LIG    1        1.174   2.439   0.004  0.00  0.00    +0.022 A 
ATOM      2  C   LIG    1        1.175   3.816   0.011  0.00  0.00    +0.027 A 
ATOM      3  C   LIG    1       -0.029   4.511   0.026  0.00  0.00    +0.047 A 
ATOM      4  C   LIG    1       -1.242   3.796   0.034  0.00  0.00    +0.004 A 
ATOM      5  C   LIG    1       -2.298   4.803   0.050  0.00  0.00    -0.018 A 
ATOM      6  C   LIG    1       -1.703   6.011   0.052  0.00  0.00    +0.032 A 
ATOM      7  C   LIG    1       -2.460   7.319   0.072  0.00  0.00    +0.121 C 
ATOM      8  C   LIG    1       -3.902   7.040   0.509  0.00  0.00    +0.019 C 
ATOM      9  C   LIG    1       -4.478   5.896  -0.330  0.00  0.00    +0.006 C 
ATOM     10  C   LIG    1       -3.789   4.583   0.062  0.00  0.00    +0.037 C 
ATOM     11  C   LIG    1       -1.226   2.400   0.021  0.00  0.00    +0.030 A 
ATOM     12  N   LIG    1       -0.346   5.853   0.037  0.00  0.00    -0.357 N 
ATOM     13  H   LIG    1        0.299   6.578   0.034  0.00  0.00    +0.166 HD
ATOM     14  C   LIG    1       -0.021   1.732   0.012  0.00  0.00    +0.042 A 
ATOM     15 CL   LIG    1        0.002  -0.004   0.002  0.00  0.00    -0.084 Cl
ENDROOT
BRANCH   7  16
ATOM     16  C   LIG    1       -1.810   8.267   1.047  0.00  0.00    +0.219 C 
ATOM     17  N   LIG    1       -2.320   9.501   1.229  0.00  0.00    -0.329 N 
ATOM     18  H   LIG    1       -1.901  10.110   1.857  0.00  0.00    +0.145 HD
ATOM     19  H   LIG    1       -3.105   9.779   0.733  0.00  0.00    +0.145 HD
ATOM     20  O   LIG    1       -0.828   7.918   1.667  0.00  0.00    -0.275 OA
ENDBRANCH   7  16
TORSDOF 1
