REMARK  Name = ZINC00146703
REMARK                            x       y       z     vdW  Elec       q    Type
REMARK                         _______ _______ _______ _____ _____    ______ ____
ROOT
ATOM      1  C   LIG    1        0.707  -0.490  -1.238  0.00  0.00    +0.054 A 
ATOM      2  C   LIG    1        0.845  -1.860  -1.467  0.00  0.00    +0.091 A 
ATOM      3  C   LIG    1        1.486  -2.290  -2.594  0.00  0.00    +0.217 A 
ATOM      4  N   LIG    1        1.978  -1.362  -3.472  0.00  0.00    -0.181 N 
ATOM      5  C   LIG    1        1.821  -0.027  -3.206  0.00  0.00    +0.168 A 
ATOM      6  C   LIG    1        2.417   0.668  -4.266  0.00  0.00    +0.058 A 
ATOM      7  C   LIG    1        2.926  -0.287  -5.154  0.00  0.00    +0.176 A 
ATOM      8  N   LIG    1        2.666  -1.483  -4.684  0.00  0.00    -0.157 NA
ATOM      9  N   LIG    1        1.186   0.379  -2.102  0.00  0.00    -0.231 NA
ENDROOT
BRANCH   6  10
ATOM     10  C   LIG    1        2.495   2.139  -4.418  0.00  0.00    -0.012 A 
ATOM     11  C   LIG    1        1.331   2.889  -4.583  0.00  0.00    +0.009 A 
ATOM     12  C   LIG    1        1.410   4.259  -4.724  0.00  0.00    +0.001 A 
ATOM     13  C   LIG    1        2.641   4.890  -4.701  0.00  0.00    +0.000 A 
ATOM     14  C   LIG    1        3.800   4.152  -4.538  0.00  0.00    +0.001 A 
ATOM     15  C   LIG    1        3.733   2.781  -4.391  0.00  0.00    +0.009 A 
ENDBRANCH   6  10
BRANCH   1  17
ATOM     16  C   LIG    1       -0.019   1.526   0.010  0.00  0.00    +0.017 C 
ATOM     17  C   LIG    1        0.002  -0.004   0.002  0.00  0.00    +0.005 C 
ATOM     18  C   LIG    1       -1.433  -0.534   0.013  0.00  0.00    +0.017 C 
ATOM     19  C   LIG    1        0.742  -0.511   1.242  0.00  0.00    +0.017 C 
ENDBRANCH   1  17
BRANCH   7  20
ATOM     20  C   LIG    1        3.653   0.011  -6.439  0.00  0.00    +0.437 C 
ATOM     21  F   LIG    1        3.189   1.219  -6.969  0.00  0.00    -0.164 F 
ATOM     22  F   LIG    1        3.420  -1.020  -7.356  0.00  0.00    -0.164 F 
ATOM     23  F   LIG    1        5.026   0.109  -6.187  0.00  0.00    -0.164 F 
ENDBRANCH   7  20
BRANCH   3  24
ATOM     24  O   LIG    1        1.631  -3.612  -2.840  0.00  0.00    -0.492 OA
ATOM     25  H   LIG    1        1.291  -4.241  -2.234  0.00  0.00    +0.294 HD
ENDBRANCH   3  24
TORSDOF 4
