REMARK  Name = ZINC00155806
REMARK                            x       y       z     vdW  Elec       q    Type
REMARK                         _______ _______ _______ _____ _____    ______ ____
ROOT
ATOM      1  C   LIG    1       -0.017   1.385   0.010  0.00  0.00    +0.012 A 
ATOM      2  C   LIG    1        1.162   2.103   0.002  0.00  0.00    +0.050 A 
ATOM      3  C   LIG    1        2.381   1.443  -0.011  0.00  0.00    +0.162 A 
ATOM      4  C   LIG    1        2.409   0.053  -0.012  0.00  0.00    +0.201 A 
ATOM      5  C   LIG    1        1.217  -0.664  -0.002  0.00  0.00    +0.169 A 
ATOM      6  O   LIG    1        1.260  -2.025   0.012  0.00  0.00    -0.485 OA
ATOM      7  C   LIG    1        0.167  -2.653   0.714  0.00  0.00    +0.265 C 
ATOM      8  C   LIG    1       -1.137  -2.259   0.035  0.00  0.00    +0.115 C 
ATOM      9  C   LIG    1       -1.109  -2.643  -1.476  0.00  0.00    +0.074 C 
ATOM     10  C   LIG    1       -1.891  -1.558  -2.163  0.00  0.00    -0.037 A 
ATOM     11  C   LIG    1       -2.449  -1.560  -3.433  0.00  0.00    +0.053 A 
ATOM     12  C   LIG    1       -3.135  -0.416  -3.828  0.00  0.00    +0.158 A 
ATOM     13  C   LIG    1       -3.256   0.682  -2.986  0.00  0.00    +0.159 A 
ATOM     14  C   LIG    1       -2.696   0.684  -1.712  0.00  0.00    +0.053 A 
ATOM     15  C   LIG    1       -2.013  -0.457  -1.321  0.00  0.00    -0.030 A 
ATOM     16  C   LIG    1       -1.312  -0.735  -0.016  0.00  0.00    +0.088 C 
ATOM     17  C   LIG    1        0.002  -0.004   0.002  0.00  0.00    +0.008 A 
ENDROOT
BRANCH   3  18
ATOM     18  O   LIG    1        3.542   2.150  -0.025  0.00  0.00    -0.503 OA
ATOM     19  H   LIG    1        3.888   2.355   0.855  0.00  0.00    +0.292 HD
ENDBRANCH   3  18
BRANCH   4  20
ATOM     20  O   LIG    1        3.600  -0.605  -0.023  0.00  0.00    -0.501 OA
ATOM     21  H   LIG    1        3.952  -0.795   0.858  0.00  0.00    +0.292 HD
ENDBRANCH   4  20
BRANCH   8  22
ATOM     22  O   LIG    1       -2.255  -2.867   0.685  0.00  0.00    -0.384 OA
ATOM     23  H   LIG    1       -2.198  -3.830   0.747  0.00  0.00    +0.210 HD
ENDBRANCH   8  22
BRANCH  12  24
ATOM     24  O   LIG    1       -3.699  -0.371  -5.065  0.00  0.00    -0.503 OA
ATOM     25  H   LIG    1       -3.114  -0.024  -5.752  0.00  0.00    +0.292 HD
ENDBRANCH  12  24
BRANCH  13  26
ATOM     26  O   LIG    1       -3.936   1.778  -3.416  0.00  0.00    -0.503 OA
ATOM     27  H   LIG    1       -3.385   2.431  -3.869  0.00  0.00    +0.292 HD
ENDBRANCH  13  26
TORSDOF 5
