REMARK  Name = ZINC00156633
REMARK                            x       y       z     vdW  Elec       q    Type
REMARK                         _______ _______ _______ _____ _____    ______ ____
ROOT
ATOM      1  C   LIG    1       -0.181  -0.308   2.468  0.00  0.00    +0.158 C 
ENDROOT
BRANCH   1   7
ATOM      2  C   LIG    1       -0.119  -3.266   1.547  0.00  0.00    +0.086 C 
ATOM      3  C   LIG    1       -0.042  -2.049   0.661  0.00  0.00    +0.107 A 
ATOM      4  N   LIG    1        0.058  -2.061  -0.640  0.00  0.00    -0.241 NA
ATOM      5  C   LIG    1        0.102  -0.799  -1.092  0.00  0.00    +0.130 A 
ATOM      6  C   LIG    1        0.026   0.027  -0.030  0.00  0.00    +0.107 A 
ATOM      7  N   LIG    1       -0.070  -0.766   1.081  0.00  0.00    -0.330 N 
ENDBRANCH   1   7
BRANCH   1   8
ATOM      8  C   LIG    1       -1.635  -0.239   2.860  0.00  0.00    -0.028 A 
ATOM      9  C   LIG    1       -2.380   0.884   2.553  0.00  0.00    +0.005 A 
ATOM     10  C   LIG    1       -3.713   0.948   2.913  0.00  0.00    +0.000 A 
ATOM     11  C   LIG    1       -4.301  -0.111   3.578  0.00  0.00    +0.000 A 
ATOM     12  C   LIG    1       -3.556  -1.234   3.884  0.00  0.00    +0.000 A 
ATOM     13  C   LIG    1       -2.224  -1.300   3.521  0.00  0.00    +0.005 A 
ENDBRANCH   1   8
TORSDOF 2
