REMARK  Name = ZINC00266028
REMARK                            x       y       z     vdW  Elec       q    Type
REMARK                         _______ _______ _______ _____ _____    ______ ____
ROOT
ATOM      1  C   LIG    1       -5.989   7.429   0.099  0.00  0.00    +0.001 A 
ATOM      2  C   LIG    1       -4.756   8.065   0.091  0.00  0.00    +0.004 A 
ATOM      3  C   LIG    1       -3.588   7.333   0.077  0.00  0.00    +0.047 A 
ATOM      4  C   LIG    1       -3.639   5.944   0.070  0.00  0.00    +0.139 A 
ATOM      5  C   LIG    1       -4.887   5.302   0.078  0.00  0.00    +0.064 A 
ATOM      6  C   LIG    1       -4.920   3.826   0.070  0.00  0.00    +0.193 A 
ATOM      7  C   LIG    1       -3.677   3.149   0.049  0.00  0.00    +0.098 A 
ATOM      8  C   LIG    1       -2.523   3.868   0.047  0.00  0.00    +0.139 A 
ATOM      9  O   LIG    1       -5.975   3.215   0.076  0.00  0.00    -0.287 OA
ATOM     10  O   LIG    1       -2.507   5.210   0.055  0.00  0.00    -0.455 OA
ATOM     11  C   LIG    1       -6.062   6.053   0.092  0.00  0.00    +0.015 A 
ENDROOT
BRANCH   8  12
ATOM     12  C   LIG    1       -1.236   3.144   0.031  0.00  0.00    +0.020 A 
ATOM     13  C   LIG    1       -1.217   1.747   0.017  0.00  0.00    +0.012 A 
ATOM     14  C   LIG    1       -0.013   1.076   0.008  0.00  0.00    +0.003 A 
ATOM     15  C   LIG    1        1.177   1.782   0.000  0.00  0.00    +0.038 A 
ATOM     16  C   LIG    1        1.167   3.168   0.008  0.00  0.00    +0.124 A 
ATOM     17  F   LIG    1        2.333   3.850   0.001  0.00  0.00    -0.205 F 
ATOM     18  C   LIG    1       -0.033   3.852   0.024  0.00  0.00    +0.050 A 
ENDBRANCH   8  12
TORSDOF 1
