REMARK  Name = ZINC00281158
REMARK                            x       y       z     vdW  Elec       q    Type
REMARK                         _______ _______ _______ _____ _____    ______ ____
ROOT
ATOM      1  C   LIG    1        4.776   0.037  -0.145  0.00  0.00    +0.221 C 
ATOM      2  N   LIG    1        3.622  -0.651  -0.036  0.00  0.00    -0.285 N 
ATOM      3  H   LIG    1        3.638  -1.618   0.035  0.00  0.00    +0.155 HD
ATOM      4  O   LIG    1        4.761   1.250  -0.139  0.00  0.00    -0.275 OA
ENDROOT
BRANCH   2   5
ATOM      5  C   LIG    1        2.399   0.030  -0.027  0.00  0.00    +0.033 A 
ATOM      6  C   LIG    1        2.245   1.194  -0.769  0.00  0.00    +0.023 A 
ATOM      7  C   LIG    1        1.038   1.864  -0.758  0.00  0.00    +0.002 A 
ATOM      8  C   LIG    1       -0.018   1.377  -0.009  0.00  0.00    +0.000 A 
ATOM      9  C   LIG    1        0.132   0.219   0.732  0.00  0.00    +0.002 A 
ATOM     10  C   LIG    1        1.337  -0.456   0.724  0.00  0.00    +0.023 A 
ENDBRANCH   2   5
BRANCH   1  12
ATOM     11  C   LIG    1        6.053  -1.574  -1.531  0.00  0.00    +0.018 C 
ATOM     12  C   LIG    1        6.083  -0.701  -0.275  0.00  0.00    +0.082 C 
BRANCH  12  13
ATOM     13  C   LIG    1        7.229   0.307  -0.382  0.00  0.00    +0.089 C 
BRANCH  13  14
ATOM     14  S   LIG    1        8.810  -0.575  -0.390  0.00  0.00    -0.088 S 
BRANCH  14  15
ATOM     15  C   LIG    1        9.888   0.749  -0.514  0.00  0.00    +0.186 C 
ATOM     16  C   LIG    1       11.375   0.508  -0.557  0.00  0.00    +0.099 C 
ATOM     17  O   LIG    1        9.455   1.882  -0.566  0.00  0.00    -0.286 OA
ENDBRANCH  14  15
ENDBRANCH  13  14
ENDBRANCH  12  13
ENDBRANCH   1  12
TORSDOF 5
