REMARK  Name = ZINC00102894
REMARK                            x       y       z     vdW  Elec       q    Type
REMARK                         _______ _______ _______ _____ _____    ______ ____
ROOT
ATOM      1  C   LIG    1       -2.294  -0.534  -0.077  0.00  0.00    +0.248 C 
ATOM      2  N   LIG    1       -2.182   0.808  -0.022  0.00  0.00    -0.280 N 
ATOM      3  H   LIG    1       -2.978   1.359   0.022  0.00  0.00    +0.155 HD
ATOM      4  O   LIG    1       -1.298  -1.230  -0.032  0.00  0.00    -0.270 OA
ENDROOT
BRANCH   2   5
ATOM      5  C   LIG    1       -0.916   1.405  -0.030  0.00  0.00    +0.052 A 
ATOM      6  C   LIG    1        0.166   0.735  -0.586  0.00  0.00    +0.026 A 
ATOM      7  C   LIG    1        1.413   1.329  -0.597  0.00  0.00    +0.022 A 
ATOM      8  C   LIG    1        1.586   2.589  -0.050  0.00  0.00    +0.042 A 
ATOM      9 CL   LIG    1        3.155   3.331  -0.066  0.00  0.00    -0.083 Cl
ATOM     10  C   LIG    1        0.511   3.257   0.509  0.00  0.00    +0.041 A 
ATOM     11  C   LIG    1       -0.739   2.668   0.523  0.00  0.00    +0.064 A 
ATOM     12 CL   LIG    1       -2.087   3.506   1.224  0.00  0.00    -0.082 Cl
ENDBRANCH   2   5
BRANCH   1  17
ATOM     13  C   LIG    1       -7.487  -2.972  -0.523  0.00  0.00    +0.046 C 
ATOM     14  C   LIG    1       -6.127  -2.334  -0.407  0.00  0.00    -0.020 A 
ATOM     15  C   LIG    1       -6.015  -0.955  -0.351  0.00  0.00    +0.006 A 
ATOM     16  C   LIG    1       -4.774  -0.365  -0.239  0.00  0.00    +0.013 A 
ATOM     17  C   LIG    1       -3.628  -1.161  -0.192  0.00  0.00    +0.039 A 
ATOM     18  C   LIG    1       -3.747  -2.550  -0.249  0.00  0.00    +0.046 A 
ATOM     19  C   LIG    1       -4.995  -3.128  -0.356  0.00  0.00    +0.125 A 
BRANCH  19  20
ATOM     20  N   LIG    1       -5.124  -4.601  -0.417  0.00  0.00    +0.006 N 
ATOM     21  O   LIG    1       -4.137  -5.304  -0.294  0.00  0.00    -0.130 OA
BRANCH  20  22
ATOM     22  O   LIG    1       -6.217  -5.110  -0.590  0.00  0.00    -0.396 OA
ATOM     23  H   LIG    1       -6.976  -4.569  -0.684  0.00  0.00    +0.329 HD
ENDBRANCH  20  22
ENDBRANCH  19  20
ENDBRANCH   1  17
TORSDOF 4
