REMARK  Name = ZINC00087629
REMARK                            x       y       z     vdW  Elec       q    Type
REMARK                         _______ _______ _______ _____ _____    ______ ____
ROOT
ATOM      1  C   LIG    1       -0.018   1.461   0.010  0.00  0.00    +0.152 C 
ATOM      2  N   LIG    1        0.002  -0.004   0.002  0.00  0.00    -0.316 N 
ATOM      3  C   LIG    1        0.007  -0.781  -1.113  0.00  0.00    +0.068 A 
ATOM      4  C   LIG    1       -0.004  -0.497  -2.481  0.00  0.00    +0.028 A 
ATOM      5  C   LIG    1        0.006  -1.528  -3.393  0.00  0.00    +0.002 A 
ATOM      6  C   LIG    1        0.026  -2.847  -2.965  0.00  0.00    +0.002 A 
ATOM      7  C   LIG    1        0.037  -3.144  -1.617  0.00  0.00    +0.028 A 
ATOM      8  C   LIG    1        0.028  -2.119  -0.684  0.00  0.00    +0.069 A 
ATOM      9  N   LIG    1        0.034  -2.079   0.700  0.00  0.00    -0.306 N 
ATOM     10  C   LIG    1        0.023  -0.764   1.068  0.00  0.00    +0.174 A 
ENDROOT
BRANCH  10  11
ATOM     11  N   LIG    1        0.029  -0.306   2.369  0.00  0.00    -0.330 N 
ATOM     12  H   LIG    1        0.045  -0.936   3.105  0.00  0.00    +0.145 HD
ATOM     13  H   LIG    1        0.017   0.648   2.546  0.00  0.00    +0.145 HD
ENDBRANCH  10  11
BRANCH   9  14
ATOM     14  C   LIG    1        0.055  -3.234   1.602  0.00  0.00    +0.204 C 
BRANCH  14  15
ATOM     15  C   LIG    1        1.482  -3.610   1.904  0.00  0.00    +0.183 C 
ATOM     16  O   LIG    1        2.393  -2.976   1.415  0.00  0.00    -0.290 OA
BRANCH  15  17
ATOM     17  C   LIG    1        1.771  -4.746   2.793  0.00  0.00    +0.019 A 
ATOM     18  C   LIG    1        0.723  -5.483   3.355  0.00  0.00    +0.012 A 
ATOM     19  C   LIG    1        1.002  -6.546   4.187  0.00  0.00    +0.016 A 
ATOM     20  C   LIG    1        2.315  -6.885   4.467  0.00  0.00    +0.018 A 
ATOM     21 BR   LIG    1        2.686  -8.345   5.610  0.00  0.00    -0.050 Br
ATOM     22  C   LIG    1        3.358  -6.160   3.914  0.00  0.00    +0.016 A 
ATOM     23  C   LIG    1        3.095  -5.098   3.076  0.00  0.00    +0.012 A 
ENDBRANCH  15  17
ENDBRANCH  14  15
ENDBRANCH   9  14
TORSDOF 4
