REMARK  Name = ZINC00197290
REMARK                            x       y       z     vdW  Elec       q    Type
REMARK                         _______ _______ _______ _____ _____    ______ ____
ROOT
ATOM      1  C   LIG    1        1.680   3.078   0.003  0.00  0.00    +0.044 C 
ATOM      2  C   LIG    1        1.269   1.764  -0.018  0.00  0.00    +0.152 C 
ATOM      3  C   LIG    1        2.123   0.560  -0.039  0.00  0.00    +0.364 C 
ATOM      4  O   LIG    1        1.265  -0.483  -0.055  0.00  0.00    -0.402 OA
ATOM      5  C   LIG    1        0.005  -0.005  -0.046  0.00  0.00    +0.232 C 
ATOM      6  O   LIG    1        3.338   0.517  -0.042  0.00  0.00    -0.243 OA
ATOM      7  N   LIG    1       -0.014   1.299  -0.024  0.00  0.00    -0.205 NA
ENDROOT
BRANCH   5   8
ATOM      8  C   LIG    1       -1.203  -0.853  -0.058  0.00  0.00    +0.039 A 
ATOM      9  C   LIG    1       -2.471  -0.267  -0.040  0.00  0.00    +0.015 A 
ATOM     10  C   LIG    1       -3.596  -1.064  -0.056  0.00  0.00    +0.023 A 
ATOM     11  C   LIG    1       -3.471  -2.443  -0.079  0.00  0.00    +0.071 A 
ATOM     12 CL   LIG    1       -4.892  -3.440  -0.092  0.00  0.00    -0.081 Cl
ATOM     13  C   LIG    1       -2.217  -3.031  -0.091  0.00  0.00    +0.141 A 
ATOM     14  C   LIG    1       -1.084  -2.244  -0.081  0.00  0.00    +0.047 A 
BRANCH  13  15
ATOM     15  N   LIG    1       -2.092  -4.505  -0.116  0.00  0.00    +0.007 N 
ATOM     16  O   LIG    1       -0.990  -5.023  -0.127  0.00  0.00    -0.130 OA
BRANCH  15  17
ATOM     17  O   LIG    1       -3.092  -5.201  -0.125  0.00  0.00    -0.396 OA
ATOM     18  H   LIG    1       -3.940  -4.803  -0.117  0.00  0.00    +0.329 HD
ENDBRANCH  15  17
ENDBRANCH  13  15
ENDBRANCH   5   8
BRANCH   1  21
ATOM     19  C   LIG    1       -1.573   4.925  -0.173  0.00  0.00    +0.020 A 
ATOM     20  C   LIG    1       -0.684   3.870  -0.082  0.00  0.00    +0.011 A 
ATOM     21  C   LIG    1        0.691   4.157  -0.092  0.00  0.00    -0.005 A 
ATOM     22  C   LIG    1        1.100   5.494  -0.189  0.00  0.00    +0.118 A 
ATOM     23  N   LIG    1        0.211   6.460  -0.280  0.00  0.00    -0.263 NA
ATOM     24  C   LIG    1       -1.086   6.217  -0.272  0.00  0.00    +0.111 A 
ENDBRANCH   1  21
TORSDOF 4
