REMARK  Name = ZINC00120273
REMARK                            x       y       z     vdW  Elec       q    Type
REMARK                         _______ _______ _______ _____ _____    ______ ____
ROOT
ATOM      1  C   LIG    1        3.694  -0.683  -0.037  0.00  0.00    +0.181 A 
ATOM      2  C   LIG    1        3.690  -2.041   0.054  0.00  0.00    +0.208 A 
ATOM      3  C   LIG    1        4.923  -2.746   0.039  0.00  0.00    +0.238 A 
ATOM      4  C   LIG    1        6.156  -1.950  -0.077  0.00  0.00    +0.109 A 
ATOM      5  C   LIG    1        7.417  -2.562  -0.100  0.00  0.00    +0.135 A 
ATOM      6  C   LIG    1        8.551  -1.780  -0.210  0.00  0.00    +0.091 A 
ATOM      7  C   LIG    1        8.439  -0.396  -0.297  0.00  0.00    +0.124 A 
ATOM      8  C   LIG    1        7.196   0.216  -0.275  0.00  0.00    +0.092 A 
ATOM      9  C   LIG    1        6.046  -0.551  -0.165  0.00  0.00    +0.147 A 
ATOM     10  O   LIG    1        4.960  -3.963   0.118  0.00  0.00    -0.283 OA
ATOM     11  O   LIG    1        4.829   0.029  -0.147  0.00  0.00    -0.451 OA
ENDROOT
BRANCH   1  15
ATOM     12  C   LIG    1       -0.016   1.380   0.011  0.00  0.00    +0.000 A 
ATOM     13  C   LIG    1        0.237   0.397   0.952  0.00  0.00    +0.001 A 
ATOM     14  C   LIG    1        1.440  -0.277   0.942  0.00  0.00    +0.011 A 
ATOM     15  C   LIG    1        2.404   0.034  -0.021  0.00  0.00    +0.021 A 
ATOM     16  C   LIG    1        2.141   1.028  -0.967  0.00  0.00    +0.011 A 
ATOM     17  C   LIG    1        0.933   1.694  -0.945  0.00  0.00    +0.001 A 
ENDBRANCH   1  15
BRANCH   2  18
ATOM     18  O   LIG    1        2.514  -2.718   0.159  0.00  0.00    -0.501 OA
ATOM     19  H   LIG    1        2.617  -3.678   0.218  0.00  0.00    +0.292 HD
ENDBRANCH   2  18
BRANCH   5  20
ATOM     20  O   LIG    1        7.523  -3.912  -0.014  0.00  0.00    -0.506 OA
ATOM     21  H   LIG    1        7.509  -4.363  -0.870  0.00  0.00    +0.292 HD
ENDBRANCH   5  20
BRANCH   7  22
ATOM     22  O   LIG    1        9.560   0.363  -0.405  0.00  0.00    -0.507 OA
ATOM     23  H   LIG    1        9.840   0.524  -1.316  0.00  0.00    +0.292 HD
ENDBRANCH   7  22
TORSDOF 4
