REMARK  Name = ZINC00110013
REMARK                            x       y       z     vdW  Elec       q    Type
REMARK                         _______ _______ _______ _____ _____    ______ ____
ROOT
ATOM      1  C   LIG    1        3.347   6.247  -0.346  0.00  0.00    +0.005 A 
ATOM      2  C   LIG    1        2.215   5.498  -0.461  0.00  0.00    +0.029 A 
ATOM      3  C   LIG    1        2.269   4.112  -0.237  0.00  0.00    +0.079 A 
ATOM      4  C   LIG    1        3.507   3.519   0.105  0.00  0.00    +0.057 A 
ATOM      5  C   LIG    1        3.555   2.122   0.329  0.00  0.00    +0.045 A 
ATOM      6  C   LIG    1        2.382   1.396   0.203  0.00  0.00    +0.036 A 
ATOM      7  C   LIG    1        1.198   2.047  -0.136  0.00  0.00    +0.220 A 
ATOM      8  O   LIG    1        0.030   1.365  -0.263  0.00  0.00    -0.476 OA
ATOM      9  C   LIG    1        0.096  -0.052  -0.418  0.00  0.00    +0.231 C 
ATOM     10  C   LIG    1        1.009  -0.618   0.677  0.00  0.00    +0.046 C 
ATOM     11  C   LIG    1        2.426  -0.092   0.439  0.00  0.00    +0.046 C 
ATOM     12  C   LIG    1        4.654   4.318   0.213  0.00  0.00    +0.134 A 
ATOM     13  F   LIG    1        5.842   3.761   0.538  0.00  0.00    -0.205 F 
ATOM     14  N   LIG    1        1.173   3.354  -0.343  0.00  0.00    -0.212 NA
ATOM     15  C   LIG    1        4.564   5.662  -0.011  0.00  0.00    +0.039 A 
ENDROOT
BRANCH   5  16
ATOM     16  N   LIG    1        4.746   1.497   0.667  0.00  0.00    -0.357 N 
ATOM     17  H   LIG    1        5.490   2.020   1.004  0.00  0.00    +0.142 HD
ATOM     18  H   LIG    1        4.835   0.536   0.565  0.00  0.00    +0.142 HD
ENDBRANCH   5  16
TORSDOF 1
