REMARK  Name = ZINC00104659
REMARK                            x       y       z     vdW  Elec       q    Type
REMARK                         _______ _______ _______ _____ _____    ______ ____
ROOT
ATOM      1  C   LIG    1        6.933   5.773  -0.312  0.00  0.00    +0.129 A 
ATOM      2  C   LIG    1        7.073   4.393  -0.316  0.00  0.00    +0.048 A 
ATOM      3  C   LIG    1        5.957   3.586  -0.218  0.00  0.00    +0.027 A 
ATOM      4  C   LIG    1        4.694   4.156  -0.116  0.00  0.00    +0.033 A 
ATOM      5  C   LIG    1        4.555   5.538  -0.118  0.00  0.00    +0.027 A 
ATOM      6  C   LIG    1        5.673   6.344  -0.210  0.00  0.00    +0.048 A 
ENDROOT
BRANCH   4   7
ATOM      7  N   LIG    1        3.562   3.338  -0.017  0.00  0.00    -0.299 N 
ATOM      8  H   LIG    1        3.577   2.442  -0.389  0.00  0.00    +0.154 HD
BRANCH   7   9
ATOM      9  C   LIG    1        2.426   3.807   0.609  0.00  0.00    +0.134 A 
ATOM     10  C   LIG    1        1.229   3.049   0.605  0.00  0.00    +0.040 A 
ATOM     11  C   LIG    1        1.138   1.804  -0.026  0.00  0.00    +0.013 A 
ATOM     12  C   LIG    1       -0.042   1.121   0.003  0.00  0.00    +0.001 A 
ATOM     13  C   LIG    1       -1.158   1.648   0.647  0.00  0.00    +0.002 A 
ATOM     14  C   LIG    1       -1.100   2.856   1.276  0.00  0.00    +0.028 A 
ATOM     15  C   LIG    1        0.097   3.585   1.266  0.00  0.00    +0.076 A 
ATOM     16  N   LIG    1        0.206   4.781   1.864  0.00  0.00    -0.235 NA
ATOM     17  C   LIG    1        1.341   5.438   1.836  0.00  0.00    +0.223 A 
ATOM     18  N   LIG    1        2.425   4.978   1.231  0.00  0.00    -0.220 NA
ENDBRANCH   7   9
ENDBRANCH   4   7
BRANCH   1  19
ATOM     19  O   LIG    1        8.033   6.567  -0.408  0.00  0.00    -0.456 OA
BRANCH  19  23
ATOM     20  C   LIG    1        9.360   8.459   3.009  0.00  0.00    +0.000 A 
ATOM     21  C   LIG    1       10.086   8.562   1.837  0.00  0.00    +0.004 A 
ATOM     22  C   LIG    1        9.644   7.929   0.692  0.00  0.00    +0.046 A 
ATOM     23  C   LIG    1        8.470   7.190   0.718  0.00  0.00    +0.128 A 
ATOM     24  C   LIG    1        7.740   7.093   1.894  0.00  0.00    +0.046 A 
ATOM     25  C   LIG    1        8.190   7.723   3.038  0.00  0.00    +0.004 A 
ENDBRANCH  19  23
ENDBRANCH   1  19
TORSDOF 4
