REMARK  Name = ZINC00213065
REMARK                            x       y       z     vdW  Elec       q    Type
REMARK                         _______ _______ _______ _____ _____    ______ ____
ROOT
ATOM      1  C   LIG    1       -2.989   0.500  -1.179  0.00  0.00    +0.008 A 
ATOM      2  C   LIG    1       -4.023  -0.416  -1.182  0.00  0.00    +0.045 A 
ATOM      3  C   LIG    1       -4.540  -0.881   0.019  0.00  0.00    +0.117 A 
ATOM      4  C   LIG    1       -4.012  -0.429   1.220  0.00  0.00    +0.045 A 
ATOM      5  C   LIG    1       -2.974   0.483   1.217  0.00  0.00    +0.008 A 
ATOM      6  C   LIG    1       -2.462   0.945   0.019  0.00  0.00    -0.037 A 
ENDROOT
BRANCH   3   7
ATOM      7  O   LIG    1       -5.560  -1.778   0.019  0.00  0.00    -0.507 OA
ATOM      8  H   LIG    1       -6.439  -1.375   0.025  0.00  0.00    +0.292 HD
ENDBRANCH   3   7
BRANCH   6   9
ATOM      9  C   LIG    1       -1.329   1.940   0.019  0.00  0.00    +0.155 C 
BRANCH   9  10
ATOM     10  C   LIG    1       -0.014   1.204   0.009  0.00  0.00    +0.309 C 
ATOM     11  O   LIG    1        0.002  -0.004   0.002  0.00  0.00    -0.251 OA
BRANCH  10  12
ATOM     12  O   LIG    1        1.139   1.891   0.001  0.00  0.00    -0.480 OA
ATOM     13  H   LIG    1        1.126   2.828   0.006  0.00  0.00    +0.295 HD
ENDBRANCH  10  12
ENDBRANCH   9  10
ENDBRANCH   6   9
TORSDOF 4
