REMARK  Name = ZINC00190428
REMARK                            x       y       z     vdW  Elec       q    Type
REMARK                         _______ _______ _______ _____ _____    ______ ____
ROOT
ATOM      1  C   LIG    1        5.270  -3.973  -0.072  0.00  0.00    +0.347 C 
ATOM      2  O   LIG    1        4.319  -4.730  -0.066  0.00  0.00    -0.245 OA
ENDROOT
BRANCH   1   3
ATOM      3  C   LIG    1        6.638  -4.513  -0.089  0.00  0.00    +0.144 A 
ATOM      4  C   LIG    1        6.875  -5.882  -0.104  0.00  0.00    +0.033 A 
ATOM      5  C   LIG    1        8.222  -6.326  -0.088  0.00  0.00    +0.018 A 
ATOM      6  C   LIG    1        8.528  -7.678  -0.303  0.00  0.00    +0.011 A 
ATOM      7  C   LIG    1        9.832  -8.083  -0.325  0.00  0.00    +0.001 A 
ATOM      8  C   LIG    1       10.858  -7.170  -0.129  0.00  0.00    +0.004 A 
ATOM      9  C   LIG    1       10.580  -5.839   0.104  0.00  0.00    +0.047 A 
ATOM     10  C   LIG    1        9.261  -5.405   0.138  0.00  0.00    +0.139 A 
ATOM     11  O   LIG    1        8.974  -4.109   0.409  0.00  0.00    -0.422 OA
ATOM     12  C   LIG    1        7.814  -3.622  -0.096  0.00  0.00    +0.351 A 
ATOM     13  O   LIG    1        7.742  -2.490  -0.536  0.00  0.00    -0.244 OA
ENDBRANCH   1   3
BRANCH   1  14
ATOM     14  O   LIG    1        5.071  -2.640  -0.063  0.00  0.00    -0.453 OA
BRANCH  14  15
ATOM     15  C   LIG    1        3.716  -2.186  -0.046  0.00  0.00    +0.311 C 
BRANCH  15  16
ATOM     16  C   LIG    1        3.691  -0.679  -0.038  0.00  0.00    +0.200 C 
ATOM     17  O   LIG    1        4.731  -0.056  -0.045  0.00  0.00    -0.288 OA
BRANCH  16  21
ATOM     18  C   LIG    1       -0.017   1.380   0.010  0.00  0.00    +0.000 A 
ATOM     19  C   LIG    1        1.168   2.095   0.002  0.00  0.00    +0.001 A 
ATOM     20  C   LIG    1        2.377   1.433  -0.013  0.00  0.00    +0.011 A 
ATOM     21  C   LIG    1        2.405   0.035  -0.021  0.00  0.00    +0.021 A 
ATOM     22  C   LIG    1        1.203  -0.681  -0.013  0.00  0.00    +0.011 A 
ATOM     23  C   LIG    1        0.002  -0.004   0.002  0.00  0.00    +0.001 A 
ENDBRANCH  16  21
ENDBRANCH  15  16
ENDBRANCH  14  15
ENDBRANCH   1  14
TORSDOF 5
