REMARK  Name = ZINC00101760
REMARK                            x       y       z     vdW  Elec       q    Type
REMARK                         _______ _______ _______ _____ _____    ______ ____
ROOT
ATOM      1  N   LIG    1       -4.723   1.594   3.757  0.00  0.00    -0.281 N 
ATOM      2  H   LIG    1       -4.277   2.092   4.461  0.00  0.00    +0.155 HD
ATOM      3  C   LIG    1       -6.032   1.297   3.868  0.00  0.00    +0.248 C 
ATOM      4  O   LIG    1       -6.568   0.593   3.034  0.00  0.00    -0.270 OA
ENDROOT
BRANCH   1   9
ATOM      5  C   LIG    1       -3.920   0.717   0.275  0.00  0.00    +0.122 A 
ATOM      6  C   LIG    1       -2.580   0.376   0.395  0.00  0.00    +0.046 A 
ATOM      7  C   LIG    1       -1.956   0.440   1.626  0.00  0.00    +0.005 A 
ATOM      8  C   LIG    1       -2.664   0.844   2.742  0.00  0.00    +0.023 A 
ATOM      9  C   LIG    1       -4.006   1.186   2.628  0.00  0.00    +0.037 A 
ATOM     10  C   LIG    1       -4.632   1.128   1.391  0.00  0.00    +0.069 A 
BRANCH   5  12
ATOM     11  C   LIG    1       -3.736   0.227  -2.044  0.00  0.00    +0.277 C 
ATOM     12  O   LIG    1       -4.532   0.653  -0.937  0.00  0.00    -0.495 OA
ENDBRANCH   5  12
ENDBRANCH   1   9
BRANCH   3  13
ATOM     13  C   LIG    1       -6.817   1.827   5.003  0.00  0.00    +0.039 A 
ATOM     14  C   LIG    1       -6.205   2.636   5.962  0.00  0.00    +0.013 A 
ATOM     15  C   LIG    1       -6.944   3.127   7.018  0.00  0.00    +0.003 A 
ATOM     16  C   LIG    1       -8.288   2.820   7.128  0.00  0.00    +0.032 A 
ATOM     17  C   LIG    1       -8.901   2.019   6.181  0.00  0.00    +0.122 A 
ATOM     18  C   LIG    1       -8.175   1.525   5.117  0.00  0.00    +0.045 A 
BRANCH  17  19
ATOM     19  N   LIG    1      -10.340   1.696   6.307  0.00  0.00    +0.006 N 
ATOM     20  O   LIG    1      -10.983   2.135   7.244  0.00  0.00    -0.130 OA
BRANCH  19  21
ATOM     21  O   LIG    1      -10.881   0.991   5.474  0.00  0.00    -0.396 OA
ATOM     22  H   LIG    1      -10.386   0.653   4.754  0.00  0.00    +0.329 HD
ENDBRANCH  19  21
ENDBRANCH  17  19
ENDBRANCH   3  13
TORSDOF 5
