REMARK  Name = ZINC00127897
REMARK                            x       y       z     vdW  Elec       q    Type
REMARK                         _______ _______ _______ _____ _____    ______ ____
ROOT
ATOM      1  C   LIG    1       -2.276  -4.232   0.001  0.00  0.00    +0.085 A 
ATOM      2  C   LIG    1       -3.352  -5.109   0.012  0.00  0.00    +0.068 A 
ATOM      3  C   LIG    1       -3.058  -6.532  -0.003  0.00  0.00    -0.023 A 
ATOM      4  C   LIG    1       -1.744  -6.848  -0.017  0.00  0.00    -0.004 A 
ATOM      5  C   LIG    1       -1.146  -8.221  -0.028  0.00  0.00    +0.043 C 
ATOM      6  C   LIG    1       -2.239  -9.228   0.356  0.00  0.00    +0.005 C 
ATOM      7  C   LIG    1       -3.495  -8.931  -0.467  0.00  0.00    +0.005 C 
ATOM      8  C   LIG    1       -4.126  -7.619   0.002  0.00  0.00    +0.037 C 
ATOM      9  S   LIG    1       -0.904  -5.290  -0.017  0.00  0.00    -0.077 S 
ENDROOT
BRANCH   2  10
ATOM     10  C   LIG    1       -4.733  -4.619   0.035  0.00  0.00    +0.244 C 
ATOM     11  N   LIG    1       -5.351  -4.398   1.212  0.00  0.00    -0.325 N 
ATOM     12  H   LIG    1       -6.265  -4.073   1.227  0.00  0.00    +0.145 HD
ATOM     13  H   LIG    1       -4.881  -4.564   2.045  0.00  0.00    +0.145 HD
ATOM     14  O   LIG    1       -5.322  -4.410  -1.010  0.00  0.00    -0.270 OA
ENDBRANCH   2  10
BRANCH   1  16
ATOM     15  C   LIG    1       -1.137  -2.158   0.001  0.00  0.00    +0.241 C 
ATOM     16  N   LIG    1       -2.295  -2.847   0.009  0.00  0.00    -0.276 N 
ATOM     17  H   LIG    1       -3.141  -2.374   0.019  0.00  0.00    +0.156 HD
ATOM     18  O   LIG    1       -0.074  -2.752  -0.012  0.00  0.00    -0.270 OA
BRANCH  15  20
ATOM     19  C   LIG    1        0.002  -0.004   0.002  0.00  0.00    +0.013 C 
ATOM     20  C   LIG    1       -1.157  -0.694   0.009  0.00  0.00    +0.068 C 
BRANCH  19  24
ATOM     21  C   LIG    1       -0.056   4.237   0.025  0.00  0.00    +0.000 A 
ATOM     22  C   LIG    1        1.154   3.566   0.010  0.00  0.00    +0.001 A 
ATOM     23  C   LIG    1        1.181   2.187   0.003  0.00  0.00    +0.008 A 
ATOM     24  C   LIG    1       -0.018   1.468   0.010  0.00  0.00    -0.025 A 
ATOM     25  C   LIG    1       -1.236   2.154   0.020  0.00  0.00    +0.008 A 
ATOM     26  C   LIG    1       -1.247   3.533   0.033  0.00  0.00    +0.001 A 
ENDBRANCH  19  24
ENDBRANCH  15  20
ENDBRANCH   1  16
TORSDOF 4
