REMARK  Name = ZINC00096779
REMARK                            x       y       z     vdW  Elec       q    Type
REMARK                         _______ _______ _______ _____ _____    ______ ____
ROOT
ATOM      1  C   LIG    1        1.681   3.080   0.002  0.00  0.00    +0.043 C 
ATOM      2  C   LIG    1        1.213   2.065  -0.808  0.00  0.00    +0.152 C 
ATOM      3  C   LIG    1        1.986   1.269  -1.776  0.00  0.00    +0.364 C 
ATOM      4  O   LIG    1        1.097   0.409  -2.319  0.00  0.00    -0.402 OA
ATOM      5  C   LIG    1       -0.110   0.628  -1.762  0.00  0.00    +0.232 C 
ATOM      6  O   LIG    1        3.171   1.365  -2.033  0.00  0.00    -0.243 OA
ATOM      7  N   LIG    1       -0.063   1.588  -0.880  0.00  0.00    -0.205 NA
ENDROOT
BRANCH   1  11
ATOM      8  C   LIG    1        5.830   3.848   0.244  0.00  0.00    +0.030 A 
ATOM      9  C   LIG    1        4.926   4.908   0.268  0.00  0.00    +0.024 A 
ATOM     10  C   LIG    1        3.584   4.665   0.189  0.00  0.00    +0.010 A 
ATOM     11  C   LIG    1        3.117   3.346   0.086  0.00  0.00    -0.023 A 
ATOM     12  C   LIG    1        4.032   2.283   0.070  0.00  0.00    +0.010 A 
ATOM     13  C   LIG    1        5.372   2.537   0.142  0.00  0.00    +0.024 A 
BRANCH   8  14
ATOM     14  N   LIG    1        7.195   4.101   0.324  0.00  0.00    -0.330 N 
BRANCH  14  16
ATOM     15  C   LIG    1        8.547   2.690  -1.147  0.00  0.00    +0.024 C 
ATOM     16  C   LIG    1        8.148   2.989   0.300  0.00  0.00    +0.102 C 
ENDBRANCH  14  16
BRANCH  14  17
ATOM     17  C   LIG    1        7.680   5.479   0.431  0.00  0.00    +0.102 C 
ATOM     18  C   LIG    1        7.781   5.870   1.907  0.00  0.00    +0.024 C 
ENDBRANCH  14  17
ENDBRANCH   8  14
ENDBRANCH   1  11
BRANCH   5  19
ATOM     19  C   LIG    1       -1.333  -0.125  -2.107  0.00  0.00    +0.037 A 
ATOM     20  C   LIG    1       -2.541   0.170  -1.470  0.00  0.00    +0.013 A 
ATOM     21  C   LIG    1       -3.680  -0.533  -1.801  0.00  0.00    +0.001 A 
ATOM     22  C   LIG    1       -3.626  -1.536  -2.753  0.00  0.00    +0.000 A 
ATOM     23  C   LIG    1       -2.432  -1.837  -3.383  0.00  0.00    +0.001 A 
ATOM     24  C   LIG    1       -1.285  -1.138  -3.066  0.00  0.00    +0.013 A 
ENDBRANCH   5  19
TORSDOF 5
