REMARK  Name = ZINC00119305
REMARK                            x       y       z     vdW  Elec       q    Type
REMARK                         _______ _______ _______ _____ _____    ______ ____
ROOT
ATOM      1  C   LIG    1       -1.246  -2.052  -0.013  0.00  0.00    +0.118 A 
ATOM      2  C   LIG    1       -2.370  -2.883  -0.007  0.00  0.00    +0.056 A 
ATOM      3  C   LIG    1       -2.176  -4.241  -0.020  0.00  0.00    +0.040 A 
ATOM      4  C   LIG    1       -0.877  -4.728  -0.039  0.00  0.00    +0.028 A 
ATOM      5  S   LIG    1        0.094  -3.231  -0.045  0.00  0.00    -0.079 S 
ENDROOT
BRANCH   4   6
ATOM      6  C   LIG    1       -0.417  -6.124  -0.055  0.00  0.00    +0.026 A 
ATOM      7  C   LIG    1        0.875  -6.616  -0.068  0.00  0.00    +0.016 A 
ATOM      8  C   LIG    1        1.056  -7.980  -0.081  0.00  0.00    +0.008 A 
ATOM      9  C   LIG    1       -0.032  -8.795  -0.081  0.00  0.00    +0.046 A 
ATOM     10  S   LIG    1       -1.381  -7.627  -0.054  0.00  0.00    -0.096 S 
ENDBRANCH   4   6
BRANCH   2  11
ATOM     11  N   LIG    1       -3.656  -2.346   0.013  0.00  0.00    -0.281 N 
ATOM     12  H   LIG    1       -3.813  -1.452  -0.330  0.00  0.00    +0.155 HD
ATOM     13  C   LIG    1       -4.681  -3.068   0.507  0.00  0.00    +0.241 C 
ATOM     14  O   LIG    1       -4.469  -4.146   1.027  0.00  0.00    -0.270 OA
BRANCH  13  15
ATOM     15  C   LIG    1       -6.061  -2.550   0.416  0.00  0.00    +0.074 C 
ATOM     16  C   LIG    1       -7.083  -3.270   0.909  0.00  0.00    +0.096 C 
BRANCH  16  17
ATOM     17  C   LIG    1       -8.460  -2.753   0.819  0.00  0.00    +0.330 C 
ATOM     18  O   LIG    1       -8.673  -1.668   0.295  0.00  0.00    -0.246 OA
BRANCH  17  19
ATOM     19  O   LIG    1       -9.390  -3.408   1.268  0.00  0.00    -0.478 OA
ATOM     20  H   LIG    1       -9.227  -4.239   1.669  0.00  0.00    +0.295 HD
ENDBRANCH  17  19
ENDBRANCH  16  17
ENDBRANCH  13  15
ENDBRANCH   2  11
BRANCH   1  21
ATOM     21  C   LIG    1       -1.187  -0.642  -0.002  0.00  0.00    +0.347 C 
ATOM     22  O   LIG    1       -2.215   0.011   0.020  0.00  0.00    -0.244 OA
BRANCH  21  24
ATOM     23  C   LIG    1       -0.005   1.412  -0.005  0.00  0.00    +0.280 C 
ATOM     24  O   LIG    1        0.010  -0.016  -0.017  0.00  0.00    -0.464 OA
ENDBRANCH  21  24
ENDBRANCH   1  21
TORSDOF 7
