REMARK  Name = ZINC00159091
REMARK                            x       y       z     vdW  Elec       q    Type
REMARK                         _______ _______ _______ _____ _____    ______ ____
ROOT
ATOM      1  C   LIG    1       -3.711   3.276   0.038  0.00  0.00    +0.120 A 
ATOM      2  C   LIG    1       -3.695   1.886   0.030  0.00  0.00    +0.046 A 
ATOM      3  C   LIG    1       -2.501   1.212   0.021  0.00  0.00    +0.015 A 
ATOM      4  C   LIG    1       -1.296   1.926   0.019  0.00  0.00    +0.018 A 
ATOM      5  C   LIG    1       -1.318   3.326   0.032  0.00  0.00    +0.015 A 
ATOM      6  C   LIG    1       -2.517   3.990   0.036  0.00  0.00    +0.046 A 
ENDROOT
BRANCH   1   8
ATOM      7  C   LIG    1       -4.839   5.367   0.056  0.00  0.00    +0.277 C 
ATOM      8  O   LIG    1       -4.895   3.939   0.048  0.00  0.00    -0.495 OA
ENDBRANCH   1   8
BRANCH   4   9
ATOM      9  C   LIG    1       -0.014   1.209   0.009  0.00  0.00    +0.173 C 
ATOM     10  O   LIG    1        0.002  -0.004   0.002  0.00  0.00    -0.291 OA
BRANCH   9  11
ATOM     11  C   LIG    1        1.280   1.980   0.001  0.00  0.00    +0.159 C 
ATOM     12 BR   LIG    1        2.792   0.723  -0.021  0.00  0.00    -0.083 Br
ENDBRANCH   9  11
ENDBRANCH   4   9
TORSDOF 3
