REMARK  Name = ZINC00339051
REMARK                            x       y       z     vdW  Elec       q    Type
REMARK                         _______ _______ _______ _____ _____    ______ ____
ROOT
ATOM      1  C   LIG    1        7.415   4.376   1.257  0.00  0.00    +0.017 A 
ATOM      2  C   LIG    1        7.215   4.297  -0.127  0.00  0.00    +0.012 A 
ATOM      3  C   LIG    1        6.057   3.769  -0.622  0.00  0.00    +0.009 A 
ATOM      4  C   LIG    1        5.067   3.304   0.251  0.00  0.00    -0.014 A 
ATOM      5  C   LIG    1        5.269   3.384   1.629  0.00  0.00    -0.035 A 
ATOM      6  C   LIG    1        4.044   2.812   2.301  0.00  0.00    +0.071 C 
ATOM      7  C   LIG    1        3.115   2.395   1.188  0.00  0.00    -0.032 A 
ATOM      8  C   LIG    1        1.862   1.822   1.197  0.00  0.00    +0.050 A 
ATOM      9  C   LIG    1        1.222   1.532  -0.001  0.00  0.00    +0.117 A 
ATOM     10  C   LIG    1        1.841   1.830  -1.209  0.00  0.00    +0.046 A 
ATOM     11  C   LIG    1        3.092   2.408  -1.222  0.00  0.00    +0.012 A 
ATOM     12  C   LIG    1        3.742   2.696  -0.019  0.00  0.00    -0.014 A 
ATOM     13  C   LIG    1        6.424   3.911   2.130  0.00  0.00    +0.016 A 
ENDROOT
BRANCH   1  15
ATOM     14  C   LIG    1        9.725   5.444   0.848  0.00  0.00    +0.091 C 
ATOM     15  C   LIG    1        8.660   4.945   1.791  0.00  0.00    +0.160 C 
ATOM     16  O   LIG    1        8.831   5.012   2.989  0.00  0.00    -0.292 OA
ENDBRANCH   1  15
BRANCH   9  17
ATOM     17  O   LIG    1       -0.011   0.963   0.007  0.00  0.00    -0.507 OA
ATOM     18  H   LIG    1        0.002  -0.004   0.002  0.00  0.00    +0.292 HD
ENDBRANCH   9  17
TORSDOF 2
