REMARK  Name = ZINC00316045
REMARK                            x       y       z     vdW  Elec       q    Type
REMARK                         _______ _______ _______ _____ _____    ______ ____
ROOT
ATOM      1  C   LIG    1        2.474   1.183  -0.010  0.00  0.00    +0.069 A 
ATOM      2  C   LIG    1        3.567   2.155  -0.020  0.00  0.00    -0.023 A 
ATOM      3  C   LIG    1        3.184   3.444  -0.010  0.00  0.00    -0.004 A 
ATOM      4  C   LIG    1        4.362   4.382  -0.019  0.00  0.00    +0.043 C 
ATOM      5  C   LIG    1        5.551   3.507  -0.473  0.00  0.00    +0.010 C 
ATOM      6  S   LIG    1        1.409   3.390   0.007  0.00  0.00    -0.077 S 
ATOM      7  C   LIG    1        5.095   2.102  -0.033  0.00  0.00    +0.037 C 
ATOM      8  C   LIG    1        1.179   1.675  -0.000  0.00  0.00    +0.085 A 
ENDROOT
BRANCH   8   9
ATOM      9  N   LIG    1       -0.011   0.966   0.007  0.00  0.00    -0.275 N 
ATOM     10  H   LIG    1        0.002  -0.004   0.002  0.00  0.00    +0.156 HD
ATOM     11  C   LIG    1       -1.187   1.624   0.017  0.00  0.00    +0.255 C 
ATOM     12  O   LIG    1       -1.204   2.841   0.023  0.00  0.00    -0.269 OA
BRANCH  11  13
ATOM     13  C   LIG    1       -2.446   0.874   0.018  0.00  0.00    +0.074 A 
ATOM     14  C   LIG    1       -3.748   1.351   0.027  0.00  0.00    +0.021 A 
ATOM     15  C   LIG    1       -4.755   0.419   0.026  0.00  0.00    +0.008 A 
ATOM     16  C   LIG    1       -4.437  -0.902   0.017  0.00  0.00    +0.046 A 
ATOM     17  S   LIG    1       -2.704  -0.891   0.002  0.00  0.00    -0.092 S 
ENDBRANCH  11  13
ENDBRANCH   8   9
BRANCH   1  19
ATOM     18  N   LIG    1        2.868  -0.923   1.153  0.00  0.00    -0.298 N 
ATOM     19  C   LIG    1        2.739  -0.259  -0.013  0.00  0.00    +0.249 C 
ATOM     20  O   LIG    1        2.842  -0.856  -1.068  0.00  0.00    -0.270 OA
BRANCH  18  22
ATOM     21  C   LIG    1        1.282  -0.214   2.874  0.00  0.00    +0.024 C 
ATOM     22  C   LIG    1        2.744  -0.203   2.423  0.00  0.00    +0.104 C 
ENDBRANCH  18  22
BRANCH  18  23
ATOM     23  C   LIG    1        3.133  -2.364   1.150  0.00  0.00    +0.104 C 
ATOM     24  C   LIG    1        4.644  -2.604   1.140  0.00  0.00    +0.024 C 
ENDBRANCH  18  23
ENDBRANCH   1  19
TORSDOF 5
