REMARK  Name = ZINC00103353
REMARK                            x       y       z     vdW  Elec       q    Type
REMARK                         _______ _______ _______ _____ _____    ______ ____
ROOT
ATOM      1  C   LIG    1        2.380   1.417  -0.035  0.00  0.00    +0.150 A 
ATOM      2  C   LIG    1        2.403   0.027  -0.044  0.00  0.00    +0.049 A 
ATOM      3  C   LIG    1        1.224  -0.683  -0.029  0.00  0.00    +0.017 A 
ATOM      4  C   LIG    1        0.002  -0.004  -0.004  0.00  0.00    +0.039 A 
ATOM      5  C   LIG    1       -0.017   1.393   0.006  0.00  0.00    +0.049 A 
ATOM      6  C   LIG    1        1.168   2.096  -0.010  0.00  0.00    +0.164 A 
ENDROOT
BRANCH   4   7
ATOM      7  C   LIG    1       -1.264  -0.761   0.012  0.00  0.00    +0.248 C 
ATOM      8  N   LIG    1       -1.244  -2.109   0.002  0.00  0.00    -0.281 N 
ATOM      9  H   LIG    1       -0.401  -2.581  -0.083  0.00  0.00    +0.155 HD
ATOM     10  O   LIG    1       -2.326  -0.169   0.033  0.00  0.00    -0.270 OA
BRANCH   8  11
ATOM     11  C   LIG    1       -2.439  -2.827   0.115  0.00  0.00    +0.036 A 
ATOM     12  C   LIG    1       -2.463  -4.034   0.800  0.00  0.00    +0.043 A 
ATOM     13  C   LIG    1       -3.646  -4.739   0.915  0.00  0.00    +0.044 A 
ATOM     14 CL   LIG    1       -3.679  -6.245   1.778  0.00  0.00    -0.083 Cl
ATOM     15  C   LIG    1       -4.804  -4.248   0.338  0.00  0.00    +0.040 A 
ATOM     16  C   LIG    1       -4.782  -3.048  -0.350  0.00  0.00    +0.044 A 
ATOM     17 CL   LIG    1       -6.237  -2.435  -1.073  0.00  0.00    -0.083 Cl
ATOM     18  C   LIG    1       -3.603  -2.336  -0.463  0.00  0.00    +0.043 A 
ENDBRANCH   8  11
ENDBRANCH   4   7
BRANCH   1  20
ATOM     19  C   LIG    1        4.755   1.353  -0.075  0.00  0.00    +0.277 C 
ATOM     20  O   LIG    1        3.545   2.113  -0.050  0.00  0.00    -0.493 OA
ENDBRANCH   1  20
BRANCH   6  21
ATOM     21  N   LIG    1        1.149   3.576   0.000  0.00  0.00    +0.010 N 
ATOM     22  O   LIG    1        0.087   4.171   0.022  0.00  0.00    -0.130 OA
BRANCH  21  23
ATOM     23  O   LIG    1        2.196   4.198  -0.013  0.00  0.00    -0.396 OA
ATOM     24  H   LIG    1        3.013   3.740  -0.030  0.00  0.00    +0.329 HD
ENDBRANCH  21  23
ENDBRANCH   6  21
TORSDOF 5
