REMARK  Name = ZINC00177887
REMARK                            x       y       z     vdW  Elec       q    Type
REMARK                         _______ _______ _______ _____ _____    ______ ____
ROOT
ATOM      1  C   LIG    1       -0.018   1.503   0.010  0.00  0.00    +0.044 C 
ATOM      2  C   LIG    1        0.002  -0.004   0.002  0.00  0.00    -0.047 A 
ATOM      3  C   LIG    1        0.006  -0.690  -1.199  0.00  0.00    +0.004 A 
ATOM      4  C   LIG    1        0.029  -2.071  -1.206  0.00  0.00    +0.008 A 
ATOM      5  C   LIG    1        0.046  -2.777  -0.013  0.00  0.00    +0.003 A 
ATOM      6  C   LIG    1        0.036  -2.092   1.189  0.00  0.00    +0.136 A 
ATOM      7  O   LIG    1        0.031  -2.742   2.385  0.00  0.00    -0.426 OA
ATOM      8  C   LIG    1        0.258  -4.071   2.373  0.00  0.00    +0.313 C 
ATOM      9  C   LIG    1       -0.398  -4.867   1.262  0.00  0.00    +0.134 C 
ATOM     10  O   LIG    1        0.950  -4.602   3.208  0.00  0.00    -0.250 OA
ATOM     11  C   LIG    1        0.082  -4.283  -0.071  0.00  0.00    +0.063 C 
ATOM     12  C   LIG    1        0.023  -0.701   1.192  0.00  0.00    +0.050 A 
ENDROOT
BRANCH  11  13
ATOM     13  C   LIG    1       -0.817  -4.763  -1.181  0.00  0.00    -0.039 A 
ATOM     14  C   LIG    1       -2.165  -4.457  -1.160  0.00  0.00    +0.004 A 
ATOM     15  C   LIG    1       -2.990  -4.897  -2.177  0.00  0.00    +0.000 A 
ATOM     16  C   LIG    1       -2.468  -5.644  -3.217  0.00  0.00    +0.000 A 
ATOM     17  C   LIG    1       -1.120  -5.950  -3.238  0.00  0.00    +0.000 A 
ATOM     18  C   LIG    1       -0.294  -5.506  -2.223  0.00  0.00    +0.004 A 
ENDBRANCH  11  13
TORSDOF 1
