REMARK  Name = ZINC00141265
REMARK                            x       y       z     vdW  Elec       q    Type
REMARK                         _______ _______ _______ _____ _____    ______ ____
ROOT
ATOM      1  C   LIG    1       -1.607   3.032  -1.394  0.00  0.00    +0.233 A 
ATOM      2  N   LIG    1       -2.467   2.369  -2.127  0.00  0.00    -0.190 NA
ATOM      3  C   LIG    1       -2.506   3.014  -3.314  0.00  0.00    +0.227 A 
ATOM      4  N   LIG    1       -1.676   4.021  -3.234  0.00  0.00    -0.054 NA
ATOM      5  O   LIG    1       -1.158   4.048  -2.138  0.00  0.00    -0.337 OA
ENDROOT
BRANCH   3   6
ATOM      6  C   LIG    1       -3.337   2.648  -4.489  0.00  0.00    +0.195 A 
ATOM      7  C   LIG    1       -3.420   3.314  -5.809  0.00  0.00    +0.191 A 
ATOM      8  N   LIG    1       -4.297   2.575  -6.447  0.00  0.00    -0.033 NA
ATOM      9  O   LIG    1       -4.670   1.680  -5.725  0.00  0.00    -0.240 OA
ATOM     10  N   LIG    1       -4.178   1.647  -4.621  0.00  0.00    -0.044 NA
BRANCH   7  11
ATOM     11  N   LIG    1       -2.740   4.439  -6.259  0.00  0.00    -0.339 N 
ATOM     12  H   LIG    1       -2.893   4.770  -7.158  0.00  0.00    +0.144 HD
ATOM     13  H   LIG    1       -2.113   4.893  -5.675  0.00  0.00    +0.144 HD
ENDBRANCH   7  11
ENDBRANCH   3   6
BRANCH   1  14
ATOM     14  C   LIG    1       -1.206   2.714   0.023  0.00  0.00    +0.141 C 
BRANCH  14  17
ATOM     15  C   LIG    1        2.220   1.048  -0.013  0.00  0.00    +0.008 A 
ATOM     16  C   LIG    1        1.300   2.079   0.001  0.00  0.00    +0.011 A 
ATOM     17  C   LIG    1       -0.022   1.781   0.012  0.00  0.00    -0.001 A 
ATOM     18  S   LIG    1        0.002  -0.004   0.002  0.00  0.00    -0.101 S 
ATOM     19  C   LIG    1        1.773  -0.232  -0.016  0.00  0.00    +0.045 A 
ENDBRANCH  14  17
ENDBRANCH   1  14
TORSDOF 4
