REMARK  Name = ZINC00291740
REMARK                            x       y       z     vdW  Elec       q    Type
REMARK                         _______ _______ _______ _____ _____    ______ ____
ROOT
ATOM      1  C   LIG    1        4.233  -0.854   1.393  0.00  0.00    +0.112 C 
ENDROOT
BRANCH   1   2
ATOM      2  C   LIG    1        5.650  -1.364   1.362  0.00  0.00    +0.309 C 
ATOM      3  O   LIG    1        6.224  -1.503   0.295  0.00  0.00    -0.251 OA
BRANCH   2   4
ATOM      4  O   LIG    1        6.223  -1.638   2.402  0.00  0.00    -0.480 OA
ATOM      5  H   LIG    1        5.782  -1.531   3.222  0.00  0.00    +0.295 HD
ENDBRANCH   2   4
ENDBRANCH   1   2
BRANCH   1   6
ATOM      6  C   LIG    1        3.721  -0.680  -0.038  0.00  0.00    +0.050 C 
BRANCH   6  10
ATOM      7  C   LIG    1       -0.143   1.140   0.040  0.00  0.00    +0.000 A 
ATOM      8  C   LIG    1        0.993   1.926   0.108  0.00  0.00    +0.000 A 
ATOM      9  C   LIG    1        2.243   1.337   0.084  0.00  0.00    +0.003 A 
ATOM     10  C   LIG    1        2.358  -0.038  -0.010  0.00  0.00    -0.047 A 
ATOM     11  C   LIG    1        1.222  -0.823  -0.078  0.00  0.00    +0.003 A 
ATOM     12  C   LIG    1       -0.028  -0.234  -0.054  0.00  0.00    +0.000 A 
ENDBRANCH   6  10
ENDBRANCH   1   6
BRANCH   1  13
ATOM     13  C   LIG    1        3.346  -1.857   2.134  0.00  0.00    +0.135 C 
BRANCH  13  14
ATOM     14  C   LIG    1        3.773  -1.936   3.577  0.00  0.00    +0.305 C 
ATOM     15  O   LIG    1        4.693  -1.260   3.972  0.00  0.00    -0.251 OA
BRANCH  14  16
ATOM     16  O   LIG    1        3.132  -2.758   4.422  0.00  0.00    -0.481 OA
ATOM     17  H   LIG    1        3.478  -2.740   5.325  0.00  0.00    +0.295 HD
ENDBRANCH  14  16
ENDBRANCH  13  14
ENDBRANCH   1  13
TORSDOF 7
