REMARK  Name = ZINC00119025
REMARK                            x       y       z     vdW  Elec       q    Type
REMARK                         _______ _______ _______ _____ _____    ______ ____
ROOT
ATOM      1  C   LIG    1       -2.739  -4.649   0.004  0.00  0.00    +0.214 A 
ATOM      2  N   LIG    1       -1.600  -5.309  -0.005  0.00  0.00    -0.101 NA
ATOM      3  N   LIG    1       -1.814  -6.575  -0.011  0.00  0.00    -0.022 NA
ATOM      4  N   LIG    1       -3.080  -6.817  -0.006  0.00  0.00    -0.038 NA
ATOM      5  N   LIG    1       -3.733  -5.572   0.009  0.00  0.00    -0.187 N 
ENDROOT
BRANCH   5   6
ATOM      6  C   LIG    1       -5.116  -5.336   0.024  0.00  0.00    +0.070 A 
ATOM      7  C   LIG    1       -5.627  -4.248   0.720  0.00  0.00    +0.031 A 
ATOM      8  C   LIG    1       -6.988  -4.015   0.734  0.00  0.00    +0.047 A 
ATOM      9  C   LIG    1       -7.845  -4.867   0.053  0.00  0.00    +0.117 A 
ATOM     10  C   LIG    1       -7.335  -5.955  -0.642  0.00  0.00    +0.047 A 
ATOM     11  C   LIG    1       -5.974  -6.185  -0.661  0.00  0.00    +0.031 A 
BRANCH   9  12
ATOM     12  O   LIG    1       -9.184  -4.638   0.067  0.00  0.00    -0.507 OA
ATOM     13  H   LIG    1       -9.494  -4.071  -0.653  0.00  0.00    +0.292 HD
ENDBRANCH   9  12
ENDBRANCH   5   6
BRANCH   1  14
ATOM     14  S   LIG    1       -2.935  -2.898   0.016  0.00  0.00    -0.076 S 
BRANCH  14  15
ATOM     15  C   LIG    1       -1.235  -2.266   0.002  0.00  0.00    +0.157 C 
BRANCH  15  16
ATOM     16  C   LIG    1       -1.259  -0.760   0.011  0.00  0.00    +0.173 C 
ATOM     17  O   LIG    1       -2.319  -0.170   0.024  0.00  0.00    -0.291 OA
BRANCH  16  24
ATOM     18  C   LIG    1       -0.017   1.395   0.010  0.00  0.00    +0.014 A 
ATOM     19  C   LIG    1        1.168   2.097   0.002  0.00  0.00    +0.039 A 
ATOM     20  C   LIG    1        2.379   1.420  -0.013  0.00  0.00    +0.123 A 
ATOM     21  F   LIG    1        3.538   2.114  -0.020  0.00  0.00    -0.205 F 
ATOM     22  C   LIG    1        2.405   0.033  -0.021  0.00  0.00    +0.039 A 
ATOM     23  C   LIG    1        1.227  -0.681  -0.014  0.00  0.00    +0.014 A 
ATOM     24  C   LIG    1        0.002  -0.004   0.002  0.00  0.00    +0.018 A 
ENDBRANCH  16  24
ENDBRANCH  15  16
ENDBRANCH  14  15
ENDBRANCH   1  14
TORSDOF 6
