REMARK  Name = ZINC00093738
REMARK                            x       y       z     vdW  Elec       q    Type
REMARK                         _______ _______ _______ _____ _____    ______ ____
ROOT
ATOM      1  C   LIG    1       -0.022   1.466   0.014  0.00  0.00    +0.154 C 
ATOM      2  N   LIG    1       -0.034   0.001   0.004  0.00  0.00    -0.291 N 
ATOM      3  C   LIG    1       -0.068  -0.817  -1.116  0.00  0.00    +0.154 A 
ATOM      4  C   LIG    1       -0.068  -2.125  -0.643  0.00  0.00    +0.172 A 
ATOM      5  N   LIG    1       -0.097  -3.165  -1.558  0.00  0.00    -0.279 N 
ATOM      6  C   LIG    1       -0.098  -4.553  -1.088  0.00  0.00    +0.155 C 
ATOM      7  C   LIG    1       -0.125  -2.902  -2.878  0.00  0.00    +0.333 A 
ATOM      8  N   LIG    1       -0.126  -1.642  -3.346  0.00  0.00    -0.262 N 
ATOM      9  C   LIG    1       -0.157  -1.409  -4.792  0.00  0.00    +0.157 C 
ATOM     10  O   LIG    1       -0.150  -3.828  -3.667  0.00  0.00    -0.246 OA
ATOM     11  N   LIG    1       -0.036  -2.068   0.689  0.00  0.00    -0.176 NA
ATOM     12  C   LIG    1       -0.098  -0.588  -2.504  0.00  0.00    +0.282 A 
ATOM     13  O   LIG    1       -0.099   0.549  -2.941  0.00  0.00    -0.265 OA
ATOM     14  C   LIG    1       -0.010  -0.813   1.083  0.00  0.00    +0.306 A 
ENDROOT
BRANCH  14  15
ATOM     15  O   LIG    1        0.032  -0.400   2.370  0.00  0.00    -0.425 OA
BRANCH  15  16
ATOM     16  C   LIG    1       -0.051  -1.343   3.345  0.00  0.00    +0.132 A 
ATOM     17  C   LIG    1       -1.239  -1.525   4.037  0.00  0.00    +0.046 A 
ATOM     18  C   LIG    1       -1.320  -2.484   5.028  0.00  0.00    +0.004 A 
ATOM     19  C   LIG    1       -0.218  -3.262   5.331  0.00  0.00    +0.000 A 
ATOM     20  C   LIG    1        0.968  -3.082   4.643  0.00  0.00    +0.004 A 
ATOM     21  C   LIG    1        1.052  -2.129   3.647  0.00  0.00    +0.046 A 
ENDBRANCH  15  16
ENDBRANCH  14  15
TORSDOF 2
