REMARK  Name = ZINC00112064
REMARK                            x       y       z     vdW  Elec       q    Type
REMARK                         _______ _______ _______ _____ _____    ______ ____
ROOT
ATOM      1  C   LIG    1        2.760  -0.782   0.015  0.00  0.00    +0.004 A 
ATOM      2  C   LIG    1        1.615  -1.298  -0.574  0.00  0.00    +0.026 A 
ATOM      3  C   LIG    1        0.447  -0.561  -0.534  0.00  0.00    +0.075 A 
ATOM      4  N   LIG    1        0.412   0.618   0.056  0.00  0.00    -0.250 NA
ATOM      5  C   LIG    1        1.481   1.140   0.626  0.00  0.00    +0.075 A 
ATOM      6  C   LIG    1        2.685   0.461   0.625  0.00  0.00    +0.026 A 
ENDROOT
BRANCH   3   7
ATOM      7  C   LIG    1       -0.803  -1.112  -1.171  0.00  0.00    +0.251 C 
BRANCH   7   8
ATOM      8  N   LIG    1       -1.608  -1.796  -0.155  0.00  0.00    -0.273 N 
ATOM      9  H   LIG    1       -1.298  -1.835   0.763  0.00  0.00    +0.258 HD
BRANCH   8  10
ATOM     10  C   LIG    1       -2.801  -2.382  -0.504  0.00  0.00    +0.341 C 
ATOM     11  N   LIG    1       -3.482  -2.985   0.461  0.00  0.00    -0.292 N 
ATOM     12  H   LIG    1       -3.111  -2.999   1.418  0.00  0.00    +0.255 HD
ATOM     13  H   LIG    1       -4.373  -3.435   0.252  0.00  0.00    +0.255 HD
BRANCH  10  14
ATOM     14  N   LIG    1       -3.240  -2.327  -1.806  0.00  0.00    -0.292 N 
ATOM     15  H   LIG    1       -4.082  -2.740  -2.052  0.00  0.00    +0.255 HD
ATOM     16  H   LIG    1       -2.707  -1.874  -2.478  0.00  0.00    +0.255 HD
ENDBRANCH  10  14
ENDBRANCH   8  10
ENDBRANCH   7   8
ENDBRANCH   3   7
BRANCH   5  17
ATOM     17  C   LIG    1        1.388   2.491   1.286  0.00  0.00    +0.251 C 
BRANCH  17  18
ATOM     18  N   LIG    1        1.581   3.540   0.281  0.00  0.00    -0.273 N 
ATOM     19  H   LIG    1        1.739   3.300  -0.646  0.00  0.00    +0.258 HD
BRANCH  18  20
ATOM     20  C   LIG    1        1.538   4.863   0.651  0.00  0.00    +0.341 C 
ATOM     21  N   LIG    1        1.720   5.763  -0.305  0.00  0.00    -0.292 N 
ATOM     22  H   LIG    1        1.884   5.458  -1.272  0.00  0.00    +0.255 HD
ATOM     23  H   LIG    1        1.698   6.757  -0.081  0.00  0.00    +0.255 HD
BRANCH  20  24
ATOM     24  N   LIG    1        1.315   5.203   1.964  0.00  0.00    -0.292 N 
ATOM     25  H   LIG    1        1.285   6.136   2.225  0.00  0.00    +0.255 HD
ATOM     26  H   LIG    1        1.187   4.508   2.629  0.00  0.00    +0.255 HD
ENDBRANCH  20  24
ENDBRANCH  18  20
ENDBRANCH  17  18
ENDBRANCH   5  17
TORSDOF 8
