REMARK  Name = ZINC00205303
REMARK                            x       y       z     vdW  Elec       q    Type
REMARK                         _______ _______ _______ _____ _____    ______ ____
ROOT
ATOM      1  C   LIG    1       -1.364   3.536   2.413  0.00  0.00    +0.129 C 
ATOM      2  N   LIG    1       -2.455   4.354   2.285  0.00  0.00    -0.274 NA
ATOM      3  H   LIG    1       -2.805   4.581   1.377  0.00  0.00    +0.126 HD
ATOM      4  C   LIG    1       -2.987   4.804   3.455  0.00  0.00    +0.194 C 
ATOM      5  N   LIG    1       -2.520   4.502   4.657  0.00  0.00    -0.274 NA
ATOM      6  H   LIG    1       -2.283   5.385   5.108  0.00  0.00    +0.126 HD
ATOM      7  C   LIG    1       -1.461   3.708   4.796  0.00  0.00    +0.124 C 
ATOM      8  C   LIG    1       -0.848   3.191   3.658  0.00  0.00    +0.069 C 
ENDROOT
BRANCH   1  14
ATOM      9  C   LIG    1       -0.109   1.057  -2.412  0.00  0.00    -0.096 C 
ATOM     10  N   LIG    1       -0.751   1.564  -1.180  0.00  0.00    +0.379 N 
ATOM     11  H   LIG    1       -1.715   1.213  -1.138  0.00  0.00    -0.082 HD
ATOM     12  C   LIG    1       -0.777   3.042  -1.196  0.00  0.00    -0.064 C 
ATOM     13  C   LIG    1       -1.495   3.536   0.062  0.00  0.00    +0.067 C 
ATOM     14  N   LIG    1       -0.783   3.048   1.252  0.00  0.00    -0.291 NA
ATOM     15  C   LIG    1       -0.730   1.580   1.267  0.00  0.00    +0.067 C 
ATOM     16  C   LIG    1       -0.013   1.086   0.008  0.00  0.00    -0.064 C 
ENDBRANCH   1  14
BRANCH   4  17
ATOM     17  N   LIG    1       -4.091   5.633   3.350  0.00  0.00    -0.303 NA
ATOM     18  H   LIG    1       -4.511   5.984   4.151  0.00  0.00    +0.121 HD
ATOM     19  H   LIG    1       -4.443   5.864   2.477  0.00  0.00    +0.121 HD
ENDBRANCH   4  17
BRANCH   7  20
ATOM     20  N   LIG    1       -0.978   3.395   6.057  0.00  0.00    -0.315 NA
ATOM     21  H   LIG    1       -0.206   2.816   6.151  0.00  0.00    +0.120 HD
ATOM     22  H   LIG    1       -1.413   3.756   6.846  0.00  0.00    +0.120 HD
ENDBRANCH   7  20
TORSDOF 3
