REMARK  Name = ZINC00217279
REMARK                            x       y       z     vdW  Elec       q    Type
REMARK                         _______ _______ _______ _____ _____    ______ ____
ROOT
ATOM      1  C   LIG    1        2.734  -6.719   1.653  0.00  0.00    +0.109 C 
ATOM      2  C   LIG    1        3.504  -5.483   1.263  0.00  0.00    +0.213 C 
ATOM      3  N   LIG    1        3.004  -4.642   0.336  0.00  0.00    -0.289 N 
ATOM      4  C   LIG    1        1.708  -4.912  -0.306  0.00  0.00    +0.113 C 
ATOM      5  C   LIG    1        0.722  -3.802   0.077  0.00  0.00    +0.056 C 
ATOM      6  C   LIG    1        1.412  -2.469  -0.055  0.00  0.00    -0.015 A 
ATOM      7  C   LIG    1        0.795  -1.148  -0.141  0.00  0.00    +0.003 A 
ATOM      8  C   LIG    1       -0.522  -0.685  -0.139  0.00  0.00    +0.010 A 
ATOM      9  C   LIG    1       -0.772   0.655  -0.234  0.00  0.00    +0.001 A 
ATOM     10  C   LIG    1        0.274   1.562  -0.332  0.00  0.00    +0.002 A 
ATOM     11  C   LIG    1        1.581   1.128  -0.337  0.00  0.00    +0.026 A 
ATOM     12  C   LIG    1        1.859  -0.232  -0.242  0.00  0.00    +0.047 A 
ATOM     13  N   LIG    1        3.029  -0.960  -0.221  0.00  0.00    -0.356 N 
ATOM     14  H   LIG    1        3.921  -0.583  -0.277  0.00  0.00    +0.166 HD
ATOM     15  C   LIG    1        2.746  -2.291  -0.111  0.00  0.00    +0.046 A 
ATOM     16  C   LIG    1        3.741  -3.429  -0.058  0.00  0.00    +0.153 C 
ATOM     17  O   LIG    1        4.574  -5.246   1.782  0.00  0.00    -0.276 OA
ENDROOT
BRANCH  16  18
ATOM     18  C   LIG    1        4.364  -3.628  -1.416  0.00  0.00    -0.018 A 
ATOM     19  C   LIG    1        5.740  -3.618  -1.553  0.00  0.00    +0.006 A 
ATOM     20  C   LIG    1        6.314  -3.801  -2.797  0.00  0.00    +0.004 A 
ATOM     21  C   LIG    1        5.515  -3.992  -3.907  0.00  0.00    +0.045 A 
ATOM     22  C   LIG    1        4.134  -4.002  -3.773  0.00  0.00    +0.117 A 
ATOM     23  C   LIG    1        3.560  -3.825  -2.522  0.00  0.00    +0.051 A 
BRANCH  22  24
ATOM     24  O   LIG    1        3.345  -4.191  -4.863  0.00  0.00    -0.507 OA
ATOM     25  H   LIG    1        3.136  -5.118  -5.042  0.00  0.00    +0.292 HD
ENDBRANCH  22  24
ENDBRANCH  16  18
TORSDOF 2
