REMARK  Name = ZINC00152092
REMARK                            x       y       z     vdW  Elec       q    Type
REMARK                         _______ _______ _______ _____ _____    ______ ____
ROOT
ATOM      1  C   LIG    1        2.561  -2.724  -0.042  0.00  0.00    +0.249 C 
ATOM      2  N   LIG    1        3.717  -2.032  -0.046  0.00  0.00    -0.266 N 
ATOM      3  H   LIG    1        3.702  -1.064  -0.111  0.00  0.00    +0.157 HD
ATOM      4  O   LIG    1        2.580  -3.940  -0.054  0.00  0.00    -0.270 OA
ENDROOT
BRANCH   2   5
ATOM      5  C   LIG    1        4.931  -2.705   0.043  0.00  0.00    +0.126 A 
ATOM      6  C   LIG    1        6.117  -1.965   0.146  0.00  0.00    +0.044 A 
ATOM      7  C   LIG    1        7.314  -2.611   0.234  0.00  0.00    +0.013 A 
ATOM      8  C   LIG    1        7.315  -4.020   0.219  0.00  0.00    +0.001 A 
ATOM      9  C   LIG    1        8.511  -4.748   0.307  0.00  0.00    +0.010 A 
ATOM     10  C   LIG    1        8.474  -6.110   0.290  0.00  0.00    +0.001 A 
ATOM     11  C   LIG    1        7.263  -6.790   0.186  0.00  0.00    +0.002 A 
ATOM     12  C   LIG    1        6.084  -6.115   0.099  0.00  0.00    +0.028 A 
ATOM     13  C   LIG    1        6.082  -4.709   0.114  0.00  0.00    +0.073 A 
ATOM     14  N   LIG    1        4.938  -4.021   0.035  0.00  0.00    -0.232 NA
ENDBRANCH   2   5
BRANCH   1  18
ATOM     15  C   LIG    1       -1.151  -0.660   0.015  0.00  0.00    +0.000 A 
ATOM     16  C   LIG    1       -1.132  -2.044   0.000  0.00  0.00    +0.001 A 
ATOM     17  C   LIG    1        0.070  -2.720  -0.018  0.00  0.00    +0.013 A 
ATOM     18  C   LIG    1        1.269  -2.006  -0.022  0.00  0.00    +0.037 A 
ATOM     19  C   LIG    1        1.243  -0.611  -0.008  0.00  0.00    +0.013 A 
ATOM     20  C   LIG    1        0.034   0.054   0.011  0.00  0.00    +0.001 A 
ENDBRANCH   1  18
TORSDOF 2
