REMARK  Name = ZINC00206268
REMARK                            x       y       z     vdW  Elec       q    Type
REMARK                         _______ _______ _______ _____ _____    ______ ____
ROOT
ATOM      1  C   LIG    1        0.707  -0.490  -1.238  0.00  0.00    -0.047 A 
ATOM      2  C   LIG    1       -0.009  -0.719  -2.398  0.00  0.00    +0.005 A 
ATOM      3  C   LIG    1        0.631  -1.165  -3.535  0.00  0.00    +0.024 A 
ATOM      4  C   LIG    1        2.006  -1.388  -3.525  0.00  0.00    +0.040 A 
ATOM      5  C   LIG    1        2.719  -1.153  -2.350  0.00  0.00    +0.018 A 
ATOM      6  C   LIG    1        4.141  -1.482  -2.675  0.00  0.00    +0.203 C 
ATOM      7  N   LIG    1        4.739  -2.459  -1.767  0.00  0.00    -0.239 N 
ATOM      8  H   LIG    1        4.389  -3.357  -1.662  0.00  0.00    +0.170 HD
ATOM      9  N   LIG    1        5.843  -2.003  -1.070  0.00  0.00    -0.178 NA
ATOM     10  C   LIG    1        6.321  -0.799  -1.205  0.00  0.00    +0.124 C 
ATOM     11  C   LIG    1        4.145  -1.915  -4.108  0.00  0.00    +0.257 C 
ATOM     12  O   LIG    1        5.106  -2.270  -4.758  0.00  0.00    -0.272 OA
ATOM     13  S   LIG    1        5.239  -0.042  -2.411  0.00  0.00    -0.063 S 
ATOM     14  N   LIG    1        2.866  -1.833  -4.532  0.00  0.00    -0.282 N 
ATOM     15  H   LIG    1        2.578  -2.057  -5.431  0.00  0.00    +0.155 HD
ATOM     16  C   LIG    1        2.074  -0.703  -1.220  0.00  0.00    +0.012 A 
ENDROOT
BRANCH  10  17
ATOM     17  C   LIG    1        7.486  -0.198  -0.521  0.00  0.00    +0.008 A 
ATOM     18  C   LIG    1        7.852   1.122  -0.789  0.00  0.00    +0.010 A 
ATOM     19  C   LIG    1        8.940   1.677  -0.147  0.00  0.00    +0.001 A 
ATOM     20  C   LIG    1        9.668   0.927   0.760  0.00  0.00    +0.000 A 
ATOM     21  C   LIG    1        9.311  -0.382   1.029  0.00  0.00    +0.001 A 
ATOM     22  C   LIG    1        8.222  -0.947   0.399  0.00  0.00    +0.010 A 
ENDBRANCH  10  17
BRANCH   1  24
ATOM     23  C   LIG    1       -0.019   1.526   0.010  0.00  0.00    +0.009 C 
ATOM     24  C   LIG    1        0.002  -0.004   0.002  0.00  0.00    +0.032 C 
ENDBRANCH   1  24
TORSDOF 2
