REMARK  Name = ZINC00134647
REMARK                            x       y       z     vdW  Elec       q    Type
REMARK                         _______ _______ _______ _____ _____    ______ ____
ROOT
ATOM      1  C   LIG    1        0.002  -0.004   0.002  0.00  0.00    +0.026 C 
ATOM      2  C   LIG    1       -1.177  -0.710   0.114  0.00  0.00    +0.102 C 
ATOM      3  C   LIG    1       -2.549  -0.167   0.146  0.00  0.00    +0.266 C 
ATOM      4  N   LIG    1       -3.382  -1.218   0.264  0.00  0.00    -0.223 N 
ATOM      5  H   LIG    1       -4.349  -1.154   0.310  0.00  0.00    +0.174 HD
ATOM      6  N   LIG    1       -2.663  -2.412   0.312  0.00  0.00    -0.184 N 
ATOM      7  O   LIG    1       -2.866   1.005   0.079  0.00  0.00    -0.268 OA
ATOM      8  C   LIG    1       -1.341  -2.173   0.220  0.00  0.00    +0.272 C 
ATOM      9  O   LIG    1       -0.452  -3.003   0.227  0.00  0.00    -0.268 OA
ENDROOT
BRANCH   6  10
ATOM     10  C   LIG    1       -3.235  -3.683   0.432  0.00  0.00    +0.058 A 
ATOM     11  C   LIG    1       -4.615  -3.819   0.514  0.00  0.00    +0.027 A 
ATOM     12  C   LIG    1       -5.179  -5.074   0.633  0.00  0.00    +0.023 A 
ATOM     13  C   LIG    1       -4.370  -6.197   0.671  0.00  0.00    +0.059 A 
ATOM     14 CL   LIG    1       -5.081  -7.773   0.822  0.00  0.00    -0.082 Cl
ATOM     15  C   LIG    1       -2.994  -6.064   0.590  0.00  0.00    +0.061 A 
ATOM     16 CL   LIG    1       -1.982  -7.474   0.637  0.00  0.00    -0.082 Cl
ATOM     17  C   LIG    1       -2.425  -4.810   0.465  0.00  0.00    +0.046 A 
ENDBRANCH   6  10
BRANCH   1  23
ATOM     18  C   LIG    1       -0.972   1.964  -1.160  0.00  0.00    +0.011 A 
ATOM     19  C   LIG    1       -1.000   3.308  -1.402  0.00  0.00    +0.046 A 
ATOM     20  C   LIG    1       -0.088   4.150  -0.774  0.00  0.00    +0.117 A 
ATOM     21  C   LIG    1        0.854   3.630   0.109  0.00  0.00    +0.046 A 
ATOM     22  C   LIG    1        0.888   2.289   0.363  0.00  0.00    +0.011 A 
ATOM     23  C   LIG    1       -0.029   1.434  -0.267  0.00  0.00    -0.024 A 
BRANCH  20  24
ATOM     24  O   LIG    1       -0.116   5.483  -1.023  0.00  0.00    -0.507 OA
ATOM     25  H   LIG    1        0.441   5.756  -1.765  0.00  0.00    +0.292 HD
ENDBRANCH  20  24
ENDBRANCH   1  23
TORSDOF 3
