REMARK  Name = ZINC00228765
REMARK                            x       y       z     vdW  Elec       q    Type
REMARK                         _______ _______ _______ _____ _____    ______ ____
ROOT
ATOM      1  C   LIG    1        2.462   0.334   4.204  0.00  0.00    +0.187 C 
ATOM      2  N   LIG    1        2.942   1.613   3.652  0.00  0.00    -0.322 N 
ATOM      3  H   LIG    1        2.471   2.442   3.828  0.00  0.00    +0.148 HD
ATOM      4  C   LIG    1        4.096   1.595   2.867  0.00  0.00    +0.038 A 
ATOM      5  C   LIG    1        4.348   2.564   1.924  0.00  0.00    +0.023 A 
ATOM      6  C   LIG    1        5.512   2.517   1.159  0.00  0.00    +0.002 A 
ATOM      7  C   LIG    1        6.427   1.520   1.321  0.00  0.00    +0.009 A 
ATOM      8  C   LIG    1        6.205   0.511   2.274  0.00  0.00    -0.014 A 
ATOM      9  C   LIG    1        7.119  -0.539   2.473  0.00  0.00    +0.009 A 
ATOM     10  C   LIG    1        6.860  -1.499   3.405  0.00  0.00    +0.002 A 
ATOM     11  C   LIG    1        5.700  -1.467   4.177  0.00  0.00    +0.023 A 
ATOM     12  C   LIG    1        4.784  -0.455   4.012  0.00  0.00    +0.038 A 
ATOM     13  C   LIG    1        5.027   0.551   3.053  0.00  0.00    +0.024 A 
ATOM     14  N   LIG    1        3.614  -0.389   4.771  0.00  0.00    -0.322 N 
ATOM     15  H   LIG    1        3.562  -0.805   5.646  0.00  0.00    +0.148 HD
ENDROOT
BRANCH   1  18
ATOM     16  C   LIG    1        0.626  -0.619   1.042  0.00  0.00    +0.162 A 
ATOM     17  C   LIG    1        1.202   0.137   2.051  0.00  0.00    +0.056 A 
ATOM     18  C   LIG    1        1.836  -0.490   3.108  0.00  0.00    -0.006 A 
ATOM     19  C   LIG    1        1.897  -1.870   3.161  0.00  0.00    +0.011 A 
ATOM     20  C   LIG    1        1.325  -2.630   2.158  0.00  0.00    +0.049 A 
ATOM     21  C   LIG    1        0.683  -2.008   1.099  0.00  0.00    +0.158 A 
BRANCH  16  23
ATOM     22  C   LIG    1       -0.017   1.425   0.010  0.00  0.00    +0.277 C 
ATOM     23  O   LIG    1        0.002  -0.004   0.002  0.00  0.00    -0.491 OA
ENDBRANCH  16  23
BRANCH  21  24
ATOM     24  O   LIG    1        0.115  -2.754   0.114  0.00  0.00    -0.503 OA
ATOM     25  H   LIG    1        0.711  -2.957  -0.620  0.00  0.00    +0.292 HD
ENDBRANCH  21  24
ENDBRANCH   1  18
TORSDOF 3
