REMARK  Name = ZINC00088330
REMARK                            x       y       z     vdW  Elec       q    Type
REMARK                         _______ _______ _______ _____ _____    ______ ____
ROOT
ATOM      1  C   LIG    1       -2.490   4.026   0.029  0.00  0.00    +0.164 A 
ATOM      2  N   LIG    1       -1.344   3.372   0.019  0.00  0.00    -0.223 NA
ATOM      3  C   LIG    1       -1.311   2.041   0.000  0.00  0.00    +0.098 A 
ATOM      4  C   LIG    1       -2.486   1.343   0.002  0.00  0.00    +0.078 A 
ATOM      5  S   LIG    1       -3.670   2.684   0.025  0.00  0.00    -0.060 S 
ENDROOT
BRANCH   3   6
ATOM      6  C   LIG    1       -0.014   1.325  -0.017  0.00  0.00    +0.090 A 
ATOM      7  C   LIG    1        1.177   2.050  -0.025  0.00  0.00    +0.030 A 
ATOM      8  C   LIG    1        2.379   1.366  -0.047  0.00  0.00    +0.004 A 
ATOM      9  C   LIG    1        2.353  -0.022  -0.060  0.00  0.00    +0.020 A 
ATOM     10  C   LIG    1        1.136  -0.677  -0.051  0.00  0.00    +0.111 A 
ATOM     11  N   LIG    1        0.004  -0.003  -0.030  0.00  0.00    -0.253 NA
ENDBRANCH   3   6
BRANCH   1  12
ATOM     12  N   LIG    1       -2.719   5.394   0.044  0.00  0.00    -0.279 N 
ATOM     13  H   LIG    1       -1.973   6.010   0.122  0.00  0.00    +0.155 HD
BRANCH  12  19
ATOM     14  C   LIG    1       -5.804   9.205  -0.349  0.00  0.00    +0.044 C 
ATOM     15  C   LIG    1       -5.529   7.727  -0.243  0.00  0.00    -0.046 A 
ATOM     16  C   LIG    1       -6.571   6.809  -0.240  0.00  0.00    +0.023 A 
ATOM     17  C   LIG    1       -6.285   5.462  -0.142  0.00  0.00    +0.113 A 
ATOM     18  N   LIG    1       -5.038   5.040  -0.057  0.00  0.00    -0.240 NA
ATOM     19  C   LIG    1       -4.018   5.883  -0.052  0.00  0.00    +0.125 A 
ATOM     20  C   LIG    1       -4.233   7.255  -0.148  0.00  0.00    +0.047 A 
ENDBRANCH  12  19
ENDBRANCH   1  12
TORSDOF 3
