REMARK  Name = ZINC00155905
REMARK                            x       y       z     vdW  Elec       q    Type
REMARK                         _______ _______ _______ _____ _____    ______ ____
ROOT
ATOM      1  C   LIG    1       -0.222   1.232   2.431  0.00  0.00    +0.226 C 
ATOM      2  N   LIG    1       -0.698   1.558   1.213  0.00  0.00    -0.304 N 
ATOM      3  H   LIG    1       -1.495   2.106   1.135  0.00  0.00    +0.149 HD
ATOM      4  O   LIG    1        0.774   0.548   2.529  0.00  0.00    -0.275 OA
ENDROOT
BRANCH   1   6
ATOM      5  C   LIG    1        0.104   2.015   4.761  0.00  0.00    +0.028 C 
ATOM      6  C   LIG    1       -0.927   1.718   3.671  0.00  0.00    +0.126 C 
BRANCH   6   7
ATOM      7  S   LIG    1       -2.074   0.440   4.255  0.00  0.00    -0.166 S 
ATOM      8  H   LIG    1       -1.282  -0.618   4.504  0.00  0.00    +0.102 HD
ENDBRANCH   6   7
ENDBRANCH   1   6
BRANCH   2   9
ATOM      9  C   LIG    1       -0.013   1.086   0.008  0.00  0.00    +0.224 C 
BRANCH   9  10
ATOM     10  C   LIG    1       -0.742   1.585  -1.213  0.00  0.00    +0.322 C 
ATOM     11  O   LIG    1       -1.732   2.266  -1.089  0.00  0.00    -0.249 OA
BRANCH  10  12
ATOM     12  O   LIG    1       -0.290   1.274  -2.438  0.00  0.00    -0.480 OA
ATOM     13  H   LIG    1        0.478   0.746  -2.534  0.00  0.00    +0.295 HD
ENDBRANCH  10  12
ENDBRANCH   9  10
ENDBRANCH   2   9
TORSDOF 5
