REMARK  Name = ZINC00145536
REMARK                            x       y       z     vdW  Elec       q    Type
REMARK                         _______ _______ _______ _____ _____    ______ ____
ROOT
ATOM      1  C   LIG    1       -0.016   1.360   0.009  0.00  0.00    +0.001 A 
ATOM      2  C   LIG    1        1.170   2.084   0.002  0.00  0.00    +0.002 A 
ATOM      3  C   LIG    1        2.386   1.439  -0.013  0.00  0.00    +0.026 A 
ATOM      4  C   LIG    1        2.431   0.047  -0.021  0.00  0.00    +0.047 A 
ATOM      5  C   LIG    1        1.227  -0.685  -0.013  0.00  0.00    +0.000 A 
ATOM      6  C   LIG    1        1.577  -2.055  -0.025  0.00  0.00    +0.042 A 
ATOM      7  CA  LIG    1        2.935  -2.137  -0.038  0.00  0.00    +0.125 A 
ATOM      8  N   LIG    1        3.464  -0.859  -0.036  0.00  0.00    -0.349 N 
ATOM      9  H   LIG    1        4.409  -0.639  -0.045  0.00  0.00    +0.166 HD
ATOM     10  C   LIG    1        0.002  -0.004   0.002  0.00  0.00    +0.010 A 
ENDROOT
BRANCH   7  11
ATOM     11  C   LIG    1        3.713  -3.379  -0.053  0.00  0.00    +0.353 C 
ATOM     12  O   LIG    1        4.936  -3.336  -0.065  0.00  0.00    -0.243 OA
BRANCH  11  13
ATOM     13  OXT LIG    1        3.139  -4.461  -0.054  0.00  0.00    -0.476 OA
ATOM     14  HXT LIG    1        2.203  -4.494  -0.045  0.00  0.00    +0.295 HD
ENDBRANCH  11  13
ENDBRANCH   7  11
TORSDOF 2
