REMARK  Name = ZINC00159755
REMARK                            x       y       z     vdW  Elec       q    Type
REMARK                         _______ _______ _______ _____ _____    ______ ____
ROOT
ATOM      1  C   LIG    1        0.238   0.332  -0.018  0.00  0.00    +0.327 C 
ATOM      2  N   LIG    1        1.184  -0.590  -0.122  0.00  0.00    -0.295 N 
ATOM      3  H   LIG    1        2.167  -0.309  -0.218  0.00  0.00    +0.254 HD
ATOM      4  H   LIG    1        0.936  -1.580  -0.106  0.00  0.00    +0.254 HD
ENDROOT
BRANCH   1   8
ATOM      5  C   LIG    1        1.417   4.169   0.971  0.00  0.00    +0.006 C 
ATOM      6  C   LIG    1        2.357   2.966   1.079  0.00  0.00    +0.035 C 
ATOM      7  C   LIG    1        2.067   1.992  -0.068  0.00  0.00    +0.187 C 
ATOM      8  N   LIG    1        0.640   1.646  -0.046  0.00  0.00    -0.228 N 
ATOM      9  C   LIG    1       -0.351   2.732  -0.061  0.00  0.00    +0.187 C 
ATOM     10  C   LIG    1       -0.034   3.697   1.091  0.00  0.00    +0.035 C 
ENDBRANCH   1   8
BRANCH   1  11
ATOM     11  N   LIG    1       -1.095   0.023   0.112  0.00  0.00    -0.254 N 
ATOM     12  H   LIG    1       -1.372  -0.901   0.210  0.00  0.00    +0.241 HD
ATOM     13  H   LIG    1       -1.760   0.730   0.107  0.00  0.00    +0.241 HD
ENDBRANCH   1  11
TORSDOF 2
