REMARK  Name = ZINC00091556
REMARK                            x       y       z     vdW  Elec       q    Type
REMARK                         _______ _______ _______ _____ _____    ______ ____
ROOT
ATOM      1  N   LIG    1        3.621  -0.650  -0.037  0.00  0.00    -0.282 N 
ATOM      2  H   LIG    1        3.638  -1.617   0.034  0.00  0.00    +0.155 HD
ATOM      3  C   LIG    1        4.775   0.038  -0.146  0.00  0.00    +0.248 C 
ATOM      4  O   LIG    1        4.761   1.253  -0.139  0.00  0.00    -0.270 OA
ENDROOT
BRANCH   3   5
ATOM      5  C   LIG    1        6.057  -0.685  -0.275  0.00  0.00    +0.038 A 
ATOM      6  C   LIG    1        6.077  -2.082  -0.278  0.00  0.00    +0.014 A 
ATOM      7  C   LIG    1        7.275  -2.752  -0.405  0.00  0.00    +0.022 A 
ATOM      8  C   LIG    1        8.460  -2.043  -0.516  0.00  0.00    +0.059 A 
ATOM      9 CL   LIG    1        9.965  -2.894  -0.667  0.00  0.00    -0.082 Cl
ATOM     10  C   LIG    1        8.448  -0.657  -0.508  0.00  0.00    +0.060 A 
ATOM     11 CL   LIG    1        9.938   0.223  -0.648  0.00  0.00    -0.082 Cl
ATOM     12  C   LIG    1        7.254   0.024  -0.388  0.00  0.00    +0.034 A 
ENDBRANCH   3   5
BRANCH   1  16
ATOM     13  C   LIG    1       -0.018   1.377  -0.008  0.00  0.00    +0.000 A 
ATOM     14  C   LIG    1        1.037   1.863  -0.758  0.00  0.00    +0.002 A 
ATOM     15  C   LIG    1        2.245   1.194  -0.769  0.00  0.00    +0.023 A 
ATOM     16  C   LIG    1        2.399   0.031  -0.027  0.00  0.00    +0.034 A 
ATOM     17  C   LIG    1        1.338  -0.456   0.725  0.00  0.00    +0.023 A 
ATOM     18  C   LIG    1        0.133   0.219   0.733  0.00  0.00    +0.002 A 
ENDBRANCH   1  16
TORSDOF 2
