REMARK  Name = ZINC00115374
REMARK                            x       y       z     vdW  Elec       q    Type
REMARK                         _______ _______ _______ _____ _____    ______ ____
ROOT
ATOM      1  C   LIG    1        1.371   5.365  -0.435  0.00  0.00    +0.133 C 
ATOM      2  N   LIG    1        0.882   4.029  -0.087  0.00  0.00    -0.288 N 
ATOM      3  C   LIG    1        1.756   3.050   0.222  0.00  0.00    +0.339 C 
ATOM      4  N   LIG    1        1.311   1.803   0.471  0.00  0.00    -0.157 N 
ATOM      5  C   LIG    1        2.072   0.692   0.695  0.00  0.00    +0.196 A 
ATOM      6  N   LIG    1        1.257  -0.320   0.896  0.00  0.00    -0.200 NA
ATOM      7  C   LIG    1       -0.015   0.100   0.810  0.00  0.00    +0.183 A 
ATOM      8  N   LIG    1       -0.028   1.387   0.553  0.00  0.00    -0.140 NA
ATOM      9  O   LIG    1        2.946   3.293   0.275  0.00  0.00    -0.247 OA
ATOM     10  C   LIG    1       -0.557   3.756  -0.074  0.00  0.00    +0.133 C 
ENDROOT
BRANCH   7  11
ATOM     11  C   LIG    1       -1.215  -0.755   0.980  0.00  0.00    +0.021 A 
ATOM     12  C   LIG    1       -2.489  -0.201   0.873  0.00  0.00    +0.013 A 
ATOM     13  C   LIG    1       -3.603  -1.001   1.026  0.00  0.00    +0.021 A 
ATOM     14  C   LIG    1       -3.456  -2.351   1.297  0.00  0.00    +0.041 A 
ATOM     15 CL   LIG    1       -4.860  -3.352   1.495  0.00  0.00    -0.084 Cl
ATOM     16  C   LIG    1       -2.192  -2.906   1.409  0.00  0.00    +0.021 A 
ATOM     17  C   LIG    1       -1.072  -2.115   1.252  0.00  0.00    +0.013 A 
ENDBRANCH   7  11
BRANCH   5  18
ATOM     18  S   LIG    1        3.833   0.625   0.711  0.00  0.00    -0.089 S 
ATOM     19  C   LIG    1        4.078  -1.133   1.064  0.00  0.00    +0.093 C 
ENDBRANCH   5  18
TORSDOF 2
