REMARK  Name = ZINC00236100
REMARK                            x       y       z     vdW  Elec       q    Type
REMARK                         _______ _______ _______ _____ _____    ______ ____
ROOT
ATOM      1  C   LIG    1        3.692  -0.700  -0.044  0.00  0.00    +0.215 C 
ENDROOT
BRANCH   1   5
ATOM      2  C   LIG    1        0.104   1.619  -0.105  0.00  0.00    +0.000 A 
ATOM      3  C   LIG    1        1.334   2.249  -0.061  0.00  0.00    +0.000 A 
ATOM      4  C   LIG    1        2.495   1.499  -0.041  0.00  0.00    +0.006 A 
ATOM      5  C   LIG    1        2.426   0.118  -0.065  0.00  0.00    -0.012 A 
ATOM      6  C   LIG    1        1.196  -0.512  -0.108  0.00  0.00    +0.006 A 
ATOM      7  C   LIG    1        0.036   0.239  -0.129  0.00  0.00    +0.000 A 
ENDBRANCH   1   5
BRANCH   1   8
ATOM      8  O   LIG    1        3.510  -1.837   0.802  0.00  0.00    -0.379 OA
ATOM      9  H   LIG    1        2.795  -2.425   0.523  0.00  0.00    +0.211 HD
ENDBRANCH   1   8
BRANCH   1  10
ATOM     10  C   LIG    1        4.014  -1.161  -1.442  0.00  0.00    +0.196 C 
ATOM     11  O   LIG    1        3.729  -2.287  -1.791  0.00  0.00    -0.289 OA
BRANCH  10  12
ATOM     12  C   LIG    1        4.676  -0.244  -2.385  0.00  0.00    +0.020 A 
ATOM     13  C   LIG    1        5.123   1.008  -1.951  0.00  0.00    +0.011 A 
ATOM     14  C   LIG    1        5.742   1.861  -2.840  0.00  0.00    +0.001 A 
ATOM     15  C   LIG    1        5.921   1.481  -4.159  0.00  0.00    +0.000 A 
ATOM     16  C   LIG    1        5.481   0.244  -4.596  0.00  0.00    +0.001 A 
ATOM     17  C   LIG    1        4.865  -0.623  -3.718  0.00  0.00    +0.011 A 
ENDBRANCH  10  12
ENDBRANCH   1  10
TORSDOF 4
