REMARK  Name = ZINC00087515
REMARK                            x       y       z     vdW  Elec       q    Type
REMARK                         _______ _______ _______ _____ _____    ______ ____
ROOT
ATOM      1  C   LIG    1       -4.330   1.560   4.190  0.00  0.00    +0.074 C 
ATOM      2  C   LIG    1       -2.966   1.132   3.644  0.00  0.00    +0.166 C 
ATOM      3  C   LIG    1       -1.916   1.203   4.755  0.00  0.00    +0.074 C 
ATOM      4  O   LIG    1       -3.046  -0.228   3.127  0.00  0.00    -0.341 OA
ATOM      5  C   LIG    1       -2.510  -0.141   1.839  0.00  0.00    +0.186 C 
ATOM      6  C   LIG    1       -2.956  -0.900   0.613  0.00  0.00    +0.178 C 
ATOM      7  O   LIG    1       -2.572  -0.011  -0.478  0.00  0.00    -0.346 OA
ATOM      8  C   LIG    1       -2.521   1.354   0.020  0.00  0.00    +0.254 C 
ATOM      9  C   LIG    1       -3.046   1.289   1.427  0.00  0.00    +0.202 C 
ATOM     10  O   LIG    1       -2.578   2.007   2.539  0.00  0.00    -0.339 OA
ENDROOT
BRANCH   8  11
ATOM     11  N   LIG    1       -1.139   1.843   0.017  0.00  0.00    -0.286 N 
ATOM     12  C   LIG    1       -0.013   1.076   0.008  0.00  0.00    +0.203 A 
ATOM     13  N   LIG    1        1.043   1.837   0.002  0.00  0.00    -0.231 NA
ATOM     14  C   LIG    1        0.662   3.137   0.012  0.00  0.00    +0.147 A 
ATOM     15  C   LIG    1        1.342   4.366   0.011  0.00  0.00    +0.147 A 
ATOM     16  N   LIG    1        0.626   5.486   0.024  0.00  0.00    -0.219 NA
ATOM     17  C   LIG    1       -0.694   5.454   0.036  0.00  0.00    +0.225 A 
ATOM     18  N   LIG    1       -1.373   4.326   0.037  0.00  0.00    -0.216 NA
ATOM     19  C   LIG    1       -0.743   3.156   0.025  0.00  0.00    +0.167 A 
BRANCH  15  20
ATOM     20  N   LIG    1        2.725   4.410  -0.001  0.00  0.00    -0.341 N 
ATOM     21  H   LIG    1        3.183   5.265  -0.001  0.00  0.00    +0.144 HD
ATOM     22  H   LIG    1        3.081   3.946   0.810  0.00  0.00    +0.144 HD
ENDBRANCH  15  20
ENDBRANCH   8  11
BRANCH   6  23
ATOM     23  C   LIG    1       -2.220  -2.237   0.505  0.00  0.00    +0.190 C 
BRANCH  23  24
ATOM     24  O   LIG    1       -2.744  -2.982  -0.596  0.00  0.00    -0.392 OA
ATOM     25  H   LIG    1       -2.323  -3.843  -0.724  0.00  0.00    +0.210 HD
ENDBRANCH  23  24
ENDBRANCH   6  23
TORSDOF 4
