REMARK  Name = ZINC00304714
REMARK                            x       y       z     vdW  Elec       q    Type
REMARK                         _______ _______ _______ _____ _____    ______ ____
ROOT
ATOM      1  C   LIG    1       -2.103   6.020  -0.092  0.00  0.00    +0.249 C 
ATOM      2  N   LIG    1       -1.184   5.042   0.032  0.00  0.00    -0.281 N 
ATOM      3  H   LIG    1       -0.248   5.268   0.149  0.00  0.00    +0.155 HD
ATOM      4  O   LIG    1       -3.285   5.741  -0.135  0.00  0.00    -0.270 OA
ENDROOT
BRANCH   2   5
ATOM      5  C   LIG    1       -1.580   3.701  -0.009  0.00  0.00    +0.036 A 
ATOM      6  C   LIG    1       -2.788   3.315   0.557  0.00  0.00    +0.043 A 
ATOM      7  C   LIG    1       -3.177   1.989   0.516  0.00  0.00    +0.044 A 
ATOM      8 CL   LIG    1       -4.686   1.506   1.224  0.00  0.00    -0.083 Cl
ATOM      9  C   LIG    1       -2.364   1.047  -0.088  0.00  0.00    +0.040 A 
ATOM     10  C   LIG    1       -1.157   1.428  -0.648  0.00  0.00    +0.044 A 
ATOM     11 CL   LIG    1       -0.136   0.241  -1.398  0.00  0.00    -0.083 Cl
ATOM     12  C   LIG    1       -0.766   2.753  -0.615  0.00  0.00    +0.043 A 
ENDBRANCH   2   5
BRANCH   1  15
ATOM     13  C   LIG    1       -4.056   8.079  -0.655  0.00  0.00    +0.047 C 
ATOM     14  C   LIG    1       -2.606   8.434  -0.448  0.00  0.00    -0.008 A 
ATOM     15  C   LIG    1       -1.673   7.431  -0.177  0.00  0.00    +0.042 A 
ATOM     16  C   LIG    1       -0.331   7.768   0.009  0.00  0.00    +0.013 A 
ATOM     17  C   LIG    1        0.064   9.087  -0.072  0.00  0.00    +0.003 A 
ATOM     18  C   LIG    1       -0.867  10.076  -0.336  0.00  0.00    +0.033 A 
ATOM     19  C   LIG    1       -2.199   9.749  -0.521  0.00  0.00    +0.125 A 
BRANCH  19  20
ATOM     20  N   LIG    1       -3.188  10.814  -0.802  0.00  0.00    +0.006 N 
ATOM     21  O   LIG    1       -2.814  11.957  -0.994  0.00  0.00    -0.130 OA
BRANCH  20  22
ATOM     22  O   LIG    1       -4.375  10.547  -0.842  0.00  0.00    -0.396 OA
ATOM     23  H   LIG    1       -4.663   9.667  -0.695  0.00  0.00    +0.329 HD
ENDBRANCH  20  22
ENDBRANCH  19  20
ENDBRANCH   1  15
TORSDOF 4
