REMARK  Name = ZINC00108635
REMARK                            x       y       z     vdW  Elec       q    Type
REMARK                         _______ _______ _______ _____ _____    ______ ____
ROOT
ATOM      1  C   LIG    1       -3.287  -1.387   0.026  0.00  0.00    +0.221 A 
ATOM      2  N   LIG    1       -2.478  -0.307   0.025  0.00  0.00    -0.186 NA
ATOM      3  C   LIG    1       -1.247  -0.787   0.010  0.00  0.00    +0.259 A 
ATOM      4  O   LIG    1       -1.352  -2.126  -0.001  0.00  0.00    -0.332 OA
ATOM      5  N   LIG    1       -2.521  -2.448   0.013  0.00  0.00    -0.054 NA
ENDROOT
BRANCH   1  10
ATOM      6  C   LIG    1       -6.857  -2.550   0.056  0.00  0.00    +0.004 A 
ATOM      7  C   LIG    1       -7.494  -1.317   0.069  0.00  0.00    +0.020 A 
ATOM      8  C   LIG    1       -6.734  -0.162   0.068  0.00  0.00    +0.111 A 
ATOM      9  N   LIG    1       -5.418  -0.217   0.060  0.00  0.00    -0.252 NA
ATOM     10  C   LIG    1       -4.771  -1.374   0.042  0.00  0.00    +0.111 A 
ATOM     11  C   LIG    1       -5.472  -2.577   0.042  0.00  0.00    +0.031 A 
ENDBRANCH   1  10
BRANCH   3  12
ATOM     12  C   LIG    1        0.002  -0.004   0.002  0.00  0.00    +0.049 A 
ATOM     13  C   LIG    1        1.290  -0.649  -0.014  0.00  0.00    +0.053 A 
ATOM     14  C   LIG    1        2.375   0.153  -0.020  0.00  0.00    +0.160 A 
ATOM     15  S   LIG    1        1.663   1.786  -0.004  0.00  0.00    -0.072 S 
ATOM     16  C   LIG    1       -0.017   1.364   0.009  0.00  0.00    +0.060 A 
BRANCH  14  17
ATOM     17  N   LIG    1        3.805  -0.230  -0.035  0.00  0.00    +0.013 N 
ATOM     18  O   LIG    1        4.120  -1.406  -0.044  0.00  0.00    -0.129 OA
BRANCH  17  19
ATOM     19  O   LIG    1        4.666   0.631  -0.039  0.00  0.00    -0.396 OA
ATOM     20  H   LIG    1        4.423   1.536  -0.032  0.00  0.00    +0.329 HD
ENDBRANCH  17  19
ENDBRANCH  14  17
ENDBRANCH   3  12
TORSDOF 4
