REMARK  Name = ZINC00132711
REMARK                            x       y       z     vdW  Elec       q    Type
REMARK                         _______ _______ _______ _____ _____    ______ ____
ROOT
ATOM      1  C   LIG    1        7.964   3.023   1.900  0.00  0.00    +0.001 A 
ATOM      2  C   LIG    1        6.775   2.296   1.911  0.00  0.00    +0.001 A 
ATOM      3  C   LIG    1        5.767   2.563   1.038  0.00  0.00    +0.009 A 
ATOM      4  C   LIG    1        5.917   3.597   0.100  0.00  0.00    -0.009 A 
ATOM      5  C   LIG    1        7.167   4.359   0.082  0.00  0.00    -0.017 A 
ATOM      6  C   LIG    1        7.351   5.391  -0.841  0.00  0.00    +0.017 A 
ATOM      7  C   LIG    1        6.342   5.697  -1.756  0.00  0.00    -0.017 A 
ATOM      8  C   LIG    1        6.508   6.736  -2.697  0.00  0.00    +0.008 A 
ATOM      9  C   LIG    1        5.507   7.009  -3.575  0.00  0.00    +0.001 A 
ATOM     10  C   LIG    1        4.315   6.288  -3.573  0.00  0.00    +0.001 A 
ATOM     11  C   LIG    1        4.095   5.276  -2.690  0.00  0.00    +0.009 A 
ATOM     12  C   LIG    1        5.088   4.942  -1.756  0.00  0.00    -0.009 A 
ATOM     13  C   LIG    1        4.893   3.897  -0.826  0.00  0.00    +0.008 A 
ATOM     14  C   LIG    1        8.173   4.032   1.016  0.00  0.00    +0.008 A 
ENDROOT
BRANCH  13  15
ATOM     15  C   LIG    1        3.681   3.161  -0.818  0.00  0.00    +0.120 C 
ATOM     16  N   LIG    1        2.691   3.521  -1.597  0.00  0.00    -0.255 NA
BRANCH  16  17
ATOM     17  C   LIG    1        1.526   2.813  -1.589  0.00  0.00    +0.067 A 
ATOM     18  C   LIG    1        1.558   1.412  -1.615  0.00  0.00    +0.029 A 
ATOM     19  C   LIG    1        0.397   0.698  -1.608  0.00  0.00    +0.021 A 
ATOM     20  C   LIG    1       -0.837   1.360  -1.575  0.00  0.00    +0.100 A 
ATOM     21  C   LIG    1       -0.878   2.764  -1.549  0.00  0.00    +0.133 A 
ATOM     22  C   LIG    1        0.301   3.485  -1.556  0.00  0.00    +0.074 A 
BRANCH  20  23
ATOM     23  C   LIG    1       -2.087   0.586  -1.567  0.00  0.00    +0.340 C 
ATOM     24  O   LIG    1       -3.158   1.162  -1.538  0.00  0.00    -0.245 OA
BRANCH  23  25
ATOM     25  O   LIG    1       -2.047  -0.761  -1.591  0.00  0.00    -0.477 OA
ATOM     26  H   LIG    1       -1.222  -1.204  -1.614  0.00  0.00    +0.295 HD
ENDBRANCH  23  25
ENDBRANCH  20  23
BRANCH  21  27
ATOM     27  O   LIG    1       -2.071   3.410  -1.517  0.00  0.00    -0.506 OA
ATOM     28  H   LIG    1       -2.401   3.581  -0.624  0.00  0.00    +0.292 HD
ENDBRANCH  21  27
ENDBRANCH  16  17
ENDBRANCH  13  15
TORSDOF 5
