REMARK  Name = ZINC00105789
REMARK                            x       y       z     vdW  Elec       q    Type
REMARK                         _______ _______ _______ _____ _____    ______ ____
ROOT
ATOM      1  C   LIG    1        3.556   3.249  -0.015  0.00  0.00    +0.144 A 
ATOM      2  C   LIG    1        2.353   3.936  -0.000  0.00  0.00    +0.033 A 
ATOM      3  C   LIG    1        1.145   3.194   0.008  0.00  0.00    +0.018 A 
ATOM      4  C   LIG    1       -0.091   3.857   0.023  0.00  0.00    +0.011 A 
ATOM      5  C   LIG    1       -1.250   3.137   0.030  0.00  0.00    +0.001 A 
ATOM      6  C   LIG    1       -1.216   1.749   0.017  0.00  0.00    +0.004 A 
ATOM      7  C   LIG    1       -0.013   1.076   0.008  0.00  0.00    +0.047 A 
ATOM      8  C   LIG    1        1.182   1.788   0.000  0.00  0.00    +0.139 A 
ATOM      9  O   LIG    1        2.359   1.126  -0.014  0.00  0.00    -0.422 OA
ATOM     10  C   LIG    1        3.532   1.782  -0.022  0.00  0.00    +0.351 A 
ATOM     11  O   LIG    1        4.576   1.157  -0.036  0.00  0.00    -0.244 OA
ENDROOT
BRANCH   1  12
ATOM     12  C   LIG    1        4.834   3.977  -0.025  0.00  0.00    +0.346 C 
ATOM     13  O   LIG    1        5.883   3.363  -0.038  0.00  0.00    -0.245 OA
BRANCH  12  14
ATOM     14  O   LIG    1        4.842   5.325  -0.018  0.00  0.00    -0.456 OA
BRANCH  14  15
ATOM     15  C   LIG    1        6.139   5.977  -0.028  0.00  0.00    +0.268 C 
BRANCH  15  19
ATOM     16  C   LIG    1        5.604  10.215  -0.003  0.00  0.00    +0.000 A 
ATOM     17  C   LIG    1        5.703   9.524   1.190  0.00  0.00    +0.000 A 
ATOM     18  C   LIG    1        5.876   8.152   1.182  0.00  0.00    +0.007 A 
ATOM     19  C   LIG    1        5.950   7.472  -0.019  0.00  0.00    -0.010 A 
ATOM     20  C   LIG    1        5.858   8.164  -1.212  0.00  0.00    +0.007 A 
ATOM     21  C   LIG    1        5.679   9.535  -1.204  0.00  0.00    +0.000 A 
ENDBRANCH  15  19
ENDBRANCH  14  15
ENDBRANCH  12  14
ENDBRANCH   1  12
TORSDOF 4
