REMARK  Name = ZINC00156823
REMARK                            x       y       z     vdW  Elec       q    Type
REMARK                         _______ _______ _______ _____ _____    ______ ____
ROOT
ATOM      1  C   LIG    1        0.707  -0.490  -1.238  0.00  0.00    -0.034 A 
ATOM      2  C   LIG    1        0.221  -0.150  -2.487  0.00  0.00    +0.006 A 
ATOM      3  C   LIG    1        0.865  -0.594  -3.625  0.00  0.00    +0.024 A 
ATOM      4  C   LIG    1        2.003  -1.382  -3.514  0.00  0.00    +0.037 A 
ATOM      5  C   LIG    1        2.490  -1.721  -2.259  0.00  0.00    +0.024 A 
ATOM      6  C   LIG    1        1.843  -1.270  -1.124  0.00  0.00    +0.006 A 
ENDROOT
BRANCH   4   7
ATOM      7  N   LIG    1        2.657  -1.833  -4.665  0.00  0.00    -0.263 N 
ATOM      8  C   LIG    1        3.860  -2.673  -4.690  0.00  0.00    +0.149 C 
ATOM      9  C   LIG    1        4.188  -2.897  -6.145  0.00  0.00    -0.018 A 
ATOM     10  C   LIG    1        5.186  -3.590  -6.791  0.00  0.00    +0.006 A 
ATOM     11  C   LIG    1        5.228  -3.613  -8.175  0.00  0.00    +0.000 A 
ATOM     12  C   LIG    1        4.269  -2.941  -8.911  0.00  0.00    +0.001 A 
ATOM     13  C   LIG    1        3.264  -2.242  -8.274  0.00  0.00    +0.013 A 
ATOM     14  C   LIG    1        3.215  -2.214  -6.879  0.00  0.00    +0.042 A 
ATOM     15  C   LIG    1        2.284  -1.574  -5.930  0.00  0.00    +0.251 C 
ATOM     16  O   LIG    1        1.320  -0.906  -6.247  0.00  0.00    -0.270 OA
ENDBRANCH   4   7
BRANCH   1  18
ATOM     17  C   LIG    1       -0.019   1.526   0.010  0.00  0.00    +0.024 C 
ATOM     18  C   LIG    1        0.002  -0.004   0.002  0.00  0.00    +0.124 C 
BRANCH  18  19
ATOM     19  C   LIG    1       -1.412  -0.526   0.013  0.00  0.00    +0.312 C 
ATOM     20  O   LIG    1       -1.810  -1.227  -0.902  0.00  0.00    -0.250 OA
BRANCH  19  21
ATOM     21  O   LIG    1       -2.158  -0.246   0.936  0.00  0.00    -0.480 OA
ATOM     22  H   LIG    1       -1.852   0.293   1.639  0.00  0.00    +0.295 HD
ENDBRANCH  19  21
ENDBRANCH  18  19
ENDBRANCH   1  18
TORSDOF 4
