REMARK  Name = ZINC00182146
REMARK                            x       y       z     vdW  Elec       q    Type
REMARK                         _______ _______ _______ _____ _____    ______ ____
ROOT
ATOM      1  N   LIG    1        5.450  -1.678   1.382  0.00  0.00    -0.299 N 
ATOM      2  H   LIG    1        5.864  -1.911   0.536  0.00  0.00    +0.150 HD
ATOM      3  C   LIG    1        6.050  -2.013   2.541  0.00  0.00    +0.300 C 
ATOM      4  N   LIG    1        7.226  -2.671   2.526  0.00  0.00    -0.297 N 
ATOM      5  H   LIG    1        7.641  -2.904   1.680  0.00  0.00    +0.151 HD
ATOM      6  O   LIG    1        5.531  -1.722   3.601  0.00  0.00    -0.253 OA
ENDROOT
BRANCH   4   7
ATOM      7  C   LIG    1        7.879  -3.035   3.786  0.00  0.00    +0.074 C 
ATOM      8  C   LIG    1        8.713  -1.855   4.287  0.00  0.00    +0.022 C 
ATOM      9  C   LIG    1        9.395  -2.235   5.604  0.00  0.00    +0.002 C 
ATOM     10  C   LIG    1       10.305  -3.443   5.376  0.00  0.00    +0.000 C 
ATOM     11  C   LIG    1        9.471  -4.623   4.874  0.00  0.00    +0.002 C 
ATOM     12  C   LIG    1        8.790  -4.243   3.558  0.00  0.00    +0.022 C 
ENDBRANCH   4   7
BRANCH   1  13
ATOM     13  C   LIG    1        4.171  -0.963   1.399  0.00  0.00    +0.110 C 
BRANCH  13  14
ATOM     14  C   LIG    1        3.711  -0.707  -0.038  0.00  0.00    +0.054 C 
BRANCH  14  18
ATOM     15  C   LIG    1       -0.017   1.378   0.010  0.00  0.00    +0.000 A 
ATOM     16  C   LIG    1        1.171   2.086   0.002  0.00  0.00    +0.000 A 
ATOM     17  C   LIG    1        2.377   1.411  -0.013  0.00  0.00    +0.004 A 
ATOM     18  C   LIG    1        2.396   0.029  -0.020  0.00  0.00    -0.046 A 
ATOM     19  C   LIG    1        1.208  -0.679  -0.012  0.00  0.00    +0.004 A 
ATOM     20  C   LIG    1        0.002  -0.004   0.002  0.00  0.00    +0.000 A 
ENDBRANCH  14  18
ENDBRANCH  13  14
ENDBRANCH   1  13
TORSDOF 4
