REMARK  Name = ZINC00251004
REMARK                            x       y       z     vdW  Elec       q    Type
REMARK                         _______ _______ _______ _____ _____    ______ ____
ROOT
ATOM      1  N   LIG    1        2.414   3.848  -0.001  0.00  0.00    -0.280 N 
ATOM      2  H   LIG    1        2.420   4.815  -0.077  0.00  0.00    +0.155 HD
ATOM      3  C   LIG    1        3.577   3.171   0.086  0.00  0.00    +0.248 C 
ATOM      4  O   LIG    1        3.575   1.956   0.079  0.00  0.00    -0.270 OA
ENDROOT
BRANCH   1  13
ATOM      5  C   LIG    1       -0.084   1.218   0.642  0.00  0.00    +0.003 A 
ATOM      6  C   LIG    1       -1.209   1.735   0.074  0.00  0.00    +0.010 A 
ATOM      7  C   LIG    1       -1.166   2.998  -0.540  0.00  0.00    +0.002 A 
ATOM      8  C   LIG    1       -2.312   3.563  -1.131  0.00  0.00    +0.011 A 
ATOM      9  C   LIG    1       -2.196   4.792  -1.715  0.00  0.00    +0.020 A 
ATOM     10  C   LIG    1       -0.968   5.450  -1.713  0.00  0.00    +0.111 A 
ATOM     11  N   LIG    1        0.097   4.920  -1.161  0.00  0.00    -0.253 NA
ATOM     12  C   LIG    1        0.051   3.721  -0.574  0.00  0.00    +0.092 A 
ATOM     13  C   LIG    1        1.202   3.156   0.019  0.00  0.00    +0.060 A 
ATOM     14  C   LIG    1        1.118   1.918   0.616  0.00  0.00    +0.025 A 
ENDBRANCH   1  13
BRANCH   3  15
ATOM     15  C   LIG    1        4.854   3.908   0.188  0.00  0.00    +0.037 A 
ATOM     16  C   LIG    1        4.861   5.304   0.190  0.00  0.00    +0.015 A 
ATOM     17  C   LIG    1        6.056   5.985   0.290  0.00  0.00    +0.033 A 
ATOM     18  C   LIG    1        7.248   5.287   0.379  0.00  0.00    +0.122 A 
ATOM     19  C   LIG    1        7.249   3.904   0.373  0.00  0.00    +0.033 A 
ATOM     20  C   LIG    1        6.060   3.210   0.278  0.00  0.00    +0.015 A 
BRANCH  18  21
ATOM     21  N   LIG    1        8.527   6.025   0.481  0.00  0.00    +0.006 N 
ATOM     22  O   LIG    1        9.578   5.414   0.560  0.00  0.00    -0.130 OA
BRANCH  21  23
ATOM     23  O   LIG    1        8.529   7.243   0.487  0.00  0.00    -0.396 OA
ATOM     24  H   LIG    1        7.721   7.713   0.426  0.00  0.00    +0.329 HD
ENDBRANCH  21  23
ENDBRANCH  18  21
ENDBRANCH   3  15
TORSDOF 4
