REMARK  Name = ZINC00082427
REMARK                            x       y       z     vdW  Elec       q    Type
REMARK                         _______ _______ _______ _____ _____    ______ ____
ROOT
ATOM      1  N   LIG    1       -0.016   1.344   0.009  0.00  0.00    -0.284 N 
ATOM      2  H   LIG    1        0.748   1.941   0.025  0.00  0.00    +0.155 HD
ATOM      3  C   LIG    1        0.172   0.009  -0.026  0.00  0.00    +0.222 C 
ATOM      4  O   LIG    1       -0.778  -0.740   0.055  0.00  0.00    -0.275 OA
ENDROOT
BRANCH   1   6
ATOM      5  C   LIG    1       -1.587   3.126   0.546  0.00  0.00    +0.117 A 
ATOM      6  C   LIG    1       -1.310   1.865   0.018  0.00  0.00    +0.055 A 
ATOM      7  C   LIG    1       -2.378   1.157  -0.491  0.00  0.00    +0.032 A 
ATOM      8  C   LIG    1       -3.616   1.711  -0.458  0.00  0.00    +0.048 A 
ATOM      9  S   LIG    1       -3.348   3.253   0.288  0.00  0.00    -0.088 S 
BRANCH   5  10
ATOM     10  C   LIG    1       -0.702   4.061   1.133  0.00  0.00    +0.347 C 
ATOM     11  O   LIG    1        0.483   3.802   1.226  0.00  0.00    -0.244 OA
BRANCH  10  13
ATOM     12  C   LIG    1       -0.223   6.137   2.170  0.00  0.00    +0.280 C 
ATOM     13  O   LIG    1       -1.173   5.241   1.589  0.00  0.00    -0.464 OA
ENDBRANCH  10  13
ENDBRANCH   5  10
ENDBRANCH   1   6
BRANCH   3  14
ATOM     14  C   LIG    1        1.564  -0.551  -0.167  0.00  0.00    +0.138 C 
BRANCH  14  15
ATOM     15  C   LIG    1        1.500  -2.057  -0.181  0.00  0.00    -0.001 A 
ATOM     16  C   LIG    1        1.357  -2.896  -1.236  0.00  0.00    +0.011 A 
ATOM     17  C   LIG    1        1.327  -4.259  -1.010  0.00  0.00    +0.008 A 
ATOM     18  C   LIG    1        1.431  -4.716   0.262  0.00  0.00    +0.045 A 
ATOM     19  S   LIG    1        1.584  -3.198   1.189  0.00  0.00    -0.101 S 
ENDBRANCH  14  15
ENDBRANCH   3  14
TORSDOF 5
