REMARK  Name = ZINC00225784
REMARK                            x       y       z     vdW  Elec       q    Type
REMARK                         _______ _______ _______ _____ _____    ______ ____
ROOT
ATOM      1  C   LIG    1        1.321   1.632  -2.800  0.00  0.00    +0.062 C 
ATOM      2  C   LIG    1       -0.119   1.235  -2.598  0.00  0.00    +0.034 C 
ATOM      3  N   LIG    1       -0.595   0.218  -3.212  0.00  0.00    -0.190 NA
ENDROOT
BRANCH   3   4
ATOM      4  N   LIG    1       -1.893  -0.227  -2.930  0.00  0.00    -0.219 N 
ATOM      5  H   LIG    1       -2.404   0.190  -2.219  0.00  0.00    +0.176 HD
BRANCH   4   6
ATOM      6  C   LIG    1       -2.432  -1.233  -3.647  0.00  0.00    +0.147 C 
ATOM      7  S   LIG    1       -4.018  -1.776  -3.303  0.00  0.00    -0.017 S 
BRANCH   6   8
ATOM      8  N   LIG    1       -1.721  -1.811  -4.636  0.00  0.00    -0.339 N 
ATOM      9  H   LIG    1       -2.109  -2.535  -5.152  0.00  0.00    +0.144 HD
ATOM     10  H   LIG    1       -0.823  -1.503  -4.832  0.00  0.00    +0.144 HD
ENDBRANCH   6   8
ENDBRANCH   4   6
ENDBRANCH   3   4
BRANCH   2  11
ATOM     11  C   LIG    1       -0.999   2.037  -1.674  0.00  0.00    +0.057 C 
BRANCH  11  12
ATOM     12  C   LIG    1       -0.990   1.400  -0.282  0.00  0.00    +0.041 C 
BRANCH  12  13
ATOM     13  C   LIG    1       -1.869   2.201   0.642  0.00  0.00    -0.047 A 
ATOM     14  C   LIG    1       -1.332   3.244   1.375  0.00  0.00    +0.007 A 
ATOM     15  C   LIG    1       -2.138   3.983   2.219  0.00  0.00    +0.045 A 
ATOM     16  C   LIG    1       -3.484   3.672   2.340  0.00  0.00    +0.117 A 
ATOM     17  C   LIG    1       -4.020   2.622   1.608  0.00  0.00    +0.045 A 
ATOM     18  C   LIG    1       -3.211   1.889   0.761  0.00  0.00    +0.007 A 
BRANCH  16  19
ATOM     19  O   LIG    1       -4.278   4.395   3.174  0.00  0.00    -0.507 OA
ATOM     20  H   LIG    1       -4.320   4.048   4.075  0.00  0.00    +0.292 HD
ENDBRANCH  16  19
ENDBRANCH  12  13
ENDBRANCH  11  12
ENDBRANCH   2  11
TORSDOF 7
