REMARK  Name = ZINC00293392
REMARK                            x       y       z     vdW  Elec       q    Type
REMARK                         _______ _______ _______ _____ _____    ______ ____
ROOT
ATOM      1  C   LIG    1       -0.423  -4.617   3.478  0.00  0.00    +0.012 C 
ATOM      2  C   LIG    1       -1.850  -5.147   3.628  0.00  0.00    -0.021 C 
ATOM      3  C   LIG    1       -1.944  -6.022   4.880  0.00  0.00    +0.012 C 
ATOM      4  C   LIG    1       -2.230  -5.963   2.398  0.00  0.00    +0.081 C 
ATOM      5  C   LIG    1       -2.170  -5.089   1.168  0.00  0.00    +0.115 C 
ATOM      6  C   LIG    1       -2.449  -3.777   1.244  0.00  0.00    +0.046 C 
ATOM      7  C   LIG    1       -2.784  -3.174   2.471  0.00  0.00    +0.164 C 
ATOM      8  O   LIG    1       -3.044  -1.988   2.501  0.00  0.00    -0.292 OA
ATOM      9  C   LIG    1       -2.410  -2.907   0.011  0.00  0.00    +0.101 C 
ATOM     10  C   LIG    1       -2.474  -3.761  -1.224  0.00  0.00    +0.098 C 
ATOM     11  C   LIG    1       -2.185  -5.084  -1.158  0.00  0.00    +0.198 C 
ATOM     12  O   LIG    1       -1.833  -5.666  -0.001  0.00  0.00    -0.445 OA
ATOM     13  C   LIG    1       -2.826  -3.972   3.746  0.00  0.00    +0.086 C 
ENDROOT
BRANCH   9  14
ATOM     14  C   LIG    1       -1.131  -2.110   0.002  0.00  0.00    -0.034 A 
ATOM     15  C   LIG    1        0.092  -2.777  -0.014  0.00  0.00    +0.005 A 
ATOM     16  C   LIG    1        1.266  -2.087  -0.021  0.00  0.00    +0.009 A 
ATOM     17  C   LIG    1        1.247  -0.682  -0.013  0.00  0.00    -0.018 A 
ATOM     18  C   LIG    1        2.438   0.064  -0.021  0.00  0.00    +0.008 A 
ATOM     19  C   LIG    1        2.380   1.424  -0.012  0.00  0.00    +0.001 A 
ATOM     20  C   LIG    1        1.156   2.091   0.002  0.00  0.00    +0.001 A 
ATOM     21  C   LIG    1       -0.017   1.401   0.010  0.00  0.00    +0.008 A 
ATOM     22  C   LIG    1        0.002  -0.004   0.002  0.00  0.00    -0.018 A 
ATOM     23  C   LIG    1       -1.189  -0.750   0.010  0.00  0.00    +0.013 A 
ENDBRANCH   9  14
BRANCH  11  24
ATOM     24  N   LIG    1       -2.254  -5.844  -2.299  0.00  0.00    -0.328 N 
ATOM     25  H   LIG    1       -2.049  -6.792  -2.264  0.00  0.00    +0.145 HD
ATOM     26  H   LIG    1       -2.507  -5.434  -3.141  0.00  0.00    +0.145 HD
ENDBRANCH  11  24
BRANCH  10  27
ATOM     27  C   LIG    1       -2.842  -3.175  -2.477  0.00  0.00    +0.101 C 
ATOM     28  N   LIG    1       -3.133  -2.709  -3.472  0.00  0.00    -0.191 NA
ENDBRANCH  10  27
TORSDOF 3
