REMARK  Name = ZINC00315972
REMARK                            x       y       z     vdW  Elec       q    Type
REMARK                         _______ _______ _______ _____ _____    ______ ____
ROOT
ATOM      1  C   LIG    1        0.153  -2.183   3.541  0.00  0.00    +0.164 A 
ATOM      2  N   LIG    1        0.278  -2.688   4.755  0.00  0.00    -0.225 NA
ATOM      3  C   LIG    1        0.363  -1.905   5.821  0.00  0.00    +0.084 A 
ATOM      4  C   LIG    1        0.319  -0.549   5.661  0.00  0.00    +0.077 A 
ATOM      5  S   LIG    1        0.157  -0.428   3.885  0.00  0.00    -0.060 S 
ENDROOT
BRANCH   3   6
ATOM      6  C   LIG    1        0.502  -2.495   7.174  0.00  0.00    +0.043 A 
ATOM      7  C   LIG    1        0.584  -1.668   8.292  0.00  0.00    +0.017 A 
ATOM      8  C   LIG    1        0.714  -2.220   9.550  0.00  0.00    +0.046 A 
ATOM      9  C   LIG    1        0.763  -3.599   9.706  0.00  0.00    +0.120 A 
ATOM     10  C   LIG    1        0.682  -4.429   8.598  0.00  0.00    +0.091 A 
ATOM     11  C   LIG    1        0.547  -3.884   7.332  0.00  0.00    +0.129 A 
BRANCH   9  12
ATOM     12  O   LIG    1        0.891  -4.136  10.947  0.00  0.00    -0.507 OA
ATOM     13  H   LIG    1        0.048  -4.314  11.387  0.00  0.00    +0.292 HD
ENDBRANCH   9  12
BRANCH  11  14
ATOM     14  O   LIG    1        0.462  -4.697   6.246  0.00  0.00    -0.506 OA
ATOM     15  H   LIG    1        1.317  -4.913   5.849  0.00  0.00    +0.292 HD
ENDBRANCH  11  14
ENDBRANCH   3   6
BRANCH   1  16
ATOM     16  N   LIG    1        0.052  -2.838   2.323  0.00  0.00    -0.279 N 
ATOM     17  H   LIG    1       -0.008  -3.806   2.297  0.00  0.00    +0.155 HD
BRANCH  16  23
ATOM     18  C   LIG    1        0.049  -2.719  -2.595  0.00  0.00    +0.044 C 
ATOM     19  C   LIG    1        0.034  -2.036  -1.252  0.00  0.00    -0.046 A 
ATOM     20  C   LIG    1        0.004  -0.650  -1.160  0.00  0.00    +0.023 A 
ATOM     21  C   LIG    1       -0.009  -0.055   0.086  0.00  0.00    +0.113 A 
ATOM     22  N   LIG    1        0.007  -0.785   1.185  0.00  0.00    -0.240 NA
ATOM     23  C   LIG    1        0.036  -2.108   1.139  0.00  0.00    +0.125 A 
ATOM     24  C   LIG    1        0.045  -2.774  -0.082  0.00  0.00    +0.047 A 
ENDBRANCH  16  23
ENDBRANCH   1  16
TORSDOF 5
