REMARK  Name = ZINC00349032
REMARK                            x       y       z     vdW  Elec       q    Type
REMARK                         _______ _______ _______ _____ _____    ______ ____
ROOT
ATOM      1  C   LIG    1       -0.017   1.399   0.010  0.00  0.00    +0.015 A 
ATOM      2  C   LIG    1        1.155   2.095   0.002  0.00  0.00    +0.046 A 
ATOM      3  C   LIG    1        2.377   1.422  -0.024  0.00  0.00    +0.120 A 
ATOM      4  C   LIG    1        2.416   0.037  -0.057  0.00  0.00    +0.092 A 
ATOM      5  C   LIG    1        1.235  -0.686  -0.055  0.00  0.00    +0.143 A 
ATOM      6  O   LIG    1        1.261  -2.039  -0.118  0.00  0.00    -0.422 OA
ATOM      7  C   LIG    1        0.209  -2.699   0.422  0.00  0.00    +0.347 A 
ATOM      8  O   LIG    1        0.365  -3.739   1.034  0.00  0.00    -0.244 OA
ATOM      9  C   LIG    1       -1.132  -2.114   0.241  0.00  0.00    +0.088 A 
ATOM     10  C   LIG    1       -1.207  -0.739   0.045  0.00  0.00    +0.029 A 
ATOM     11  C   LIG    1        0.002  -0.004   0.002  0.00  0.00    +0.018 A 
ENDROOT
BRANCH   3  12
ATOM     12  O   LIG    1        3.535   2.129  -0.018  0.00  0.00    -0.507 OA
ATOM     13  H   LIG    1        3.879   2.314   0.866  0.00  0.00    +0.292 HD
ENDBRANCH   3  12
BRANCH   9  14
ATOM     14  C   LIG    1       -2.341  -2.950   0.267  0.00  0.00    +0.084 C 
ATOM     15  S   LIG    1       -3.881  -2.234   0.053  0.00  0.00    -0.035 S 
BRANCH  14  16
ATOM     16  N   LIG    1       -2.236  -4.280   0.458  0.00  0.00    -0.352 N 
ATOM     17  H   LIG    1       -3.034  -4.832   0.475  0.00  0.00    +0.143 HD
ATOM     18  H   LIG    1       -1.363  -4.685   0.579  0.00  0.00    +0.143 HD
ENDBRANCH  14  16
ENDBRANCH   9  14
TORSDOF 3
