REMARK  Name = ZINC00274998
REMARK                            x       y       z     vdW  Elec       q    Type
REMARK                         _______ _______ _______ _____ _____    ______ ____
ROOT
ATOM      1  C   LIG    1        6.213  -0.558   5.615  0.00  0.00    +0.014 C 
ATOM      2  C   LIG    1        6.142  -0.356   4.099  0.00  0.00    +0.057 C 
ATOM      3  C   LIG    1        4.713  -0.637   3.649  0.00  0.00    +0.061 A 
ATOM      4  C   LIG    1        3.932  -1.524   4.402  0.00  0.00    +0.079 A 
ATOM      5  C   LIG    1        4.347  -2.199   5.543  0.00  0.00    +0.172 C 
ATOM      6  O   LIG    1        3.598  -2.939   6.149  0.00  0.00    -0.291 OA
ATOM      7  S   LIG    1        2.395  -1.512   3.528  0.00  0.00    -0.049 S 
ATOM      8  C   LIG    1        2.868  -0.400   2.277  0.00  0.00    +0.162 A 
ATOM      9  N   LIG    1        4.122  -0.114   2.602  0.00  0.00    -0.229 NA
ATOM     10  C   LIG    1        5.776  -1.972   6.001  0.00  0.00    +0.080 C 
ENDROOT
BRANCH   8  11
ATOM     11  N   LIG    1        2.125   0.070   1.217  0.00  0.00    -0.305 N 
ATOM     12  C   LIG    1        0.772  -0.505   1.227  0.00  0.00    +0.135 C 
ATOM     13  C   LIG    1        0.002  -0.004   0.002  0.00  0.00    +0.179 C 
ATOM     14  O   LIG    1       -0.017   1.426   0.010  0.00  0.00    -0.377 OA
ATOM     15  C   LIG    1        1.284   2.019   0.001  0.00  0.00    +0.179 C 
ATOM     16  C   LIG    1        2.067   1.539   1.225  0.00  0.00    +0.135 C 
ENDBRANCH   8  11
TORSDOF 1
