REMARK  Name = ZINC00105216
REMARK                            x       y       z     vdW  Elec       q    Type
REMARK                         _______ _______ _______ _____ _____    ______ ____
ROOT
ATOM      1  C   LIG    1        0.707  -0.490  -1.238  0.00  0.00    -0.033 A 
ATOM      2  C   LIG    1        2.037  -0.133  -1.456  0.00  0.00    +0.005 A 
ATOM      3  C   LIG    1        2.703  -0.554  -2.565  0.00  0.00    +0.009 A 
ATOM      4  C   LIG    1        2.043  -1.364  -3.507  0.00  0.00    -0.014 A 
ATOM      5  C   LIG    1        2.699  -1.818  -4.663  0.00  0.00    +0.054 A 
ATOM      6  C   LIG    1        2.026  -2.603  -5.556  0.00  0.00    +0.121 A 
ATOM      7  C   LIG    1        0.693  -2.960  -5.335  0.00  0.00    +0.046 A 
ATOM      8  C   LIG    1        0.030  -2.536  -4.225  0.00  0.00    +0.012 A 
ATOM      9  C   LIG    1        0.691  -1.728  -3.285  0.00  0.00    -0.017 A 
ATOM     10  C   LIG    1        0.038  -1.276  -2.125  0.00  0.00    +0.013 A 
ENDROOT
BRANCH   1  12
ATOM     11  C   LIG    1       -0.019   1.526   0.010  0.00  0.00    +0.024 C 
ATOM     12  C   LIG    1        0.002  -0.004   0.002  0.00  0.00    +0.124 C 
BRANCH  12  13
ATOM     13  C   LIG    1        0.731  -0.503   1.223  0.00  0.00    +0.312 C 
ATOM     14  O   LIG    1        0.321  -0.220   2.336  0.00  0.00    -0.250 OA
BRANCH  13  15
ATOM     15  O   LIG    1        1.730  -1.190   1.098  0.00  0.00    -0.480 OA
ATOM     16  H   LIG    1        2.046  -1.408   0.243  0.00  0.00    +0.295 HD
ENDBRANCH  13  15
ENDBRANCH  12  13
ENDBRANCH   1  12
BRANCH   6  17
ATOM     17  O   LIG    1        2.662  -3.042  -6.674  0.00  0.00    -0.495 OA
ATOM     18  C   LIG    1        1.907  -3.860  -7.570  0.00  0.00    +0.277 C 
ENDBRANCH   6  17
TORSDOF 4
