REMARK  Name = ZINC00132534
REMARK                            x       y       z     vdW  Elec       q    Type
REMARK                         _______ _______ _______ _____ _____    ______ ____
ROOT
ATOM      1  C   LIG    1        3.761   1.845  -0.024  0.00  0.00    +0.222 C 
ENDROOT
BRANCH   1   4
ATOM      2  C   LIG    1       -0.016   1.351   0.009  0.00  0.00    +0.008 A 
ATOM      3  C   LIG    1        1.183   2.038   0.002  0.00  0.00    +0.014 A 
ATOM      4  C   LIG    1        2.343   1.336  -0.013  0.00  0.00    +0.026 A 
ATOM      5  S   LIG    1        1.754  -0.349  -0.017  0.00  0.00    -0.099 S 
ATOM      6  C   LIG    1        0.002  -0.004   0.002  0.00  0.00    +0.045 A 
ENDBRANCH   1   4
BRANCH   1   7
ATOM      7  O   LIG    1        4.550   1.040  -0.902  0.00  0.00    -0.379 OA
ATOM      8  H   LIG    1        4.539   0.120  -0.594  0.00  0.00    +0.211 HD
ENDBRANCH   1   7
BRANCH   1   9
ATOM      9  C   LIG    1        4.330   1.776   1.369  0.00  0.00    +0.203 C 
ATOM     10  O   LIG    1        5.132   0.909   1.655  0.00  0.00    -0.288 OA
BRANCH   9  11
ATOM     11  C   LIG    1        3.932   2.719   2.342  0.00  0.00    +0.058 A 
ATOM     12  C   LIG    1        4.337   2.834   3.669  0.00  0.00    +0.019 A 
ATOM     13  C   LIG    1        3.769   3.863   4.376  0.00  0.00    +0.008 A 
ATOM     14  C   LIG    1        2.877   4.678   3.756  0.00  0.00    +0.046 A 
ATOM     15  S   LIG    1        2.787   4.076   2.190  0.00  0.00    -0.094 S 
ENDBRANCH   9  11
ENDBRANCH   1   9
TORSDOF 4
