REMARK  Name = ZINC00163321
REMARK                            x       y       z     vdW  Elec       q    Type
REMARK                         _______ _______ _______ _____ _____    ______ ____
ROOT
ATOM      1  C   LIG    1        0.066  -2.829  -0.059  0.00  0.00    +0.113 A 
ATOM      2  N   LIG    1       -0.560  -2.441   1.031  0.00  0.00    -0.239 NA
ATOM      3  C   LIG    1       -1.059  -3.312   1.930  0.00  0.00    +0.079 A 
ATOM      4  C   LIG    1       -1.748  -3.030   3.134  0.00  0.00    +0.029 A 
ATOM      5  C   LIG    1       -2.188  -4.034   3.937  0.00  0.00    +0.002 A 
ATOM      6  C   LIG    1       -1.984  -5.369   3.614  0.00  0.00    +0.001 A 
ATOM      7  C   LIG    1       -1.316  -5.689   2.447  0.00  0.00    +0.017 A 
ATOM      8  C   LIG    1       -0.866  -4.681   1.629  0.00  0.00    +0.040 A 
ATOM      9  S   LIG    1        0.005  -4.610   0.082  0.00  0.00    -0.067 S 
ENDROOT
BRANCH   1  15
ATOM     10  C   LIG    1        0.605  -0.607  -1.055  0.00  0.00    +0.130 A 
ATOM     11  C   LIG    1        1.172   0.159  -2.061  0.00  0.00    +0.046 A 
ATOM     12  C   LIG    1        1.786  -0.455  -3.136  0.00  0.00    +0.004 A 
ATOM     13  C   LIG    1        1.839  -1.837  -3.216  0.00  0.00    +0.001 A 
ATOM     14  C   LIG    1        1.279  -2.612  -2.223  0.00  0.00    +0.014 A 
ATOM     15  C   LIG    1        0.662  -2.004  -1.129  0.00  0.00    +0.049 A 
BRANCH  10  17
ATOM     16  C   LIG    1       -0.017   1.425   0.010  0.00  0.00    +0.277 C 
ATOM     17  O   LIG    1        0.002  -0.004   0.002  0.00  0.00    -0.494 OA
ENDBRANCH  10  17
ENDBRANCH   1  15
TORSDOF 2
