REMARK  Name = ZINC00163336
REMARK                            x       y       z     vdW  Elec       q    Type
REMARK                         _______ _______ _______ _____ _____    ______ ____
ROOT
ATOM      1  C   LIG    1       -1.282  -0.793   0.011  0.00  0.00    +0.017 C 
ENDROOT
BRANCH   1   7
ATOM      2  C   LIG    1       -0.017   1.382   0.010  0.00  0.00    +0.023 A 
ATOM      3  C   LIG    1        1.181   2.072   0.002  0.00  0.00    +0.111 A 
ATOM      4  N   LIG    1        2.331   1.427  -0.013  0.00  0.00    -0.263 NA
ATOM      5  C   LIG    1        2.387   0.109  -0.021  0.00  0.00    +0.111 A 
ATOM      6  C   LIG    1        1.230  -0.647  -0.013  0.00  0.00    +0.023 A 
ATOM      7  C   LIG    1        0.002  -0.004   0.002  0.00  0.00    -0.046 A 
ENDBRANCH   1   7
BRANCH   1   8
ATOM      8  C   LIG    1       -1.731  -1.052  -1.429  0.00  0.00    -0.074 C 
BRANCH   8   9
ATOM      9  N   LIG    1       -2.982  -1.821  -1.421  0.00  0.00    +0.380 N 
ATOM     10  H   LIG    1       -2.876  -2.653  -0.859  0.00  0.00    -0.082 HD
ATOM     11  C   LIG    1       -4.093  -0.986  -0.897  0.00  0.00    -0.079 C 
ATOM     12  C   LIG    1       -5.357  -1.681  -1.463  0.00  0.00    -0.020 C 
ATOM     13  C   LIG    1       -4.904  -2.127  -2.872  0.00  0.00    -0.020 C 
ATOM     14  C   LIG    1       -3.367  -2.184  -2.802  0.00  0.00    -0.079 C 
ENDBRANCH   8   9
ENDBRANCH   1   8
TORSDOF 3
