REMARK  Name = ZINC00344779
REMARK                            x       y       z     vdW  Elec       q    Type
REMARK                         _______ _______ _______ _____ _____    ______ ____
ROOT
ATOM      1  C   LIG    1        3.655   2.161  -0.022  0.00  0.00    +0.136 A 
ATOM      2  C   LIG    1        4.904   1.613  -0.042  0.00  0.00    +0.050 A 
ATOM      3  C   LIG    1        5.819   2.675  -0.043  0.00  0.00    +0.051 A 
ATOM      4  C   LIG    1        5.079   3.837  -0.024  0.00  0.00    +0.148 A 
ATOM      5  O   LIG    1        3.773   3.502  -0.017  0.00  0.00    -0.454 OA
ENDROOT
BRANCH   1   8
ATOM      6  C   LIG    1       -0.017   1.379   0.010  0.00  0.00    +0.002 A 
ATOM      7  C   LIG    1        1.166   2.089   0.002  0.00  0.00    +0.011 A 
ATOM      8  C   LIG    1        2.386   1.408  -0.013  0.00  0.00    +0.019 A 
ATOM      9  C   LIG    1        2.398   0.011  -0.021  0.00  0.00    +0.031 A 
ATOM     10  C   LIG    1        1.207  -0.687  -0.013  0.00  0.00    +0.042 A 
ATOM     11 CL   LIG    1        1.220  -2.422  -0.022  0.00  0.00    -0.084 Cl
ATOM     12  C   LIG    1        0.002  -0.004   0.002  0.00  0.00    +0.020 A 
ENDBRANCH   1   8
BRANCH   4  13
ATOM     13  C   LIG    1        5.617   5.199  -0.017  0.00  0.00    +0.176 C 
ATOM     14  N   LIG    1        4.809   6.218   0.002  0.00  0.00    -0.185 NA
BRANCH  14  15
ATOM     15  N   LIG    1        5.324   7.521   0.009  0.00  0.00    -0.218 N 
ATOM     16  H   LIG    1        6.283   7.663  -0.001  0.00  0.00    +0.176 HD
BRANCH  15  17
ATOM     17  C   LIG    1        4.486   8.577   0.029  0.00  0.00    +0.147 C 
ATOM     18  S   LIG    1        5.116  10.169   0.037  0.00  0.00    -0.017 S 
BRANCH  17  19
ATOM     19  N   LIG    1        3.153   8.379   0.042  0.00  0.00    -0.339 N 
ATOM     20  H   LIG    1        2.550   9.139   0.057  0.00  0.00    +0.144 HD
ATOM     21  H   LIG    1        2.796   7.477   0.038  0.00  0.00    +0.144 HD
ENDBRANCH  17  19
ENDBRANCH  15  17
ENDBRANCH  14  15
ENDBRANCH   4  13
TORSDOF 5
