REMARK  Name = ZINC00084477
REMARK                            x       y       z     vdW  Elec       q    Type
REMARK                         _______ _______ _______ _____ _____    ______ ____
ROOT
ATOM      1  C   LIG    1       -5.999  -0.067  -1.594  0.00  0.00    +0.247 C 
ATOM      2  N   LIG    1       -4.949   0.756  -1.409  0.00  0.00    -0.295 N 
ATOM      3  C   LIG    1       -4.979   1.797  -0.370  0.00  0.00    +0.127 C 
ATOM      4  C   LIG    1       -4.591   3.134  -1.009  0.00  0.00    +0.124 C 
ATOM      5  N   LIG    1       -3.305   2.987  -1.703  0.00  0.00    -0.327 N 
ATOM      6  C   LIG    1       -3.402   2.021  -2.805  0.00  0.00    +0.124 C 
ATOM      7  C   LIG    1       -3.741   0.638  -2.240  0.00  0.00    +0.127 C 
ATOM      8  O   LIG    1       -6.961  -0.002  -0.854  0.00  0.00    -0.270 OA
ENDROOT
BRANCH   1  11
ATOM      9  C   LIG    1       -4.868  -2.802  -3.907  0.00  0.00    +0.002 A 
ATOM     10  C   LIG    1       -4.876  -1.883  -2.878  0.00  0.00    +0.013 A 
ATOM     11  C   LIG    1       -5.982  -1.051  -2.698  0.00  0.00    +0.038 A 
ATOM     12  C   LIG    1       -7.070  -1.147  -3.568  0.00  0.00    +0.033 A 
ATOM     13  C   LIG    1       -7.047  -2.068  -4.596  0.00  0.00    +0.042 A 
ATOM     14 CL   LIG    1       -8.398  -2.190  -5.680  0.00  0.00    -0.084 Cl
ATOM     15  C   LIG    1       -5.948  -2.893  -4.766  0.00  0.00    +0.020 A 
ENDBRANCH   1  11
BRANCH   5  16
ATOM     16  C   LIG    1       -2.838   4.222  -2.159  0.00  0.00    +0.031 A 
ATOM     17  C   LIG    1       -1.631   4.300  -2.844  0.00  0.00    +0.023 A 
ATOM     18  C   LIG    1       -1.175   5.521  -3.299  0.00  0.00    +0.003 A 
ATOM     19  C   LIG    1       -1.913   6.667  -3.068  0.00  0.00    +0.020 A 
ATOM     20  C   LIG    1       -3.113   6.594  -2.381  0.00  0.00    +0.043 A 
ATOM     21 CL   LIG    1       -4.037   8.036  -2.094  0.00  0.00    -0.083 Cl
ATOM     22  C   LIG    1       -3.575   5.375  -1.924  0.00  0.00    +0.043 A 
ENDBRANCH   5  16
TORSDOF 2
