REMARK  Name = ZINC00293947
REMARK                            x       y       z     vdW  Elec       q    Type
REMARK                         _______ _______ _______ _____ _____    ______ ____
ROOT
ATOM      1  C   LIG    1       -0.017   1.362   0.009  0.00  0.00    +0.001 A 
ATOM      2  C   LIG    1        1.170   2.083   0.002  0.00  0.00    +0.002 A 
ATOM      3  C   LIG    1        2.386   1.436  -0.013  0.00  0.00    +0.026 A 
ATOM      4  C   LIG    1        2.428   0.046  -0.021  0.00  0.00    +0.047 A 
ATOM      5  C   LIG    1        1.223  -0.681  -0.013  0.00  0.00    +0.005 A 
ATOM      6  C   LIG    1        1.604  -2.095  -0.025  0.00  0.00    -0.003 A 
ATOM      7  C   LIG    1        2.945  -2.141  -0.038  0.00  0.00    +0.089 A 
ATOM      8  N   LIG    1        3.455  -0.871  -0.036  0.00  0.00    -0.360 N 
ATOM      9  H   LIG    1        4.399  -0.650  -0.044  0.00  0.00    +0.165 HD
ATOM     10  C   LIG    1        0.002  -0.004   0.002  0.00  0.00    +0.010 A 
ENDROOT
BRANCH   6  11
ATOM     11  C   LIG    1        0.666  -3.275  -0.021  0.00  0.00    +0.160 C 
BRANCH  11  12
ATOM     12  N   LIG    1        0.254  -3.576  -1.394  0.00  0.00    -0.332 N 
ATOM     13  C   LIG    1       -0.830  -3.056  -2.049  0.00  0.00    +0.107 A 
ATOM     14  C   LIG    1       -0.836  -3.597  -3.283  0.00  0.00    +0.130 A 
ATOM     15  N   LIG    1        0.216  -4.424  -3.378  0.00  0.00    -0.244 NA
ATOM     16  C   LIG    1        0.876  -4.413  -2.253  0.00  0.00    +0.199 A 
ENDBRANCH  11  12
ENDBRANCH   6  11
TORSDOF 2
