REMARK  Name = ZINC00257983
REMARK                            x       y       z     vdW  Elec       q    Type
REMARK                         _______ _______ _______ _____ _____    ______ ____
ROOT
ATOM      1  C   LIG    1       -0.018   1.503   0.010  0.00  0.00    +0.044 C 
ATOM      2  C   LIG    1        0.002  -0.004   0.002  0.00  0.00    -0.045 A 
ATOM      3  C   LIG    1        0.005  -0.668  -1.186  0.00  0.00    +0.033 A 
ATOM      4  C   LIG    1        0.025  -2.073  -1.200  0.00  0.00    +0.089 A 
ATOM      5  C   LIG    1        0.041  -2.779   0.030  0.00  0.00    +0.090 A 
ATOM      6  N   LIG    1        0.060  -4.115   0.027  0.00  0.00    -0.244 NA
ATOM      7  C   LIG    1        0.064  -4.766  -1.124  0.00  0.00    +0.090 A 
ATOM      8  C   LIG    1        0.049  -4.062  -2.342  0.00  0.00    +0.139 A 
ATOM      9  C   LIG    1        0.037  -2.058   1.238  0.00  0.00    +0.033 A 
ATOM     10  N   LIG    1        0.030  -2.751  -2.355  0.00  0.00    -0.251 NA
ATOM     11  C   LIG    1        0.023  -0.697   1.211  0.00  0.00    -0.045 A 
ATOM     12  C   LIG    1        0.024   0.071   2.507  0.00  0.00    +0.044 C 
ENDROOT
BRANCH   7  13
ATOM     13  C   LIG    1        0.085  -6.248  -1.130  0.00  0.00    +0.002 A 
ATOM     14  C   LIG    1       -0.010  -6.955   0.068  0.00  0.00    +0.010 A 
ATOM     15  C   LIG    1        0.010  -8.335   0.055  0.00  0.00    +0.001 A 
ATOM     16  C   LIG    1        0.124  -9.017  -1.143  0.00  0.00    +0.000 A 
ATOM     17  C   LIG    1        0.219  -8.321  -2.335  0.00  0.00    +0.001 A 
ATOM     18  C   LIG    1        0.194  -6.941  -2.335  0.00  0.00    +0.010 A 
ENDBRANCH   7  13
TORSDOF 1
