REMARK  Name = ZINC00150158
REMARK                            x       y       z     vdW  Elec       q    Type
REMARK                         _______ _______ _______ _____ _____    ______ ____
ROOT
ATOM      1  C   LIG    1       -0.017   1.375   0.010  0.00  0.00    +0.001 A 
ATOM      2  C   LIG    1        1.169   2.093   0.002  0.00  0.00    +0.002 A 
ATOM      3  C   LIG    1        2.386   1.442  -0.013  0.00  0.00    +0.026 A 
ATOM      4  C   LIG    1        2.425   0.056  -0.021  0.00  0.00    +0.056 A 
ATOM      5  C   LIG    1        1.223  -0.673  -0.013  0.00  0.00    +0.063 A 
ATOM      6  C   LIG    1        1.301  -2.145  -0.021  0.00  0.00    +0.262 A 
ATOM      7  N   LIG    1        2.522  -2.722  -0.036  0.00  0.00    -0.275 N 
ATOM      8  C   LIG    1        3.642  -1.982  -0.043  0.00  0.00    +0.327 A 
ATOM      9  O   LIG    1        4.716  -2.551  -0.056  0.00  0.00    -0.247 OA
ATOM     10  H   LIG    1        2.591  -3.689  -0.042  0.00  0.00    +0.173 HD
ATOM     11  O   LIG    1        0.291  -2.823  -0.016  0.00  0.00    -0.267 OA
ATOM     12  N   LIG    1        3.627  -0.638  -0.036  0.00  0.00    -0.307 N 
ATOM     13  H   LIG    1        4.464  -0.148  -0.041  0.00  0.00    +0.170 HD
ATOM     14  C   LIG    1        0.002  -0.004   0.002  0.00  0.00    +0.015 A 
ENDROOT
TORSDOF 0
