REMARK  Name = ZINC00157416
REMARK                            x       y       z     vdW  Elec       q    Type
REMARK                         _______ _______ _______ _____ _____    ______ ____
ROOT
ATOM      1  C   LIG    1        1.141   3.509   0.036  0.00  0.00    +0.002 A 
ATOM      2  C   LIG    1       -0.076   4.165   0.038  0.00  0.00    +0.004 A 
ATOM      3  C   LIG    1       -1.255   3.442   0.020  0.00  0.00    +0.047 A 
ATOM      4  C   LIG    1       -1.220   2.058   0.000  0.00  0.00    +0.138 A 
ATOM      5  C   LIG    1        0.006   1.396  -0.002  0.00  0.00    +0.072 A 
ATOM      6  C   LIG    1        1.185   2.127   0.021  0.00  0.00    +0.027 A 
ENDROOT
BRANCH   5   7
ATOM      7  N   LIG    1        0.048  -0.003  -0.021  0.00  0.00    -0.331 N 
ATOM      8  C   LIG    1        1.416  -0.485  -0.257  0.00  0.00    +0.086 C 
ATOM      9  C   LIG    1        1.406  -2.013  -0.350  0.00  0.00    -0.063 C 
ATOM     10  N   LIG    1        0.864  -2.580   0.900  0.00  0.00    +0.381 N 
ATOM     11  H   LIG    1        0.852  -3.604   0.830  0.00  0.00    -0.086 HD
ATOM     12  H   LIG    1        1.460  -2.297   1.687  0.00  0.00    -0.086 HD
ATOM     13  C   LIG    1       -0.509  -2.091   1.129  0.00  0.00    -0.063 C 
ATOM     14  C   LIG    1       -0.499  -0.564   1.222  0.00  0.00    +0.086 C 
ENDBRANCH   5   7
BRANCH   4  15
ATOM     15  O   LIG    1       -2.379   1.347  -0.017  0.00  0.00    -0.505 OA
ATOM     16  H   LIG    1       -2.763   1.200   0.858  0.00  0.00    +0.292 HD
ENDBRANCH   4  15
TORSDOF 2
