REMARK  Name = ZINC00087256
REMARK                            x       y       z     vdW  Elec       q    Type
REMARK                         _______ _______ _______ _____ _____    ______ ____
ROOT
ATOM      1  C   LIG    1        0.500  -2.625  -2.519  0.00  0.00    +0.025 A 
ATOM      2  C   LIG    1        0.537  -1.743  -3.596  0.00  0.00    +0.030 A 
ATOM      3  C   LIG    1        0.967  -2.154  -4.823  0.00  0.00    +0.051 A 
ATOM      4 CL   LIG    1        1.005  -1.037  -6.152  0.00  0.00    -0.083 Cl
ATOM      5  C   LIG    1        1.378  -3.485  -5.007  0.00  0.00    +0.022 A 
ATOM      6  C   LIG    1        1.828  -3.946  -6.258  0.00  0.00    +0.013 A 
ATOM      7  C   LIG    1        2.213  -5.252  -6.363  0.00  0.00    +0.020 A 
ATOM      8  C   LIG    1        2.152  -6.087  -5.249  0.00  0.00    +0.111 A 
ATOM      9  N   LIG    1        1.732  -5.653  -4.085  0.00  0.00    -0.251 NA
ATOM     10  C   LIG    1        1.342  -4.386  -3.915  0.00  0.00    +0.114 A 
ATOM     11  C   LIG    1        0.897  -3.924  -2.659  0.00  0.00    +0.148 A 
ENDROOT
BRANCH  11  12
ATOM     12  O   LIG    1        0.858  -4.768  -1.595  0.00  0.00    -0.504 OA
ATOM     13  H   LIG    1        0.020  -5.242  -1.500  0.00  0.00    +0.292 HD
ENDBRANCH  11  12
BRANCH   1  14
ATOM     14  C   LIG    1        0.020  -2.136  -1.177  0.00  0.00    +0.173 C 
BRANCH  14  17
ATOM     15  C   LIG    1        1.535   1.340  -0.655  0.00  0.00    +0.109 C 
ATOM     16  C   LIG    1        1.368  -0.155  -0.735  0.00  0.00    +0.211 C 
ATOM     17  N   LIG    1        0.182  -0.682  -1.100  0.00  0.00    -0.302 N 
ATOM     18  H   LIG    1       -0.563  -0.099  -1.311  0.00  0.00    +0.150 HD
ATOM     19  O   LIG    1        2.300  -0.884  -0.471  0.00  0.00    -0.276 OA
ENDBRANCH  14  17
BRANCH  14  20
ATOM     20  C   LIG    1       -1.435  -2.489  -1.005  0.00  0.00    +0.130 A 
ATOM     21  C   LIG    1       -1.914  -3.528  -0.297  0.00  0.00    +0.047 A 
ATOM     22  C   LIG    1       -3.323  -3.482  -0.405  0.00  0.00    +0.041 A 
ATOM     23  C   LIG    1       -3.621  -2.417  -1.171  0.00  0.00    +0.195 A 
ATOM     24  O   LIG    1       -2.474  -1.816  -1.527  0.00  0.00    -0.466 OA
ENDBRANCH  14  20
ENDBRANCH   1  14
TORSDOF 4
