REMARK  Name = ZINC00273815
REMARK                            x       y       z     vdW  Elec       q    Type
REMARK                         _______ _______ _______ _____ _____    ______ ____
ROOT
ATOM      1  C   LIG    1        3.666  -2.005  -0.043  0.00  0.00    +0.092 A 
ATOM      2  C   LIG    1        3.660  -0.623  -0.036  0.00  0.00    +0.029 A 
ATOM      3  C   LIG    1        2.414   0.054  -0.021  0.00  0.00    +0.018 A 
ATOM      4  C   LIG    1        2.374   1.457  -0.013  0.00  0.00    +0.015 A 
ATOM      5  C   LIG    1        1.175   2.104   0.002  0.00  0.00    +0.046 A 
ATOM      6  C   LIG    1       -0.017   1.381   0.010  0.00  0.00    +0.120 A 
ATOM      7  C   LIG    1        0.002  -0.004   0.002  0.00  0.00    +0.092 A 
ATOM      8  C   LIG    1        1.214  -0.681  -0.013  0.00  0.00    +0.143 A 
ATOM      9  O   LIG    1        1.230  -2.031  -0.020  0.00  0.00    -0.422 OA
ATOM     10  C   LIG    1        2.384  -2.718  -0.034  0.00  0.00    +0.347 A 
ATOM     11  O   LIG    1        2.367  -3.935  -0.040  0.00  0.00    -0.244 OA
ENDROOT
BRANCH   1  16
ATOM     12  C   LIG    1        6.571  -6.047  -0.090  0.00  0.00    +0.066 C 
ATOM     13  C   LIG    1        6.364  -4.555  -0.081  0.00  0.00    +0.046 A 
ATOM     14  C   LIG    1        7.436  -3.719  -0.087  0.00  0.00    +0.070 A 
ATOM     15  S   LIG    1        6.616  -2.130  -0.071  0.00  0.00    -0.075 S 
ATOM     16  C   LIG    1        4.939  -2.749  -0.059  0.00  0.00    +0.115 A 
ATOM     17  N   LIG    1        5.149  -4.060  -0.062  0.00  0.00    -0.244 NA
ENDBRANCH   1  16
BRANCH   6  18
ATOM     18  O   LIG    1       -1.204   2.038   0.019  0.00  0.00    -0.507 OA
ATOM     19  H   LIG    1       -1.544   2.224   0.905  0.00  0.00    +0.292 HD
ENDBRANCH   6  18
TORSDOF 2
