REMARK  Name = ZINC00087326
REMARK                            x       y       z     vdW  Elec       q    Type
REMARK                         _______ _______ _______ _____ _____    ______ ____
ROOT
ATOM      1  C   LIG    1       -3.473   1.913   0.793  0.00  0.00    +0.026 A 
ATOM      2  C   LIG    1       -3.417   3.304   0.773  0.00  0.00    +0.042 A 
ATOM      3  C   LIG    1       -4.394   4.053   1.355  0.00  0.00    +0.131 A 
ATOM      4  C   LIG    1       -5.469   3.417   1.997  0.00  0.00    +0.034 A 
ATOM      5  C   LIG    1       -6.494   4.157   2.616  0.00  0.00    +0.014 A 
ATOM      6  C   LIG    1       -7.509   3.471   3.221  0.00  0.00    +0.020 A 
ATOM      7  C   LIG    1       -7.508   2.078   3.213  0.00  0.00    +0.111 A 
ATOM      8  N   LIG    1       -6.551   1.393   2.636  0.00  0.00    -0.251 NA
ATOM      9  C   LIG    1       -5.530   2.002   2.027  0.00  0.00    +0.115 A 
ATOM     10  C   LIG    1       -4.503   1.259   1.407  0.00  0.00    +0.148 A 
ENDROOT
BRANCH   3  11
ATOM     11  N   LIG    1       -4.319   5.530   1.318  0.00  0.00    +0.007 N 
ATOM     12  O   LIG    1       -3.906   6.095   0.321  0.00  0.00    -0.130 OA
BRANCH  11  13
ATOM     13  O   LIG    1       -4.671   6.183   2.285  0.00  0.00    -0.396 OA
ATOM     14  H   LIG    1       -4.989   5.749   3.052  0.00  0.00    +0.329 HD
ENDBRANCH  11  13
ENDBRANCH   3  11
BRANCH  10  15
ATOM     15  O   LIG    1       -4.538  -0.099   1.422  0.00  0.00    -0.504 OA
ATOM     16  H   LIG    1       -3.855  -0.590   1.010  0.00  0.00    +0.292 HD
ENDBRANCH  10  15
BRANCH   1  17
ATOM     17  C   LIG    1       -2.378   1.116   0.132  0.00  0.00    +0.173 C 
BRANCH  17  18
ATOM     18  C   LIG    1       -2.768   0.810  -1.291  0.00  0.00    +0.130 A 
ATOM     19  C   LIG    1       -3.271  -0.355  -1.736  0.00  0.00    +0.047 A 
ATOM     20  C   LIG    1       -3.494  -0.203  -3.124  0.00  0.00    +0.041 A 
ATOM     21  C   LIG    1       -3.106   1.044  -3.446  0.00  0.00    +0.195 A 
ATOM     22  O   LIG    1       -2.667   1.653  -2.332  0.00  0.00    -0.466 OA
ENDBRANCH  17  18
BRANCH  17  24
ATOM     23  C   LIG    1        0.054   1.260   0.153  0.00  0.00    +0.214 C 
ATOM     24  N   LIG    1       -1.136   1.892   0.141  0.00  0.00    -0.301 N 
ATOM     25  H   LIG    1       -1.169   2.862   0.139  0.00  0.00    +0.150 HD
ATOM     26  O   LIG    1        0.097   0.048   0.156  0.00  0.00    -0.276 OA
BRANCH  23  28
ATOM     27  C   LIG    1        2.529   1.105   0.164  0.00  0.00    +0.013 C 
ATOM     28  C   LIG    1        1.332   2.058   0.157  0.00  0.00    +0.092 C 
ENDBRANCH  23  28
ENDBRANCH  17  24
ENDBRANCH   1  17
TORSDOF 7
