REMARK  Name = ZINC00269575
REMARK                            x       y       z     vdW  Elec       q    Type
REMARK                         _______ _______ _______ _____ _____    ______ ____
ROOT
ATOM      1  C   LIG    1       -2.112  -1.436  -0.074  0.00  0.00    +0.044 C 
ATOM      2  C   LIG    1       -3.049  -0.255  -0.066  0.00  0.00    -0.035 A 
ATOM      3  C   LIG    1       -4.420  -0.434  -0.084  0.00  0.00    +0.027 A 
ATOM      4  C   LIG    1       -5.248   0.677  -0.075  0.00  0.00    +0.042 A 
ATOM      5  C   LIG    1       -6.742   0.480  -0.094  0.00  0.00    +0.066 C 
ATOM      6  N   LIG    1       -4.762   1.901  -0.051  0.00  0.00    -0.217 NA
ATOM      7  C   LIG    1       -3.457   2.134  -0.034  0.00  0.00    +0.230 A 
ATOM      8  O   LIG    1       -2.735   3.272  -0.009  0.00  0.00    -0.432 OA
ATOM      9  C   LIG    1       -1.408   3.010   0.006  0.00  0.00    +0.199 A 
ATOM     10  C   LIG    1       -1.214   1.640  -0.018  0.00  0.00    +0.084 A 
ATOM     11  C   LIG    1       -2.558   1.052  -0.041  0.00  0.00    +0.064 A 
ENDROOT
BRANCH  10  12
ATOM     12  N   LIG    1       -0.006   0.967  -0.015  0.00  0.00    -0.354 N 
ATOM     13  H   LIG    1        0.826   1.464  -0.003  0.00  0.00    +0.142 HD
ATOM     14  H   LIG    1        0.009  -0.003  -0.030  0.00  0.00    +0.142 HD
ENDBRANCH  10  12
BRANCH   9  15
ATOM     15  C   LIG    1       -0.382   3.981   0.039  0.00  0.00    +0.230 C 
ATOM     16  O   LIG    1        0.781   3.636   0.146  0.00  0.00    -0.283 OA
BRANCH  15  17
ATOM     17  C   LIG    1       -0.721   5.418  -0.058  0.00  0.00    +0.026 A 
ATOM     18  C   LIG    1       -2.057   5.824  -0.056  0.00  0.00    +0.014 A 
ATOM     19  C   LIG    1       -2.367   7.165  -0.140  0.00  0.00    +0.039 A 
ATOM     20  C   LIG    1       -1.355   8.108  -0.237  0.00  0.00    +0.123 A 
ATOM     21  F   LIG    1       -1.665   9.420  -0.325  0.00  0.00    -0.205 F 
ATOM     22  C   LIG    1       -0.027   7.709  -0.245  0.00  0.00    +0.039 A 
ATOM     23  C   LIG    1        0.294   6.372  -0.156  0.00  0.00    +0.014 A 
ENDBRANCH  15  17
ENDBRANCH   9  15
TORSDOF 3
