REMARK  Name = ZINC00155293
REMARK                            x       y       z     vdW  Elec       q    Type
REMARK                         _______ _______ _______ _____ _____    ______ ____
ROOT
ATOM      1  C   LIG    1       -0.013   1.076   0.008  0.00  0.00    +0.001 A 
ATOM      2  C   LIG    1       -1.222   1.750   0.017  0.00  0.00    +0.002 A 
ATOM      3  C   LIG    1       -1.245   3.132   0.029  0.00  0.00    +0.028 A 
ATOM      4  C   LIG    1       -0.065   3.849   0.021  0.00  0.00    +0.104 A 
ATOM      5  C   LIG    1        1.158   3.180   0.008  0.00  0.00    +0.047 A 
ATOM      6  C   LIG    1        2.435   3.908   0.004  0.00  0.00    +0.197 C 
ATOM      7  C   LIG    1        2.575   5.306  -0.428  0.00  0.00    +0.048 A 
ATOM      8  C   LIG    1        3.838   5.773  -0.820  0.00  0.00    +0.014 A 
ATOM      9  C   LIG    1        4.000   7.076  -1.226  0.00  0.00    +0.012 A 
ATOM     10  C   LIG    1        2.905   7.942  -1.251  0.00  0.00    +0.022 A 
ATOM     11  C   LIG    1        1.646   7.481  -0.862  0.00  0.00    +0.039 A 
ATOM     12  C   LIG    1        1.483   6.175  -0.456  0.00  0.00    +0.105 A 
ATOM     13  O   LIG    1        3.431   3.321   0.379  0.00  0.00    -0.287 OA
ATOM     14  S   LIG    1       -0.115   5.609   0.027  0.00  0.00    +0.026 S 
ATOM     15  O   LIG    1       -1.011   5.994  -1.007  0.00  0.00    -0.164 OA
ATOM     16  O   LIG    1       -0.295   6.007   1.379  0.00  0.00    -0.164 OA
ATOM     17  C   LIG    1        1.172   1.779   0.000  0.00  0.00    +0.013 A 
ENDROOT
BRANCH  10  18
ATOM     18  C   LIG    1        3.079   9.345  -1.687  0.00  0.00    +0.179 A 
ATOM     19  N   LIG    1        4.216   9.939  -2.090  0.00  0.00    -0.239 N 
ATOM     20  H   LIG    1        5.102   9.513  -2.148  0.00  0.00    +0.192 HD
ATOM     21  N   LIG    1        3.947  11.157  -2.383  0.00  0.00    -0.046 NA
ATOM     22  N   LIG    1        2.692  11.357  -2.185  0.00  0.00    -0.023 NA
ATOM     23  N   LIG    1        2.140  10.270  -1.767  0.00  0.00    -0.108 NA
ENDBRANCH  10  18
TORSDOF 1
