REMARK  Name = ZINC00092512
REMARK                            x       y       z     vdW  Elec       q    Type
REMARK                         _______ _______ _______ _____ _____    ______ ____
ROOT
ATOM      1  C   LIG    1       -1.237   3.137   0.030  0.00  0.00    +0.120 A 
ATOM      2  C   LIG    1       -1.218   1.750   0.017  0.00  0.00    +0.047 A 
ATOM      3  C   LIG    1       -0.013   1.076   0.008  0.00  0.00    +0.027 A 
ATOM      4  C   LIG    1        1.180   1.786   0.000  0.00  0.00    +0.045 A 
ATOM      5  C   LIG    1        1.160   3.174   0.007  0.00  0.00    +0.027 A 
ATOM      6  C   LIG    1       -0.045   3.848   0.022  0.00  0.00    +0.047 A 
ENDROOT
BRANCH   4   7
ATOM      7  N   LIG    1        2.405   1.101  -0.015  0.00  0.00    -0.203 N 
ATOM      8  C   LIG    1        2.546  -0.236  -0.018  0.00  0.00    +0.250 C 
ATOM      9  C   LIG    1        3.990  -0.554  -0.038  0.00  0.00    +0.073 C 
ATOM     10  C   LIG    1        4.646   0.618  -0.038  0.00  0.00    +0.073 C 
ATOM     11  O   LIG    1        1.640  -1.046  -0.007  0.00  0.00    -0.270 OA
ATOM     12  C   LIG    1        3.618   1.683  -0.023  0.00  0.00    +0.250 C 
ATOM     13  O   LIG    1        3.833   2.877  -0.020  0.00  0.00    -0.270 OA
ENDBRANCH   4   7
BRANCH   1  15
ATOM     14  C   LIG    1       -3.611   3.006   0.052  0.00  0.00    +0.277 C 
ATOM     15  O   LIG    1       -2.423   3.800   0.045  0.00  0.00    -0.495 OA
ENDBRANCH   1  15
TORSDOF 2
