REMARK  Name = ZINC00093383
REMARK                            x       y       z     vdW  Elec       q    Type
REMARK                         _______ _______ _______ _____ _____    ______ ____
ROOT
ATOM      1  C   LIG    1       -0.018   1.503   0.010  0.00  0.00    +0.066 C 
ATOM      2  C   LIG    1        0.002  -0.004   0.002  0.00  0.00    +0.052 A 
ATOM      3  C   LIG    1        0.005  -0.682  -1.219  0.00  0.00    +0.071 A 
ATOM      4  C   LIG    1        0.025  -2.084  -1.229  0.00  0.00    +0.060 A 
ATOM      5  C   LIG    1        0.024  -2.485  -2.650  0.00  0.00    +0.254 C 
ATOM      6  N   LIG    1        0.005  -1.372  -3.408  0.00  0.00    -0.237 N 
ATOM      7  C   LIG    1       -0.001  -1.364  -4.873  0.00  0.00    +0.142 C 
ATOM      8  O   LIG    1        0.038  -3.626  -3.065  0.00  0.00    -0.270 OA
ATOM      9  C   LIG    1        0.041  -2.758   0.004  0.00  0.00    +0.013 A 
ATOM     10  C   LIG    1        0.061  -4.158   0.083  0.00  0.00    +0.011 A 
ATOM     11  C   LIG    1        0.076  -4.766   1.301  0.00  0.00    +0.001 A 
ATOM     12  C   LIG    1        0.071  -4.014   2.475  0.00  0.00    +0.002 A 
ATOM     13  C   LIG    1        0.052  -2.655   2.439  0.00  0.00    +0.028 A 
ATOM     14  C   LIG    1        0.036  -1.988   1.200  0.00  0.00    +0.072 A 
ATOM     15  C   LIG    1       -0.007  -0.269  -2.638  0.00  0.00    +0.255 C 
ATOM     16  O   LIG    1       -0.025   0.876  -3.042  0.00  0.00    -0.269 OA
ATOM     17  N   LIG    1        0.022  -0.653   1.142  0.00  0.00    -0.251 NA
ENDROOT
TORSDOF 0
