REMARK  Name = ZINC00179593
REMARK                            x       y       z     vdW  Elec       q    Type
REMARK                         _______ _______ _______ _____ _____    ______ ____
ROOT
ATOM      1  C   LIG    1       -0.609  -0.452  -0.886  0.00  0.00    +0.026 C 
ATOM      2  C   LIG    1        0.275   0.197  -0.049  0.00  0.00    +0.100 C 
ATOM      3  C   LIG    1        0.053   1.595   0.374  0.00  0.00    +0.257 C 
ATOM      4  N   LIG    1        0.960   2.164   1.194  0.00  0.00    -0.235 N 
ATOM      5  H   LIG    1        0.830   3.081   1.481  0.00  0.00    +0.159 HD
ATOM      6  C   LIG    1        2.038   1.491   1.621  0.00  0.00    +0.320 C 
ATOM      7  N   LIG    1        2.304   0.223   1.279  0.00  0.00    -0.190 N 
ATOM      8  O   LIG    1        2.817   2.063   2.358  0.00  0.00    -0.251 OA
ATOM      9  O   LIG    1       -0.919   2.217  -0.011  0.00  0.00    -0.270 OA
ATOM     10  C   LIG    1        1.486  -0.475   0.465  0.00  0.00    +0.263 C 
ATOM     11  O   LIG    1        1.739  -1.626   0.162  0.00  0.00    -0.269 OA
ENDROOT
BRANCH   7  12
ATOM     12  C   LIG    1        3.460  -0.393   1.780  0.00  0.00    +0.046 A 
ATOM     13  C   LIG    1        3.384  -1.207   2.902  0.00  0.00    +0.025 A 
ATOM     14  C   LIG    1        4.523  -1.816   3.390  0.00  0.00    +0.022 A 
ATOM     15  C   LIG    1        5.741  -1.607   2.768  0.00  0.00    +0.041 A 
ATOM     16 CL   LIG    1        7.173  -2.369   3.389  0.00  0.00    -0.084 Cl
ATOM     17  C   LIG    1        5.821  -0.792   1.653  0.00  0.00    +0.022 A 
ATOM     18  C   LIG    1        4.684  -0.185   1.158  0.00  0.00    +0.025 A 
ENDBRANCH   7  12
BRANCH   1  22
ATOM     19  C   LIG    1        0.486  -4.130  -2.682  0.00  0.00    +0.000 A 
ATOM     20  C   LIG    1       -0.789  -3.968  -2.169  0.00  0.00    +0.001 A 
ATOM     21  C   LIG    1       -1.154  -2.775  -1.582  0.00  0.00    +0.008 A 
ATOM     22  C   LIG    1       -0.230  -1.725  -1.507  0.00  0.00    -0.024 A 
ATOM     23  C   LIG    1        1.057  -1.896  -2.035  0.00  0.00    +0.008 A 
ATOM     24  C   LIG    1        1.406  -3.098  -2.612  0.00  0.00    +0.001 A 
ENDBRANCH   1  22
TORSDOF 2
