REMARK  Name = ZINC00158755
REMARK                            x       y       z     vdW  Elec       q    Type
REMARK                         _______ _______ _______ _____ _____    ______ ____
ROOT
ATOM      1  C   LIG    1        2.496   3.765   0.004  0.00  0.00    +0.022 A 
ATOM      2  C   LIG    1        2.445   5.111   0.007  0.00  0.00    +0.046 A 
ATOM      3  S   LIG    1        0.696   5.449   0.026  0.00  0.00    -0.104 S 
ATOM      4  C   LIG    1        0.090   3.826   0.022  0.00  0.00    +0.060 A 
ATOM      5  C   LIG    1        1.239   3.060   0.007  0.00  0.00    +0.066 A 
ENDROOT
BRANCH   5   6
ATOM      6  C   LIG    1        1.182   1.591  -0.001  0.00  0.00    +0.337 C 
ATOM      7  O   LIG    1        2.210   0.943  -0.014  0.00  0.00    -0.245 OA
BRANCH   6   8
ATOM      8  O   LIG    1       -0.011   0.963   0.007  0.00  0.00    -0.477 OA
ATOM      9  H   LIG    1       -0.804   1.462   0.018  0.00  0.00    +0.295 HD
ENDBRANCH   6   8
ENDBRANCH   5   6
TORSDOF 2
