REMARK  Name = ZINC00169997
REMARK                            x       y       z     vdW  Elec       q    Type
REMARK                         _______ _______ _______ _____ _____    ______ ____
ROOT
ATOM      1  CA  LIG    1       -1.329   1.940   0.019  0.00  0.00    +0.066 C 
ENDROOT
BRANCH   1   8
ATOM      2  C   LIG    1       -2.189   1.524  -2.295  0.00  0.00    +0.004 A 
ATOM      3  C   LIG    1       -2.491   1.954  -3.573  0.00  0.00    +0.020 A 
ATOM      4  C   LIG    1       -2.248   3.267  -3.937  0.00  0.00    +0.041 A 
ATOM      5 CL   LIG    1       -2.621   3.805  -5.544  0.00  0.00    -0.084 Cl
ATOM      6  C   LIG    1       -1.708   4.149  -3.018  0.00  0.00    +0.020 A 
ATOM      7  C   LIG    1       -1.412   3.720  -1.739  0.00  0.00    +0.004 A 
ATOM      8  C   LIG    1       -1.654   2.408  -1.376  0.00  0.00    -0.051 A 
ENDBRANCH   1   8
BRANCH   1   9
ATOM      9  N   LIG    1       -2.381   1.034   0.515  0.00  0.00    +0.390 N 
ATOM     10  H1  LIG    1       -2.124   0.701   1.452  0.00  0.00    -0.088 HD
ATOM     11  H2  LIG    1       -2.475   0.234  -0.107  0.00  0.00    -0.088 HD
ATOM     12  H3  LIG    1       -3.270   1.528   0.570  0.00  0.00    -0.088 HD
ENDBRANCH   1   9
BRANCH   1  13
ATOM     13  C   LIG    1       -0.014   1.204   0.009  0.00  0.00    +0.294 C 
ATOM     14  O   LIG    1        0.002  -0.004   0.002  0.00  0.00    -0.253 OA
BRANCH  13  15
ATOM     15  OXT LIG    1        1.139   1.891   0.001  0.00  0.00    -0.482 OA
ATOM     16  HXT LIG    1        1.126   2.828   0.006  0.00  0.00    +0.295 HD
ENDBRANCH  13  15
ENDBRANCH   1  13
TORSDOF 4
