REMARK  Name = ZINC00231911
REMARK                            x       y       z     vdW  Elec       q    Type
REMARK                         _______ _______ _______ _____ _____    ______ ____
ROOT
ATOM      1  C   LIG    1       -4.958  -2.611   0.037  0.00  0.00    +0.119 C 
ATOM      2  N   LIG    1       -6.059  -1.913   0.046  0.00  0.00    -0.255 NA
ENDROOT
BRANCH   1   6
ATOM      3  C   LIG    1       -1.200  -0.637   0.010  0.00  0.00    +0.161 A 
ATOM      4  C   LIG    1       -2.373   0.105   0.020  0.00  0.00    +0.050 A 
ATOM      5  C   LIG    1       -3.595  -0.532   0.028  0.00  0.00    +0.013 A 
ATOM      6  C   LIG    1       -3.655  -1.929   0.027  0.00  0.00    -0.003 A 
ATOM      7  C   LIG    1       -2.472  -2.676   0.017  0.00  0.00    +0.058 A 
ATOM      8  C   LIG    1       -1.252  -2.030   0.003  0.00  0.00    +0.159 A 
BRANCH   3  10
ATOM      9  C   LIG    1       -0.017   1.425   0.010  0.00  0.00    +0.277 C 
ATOM     10  O   LIG    1        0.002  -0.004   0.002  0.00  0.00    -0.491 OA
ENDBRANCH   3  10
BRANCH   8  11
ATOM     11  O   LIG    1       -0.100  -2.753  -0.012  0.00  0.00    -0.503 OA
ATOM     12  H   LIG    1        0.242  -2.967   0.867  0.00  0.00    +0.292 HD
ENDBRANCH   8  11
ENDBRANCH   1   6
BRANCH   2  13
ATOM     13  C   LIG    1       -7.272  -2.548   0.056  0.00  0.00    +0.064 A 
ATOM     14  C   LIG    1       -7.502  -3.632  -0.794  0.00  0.00    +0.029 A 
ATOM     15  C   LIG    1       -8.727  -4.267  -0.779  0.00  0.00    +0.030 A 
ATOM     16  C   LIG    1       -9.726  -3.832   0.073  0.00  0.00    +0.105 A 
ATOM     17  C   LIG    1       -9.504  -2.758   0.918  0.00  0.00    +0.030 A 
ATOM     18  C   LIG    1       -8.282  -2.118   0.918  0.00  0.00    +0.029 A 
BRANCH  16  19
ATOM     19  S   LIG    1      -11.287  -4.648   0.084  0.00  0.00    +0.056 S 
ATOM     20  O   LIG    1      -11.426  -5.275  -1.183  0.00  0.00    -0.153 OA
ATOM     21  O   LIG    1      -12.233  -3.709   0.578  0.00  0.00    -0.153 OA
BRANCH  19  22
ATOM     22  N   LIG    1      -11.197  -5.863   1.206  0.00  0.00    -0.204 NA
ATOM     23  H   LIG    1      -10.347  -6.295   1.385  0.00  0.00    +0.144 HD
ATOM     24  H   LIG    1      -11.993  -6.143   1.683  0.00  0.00    +0.144 HD
ENDBRANCH  19  22
ENDBRANCH  16  19
ENDBRANCH   2  13
TORSDOF 6
