REMARK  Name = ZINC00228758
REMARK                            x       y       z     vdW  Elec       q    Type
REMARK                         _______ _______ _______ _____ _____    ______ ____
ROOT
ATOM      1  C   LIG    1       -0.017   1.389   0.010  0.00  0.00    +0.002 A 
ATOM      2  C   LIG    1        1.137   2.114   0.003  0.00  0.00    +0.009 A 
ATOM      3  C   LIG    1        2.379   1.457  -0.011  0.00  0.00    -0.014 A 
ATOM      4  C   LIG    1        3.594   2.163  -0.014  0.00  0.00    +0.009 A 
ATOM      5  C   LIG    1        4.776   1.484  -0.023  0.00  0.00    +0.002 A 
ATOM      6  C   LIG    1        4.812   0.091  -0.031  0.00  0.00    +0.023 A 
ATOM      7  C   LIG    1        3.644  -0.634  -0.031  0.00  0.00    +0.038 A 
ATOM      8  N   LIG    1        3.643  -2.030  -0.043  0.00  0.00    -0.322 N 
ATOM      9  H   LIG    1        4.395  -2.527  -0.401  0.00  0.00    +0.148 HD
ATOM     10  C   LIG    1        2.465  -2.726   0.507  0.00  0.00    +0.187 C 
ATOM     11  N   LIG    1        1.254  -2.077  -0.027  0.00  0.00    -0.322 N 
ATOM     12  H   LIG    1        0.518  -2.604  -0.376  0.00  0.00    +0.148 HD
ATOM     13  C   LIG    1        1.198  -0.683  -0.014  0.00  0.00    +0.038 A 
ATOM     14  C   LIG    1        2.407   0.044  -0.020  0.00  0.00    +0.024 A 
ATOM     15  C   LIG    1        0.002  -0.004   0.002  0.00  0.00    +0.023 A 
ENDROOT
BRANCH  10  16
ATOM     16  C   LIG    1        2.473  -2.629   2.010  0.00  0.00    -0.009 A 
ATOM     17  C   LIG    1        1.278  -2.602   2.706  0.00  0.00    +0.010 A 
ATOM     18  C   LIG    1        1.282  -2.513   4.085  0.00  0.00    +0.046 A 
ATOM     19  C   LIG    1        2.487  -2.450   4.771  0.00  0.00    +0.117 A 
ATOM     20  C   LIG    1        3.684  -2.478   4.071  0.00  0.00    +0.046 A 
ATOM     21  C   LIG    1        3.674  -2.573   2.692  0.00  0.00    +0.010 A 
BRANCH  19  22
ATOM     22  O   LIG    1        2.493  -2.362   6.127  0.00  0.00    -0.507 OA
ATOM     23  H   LIG    1        2.508  -3.218   6.577  0.00  0.00    +0.292 HD
ENDBRANCH  19  22
ENDBRANCH  10  16
TORSDOF 2
