REMARK  Name = ZINC00294376
REMARK                            x       y       z     vdW  Elec       q    Type
REMARK                         _______ _______ _______ _____ _____    ______ ____
ROOT
ATOM      1  C   LIG    1       -1.052   2.003   0.618  0.00  0.00    +0.250 C 
ATOM      2  N   LIG    1       -0.017   1.392   0.010  0.00  0.00    -0.280 N 
ATOM      3  H   LIG    1        0.686   1.920  -0.400  0.00  0.00    +0.155 HD
ATOM      4  O   LIG    1       -1.883   1.345   1.214  0.00  0.00    -0.270 OA
ENDROOT
BRANCH   2   5
ATOM      5  C   LIG    1        0.041  -0.002  -0.036  0.00  0.00    +0.060 A 
ATOM      6  C   LIG    1       -1.114  -0.749   0.051  0.00  0.00    +0.025 A 
ATOM      7  C   LIG    1       -1.070  -2.139   0.007  0.00  0.00    +0.003 A 
ATOM      8  C   LIG    1        0.115  -2.799  -0.124  0.00  0.00    +0.010 A 
ATOM      9  C   LIG    1        1.313  -2.074  -0.217  0.00  0.00    +0.002 A 
ATOM     10  C   LIG    1        2.554  -2.726  -0.353  0.00  0.00    +0.011 A 
ATOM     11  C   LIG    1        3.680  -1.958  -0.438  0.00  0.00    +0.020 A 
ATOM     12  C   LIG    1        3.580  -0.569  -0.388  0.00  0.00    +0.111 A 
ATOM     13  N   LIG    1        2.423   0.034  -0.261  0.00  0.00    -0.253 NA
ATOM     14  C   LIG    1        1.284  -0.658  -0.178  0.00  0.00    +0.092 A 
ENDBRANCH   2   5
BRANCH   1  20
ATOM     15  C   LIG    1       -0.349   5.607  -0.170  0.00  0.00    +0.001 A 
ATOM     16  C   LIG    1       -1.414   6.233   0.456  0.00  0.00    +0.001 A 
ATOM     17  C   LIG    1       -2.361   5.488   1.134  0.00  0.00    +0.021 A 
ATOM     18  C   LIG    1       -2.250   4.112   1.192  0.00  0.00    +0.053 A 
ATOM     19 CL   LIG    1       -3.439   3.178   2.044  0.00  0.00    -0.083 Cl
ATOM     20  C   LIG    1       -1.178   3.474   0.562  0.00  0.00    +0.055 A 
ATOM     21  C   LIG    1       -0.223   4.235  -0.117  0.00  0.00    +0.014 A 
ENDBRANCH   1  20
TORSDOF 2
