REMARK  Name = ZINC00245648
REMARK                            x       y       z     vdW  Elec       q    Type
REMARK                         _______ _______ _______ _____ _____    ______ ____
ROOT
ATOM      1  C   LIG    1       -0.241   1.490   0.004  0.00  0.00    +0.065 C 
ATOM      2  C   LIG    1       -0.093  -0.009  -0.001  0.00  0.00    +0.041 A 
ATOM      3  C   LIG    1        0.060  -0.797  -1.102  0.00  0.00    +0.030 A 
ATOM      4  C   LIG    1        0.161  -2.139  -0.655  0.00  0.00    +0.104 A 
ATOM      5  N   LIG    1        0.070  -2.134   0.657  0.00  0.00    -0.173 NA
ATOM      6  N   LIG    1       -0.084  -0.810   1.085  0.00  0.00    -0.281 N 
ATOM      7  H   LIG    1       -0.171  -0.519   2.006  0.00  0.00    +0.189 HD
ENDROOT
BRANCH   3   8
ATOM      8  C   LIG    1        0.112  -0.335  -2.511  0.00  0.00    -0.010 A 
ATOM      9  C   LIG    1       -0.911  -0.673  -3.394  0.00  0.00    +0.012 A 
ATOM     10  C   LIG    1       -0.861  -0.243  -4.705  0.00  0.00    +0.050 A 
ATOM     11  C   LIG    1        0.206   0.526  -5.147  0.00  0.00    +0.162 A 
ATOM     12  C   LIG    1        1.228   0.869  -4.269  0.00  0.00    +0.163 A 
ATOM     13  O   LIG    1        2.278   1.629  -4.685  0.00  0.00    -0.485 OA
ATOM     14  C   LIG    1        2.480   1.730  -6.099  0.00  0.00    +0.270 C 
ATOM     15  C   LIG    1        1.124   2.016  -6.758  0.00  0.00    +0.270 C 
ATOM     16  O   LIG    1        0.237   0.936  -6.445  0.00  0.00    -0.485 OA
ATOM     17  C   LIG    1        1.180   0.443  -2.952  0.00  0.00    +0.058 A 
ENDBRANCH   3   8
BRANCH   4  18
ATOM     18  C   LIG    1        0.337  -3.334  -1.514  0.00  0.00    +0.044 A 
ATOM     19  C   LIG    1        1.301  -3.335  -2.521  0.00  0.00    +0.017 A 
ATOM     20  C   LIG    1        1.463  -4.449  -3.319  0.00  0.00    +0.046 A 
ATOM     21  C   LIG    1        0.668  -5.570  -3.122  0.00  0.00    +0.120 A 
ATOM     22  C   LIG    1       -0.293  -5.577  -2.122  0.00  0.00    +0.091 A 
ATOM     23  C   LIG    1       -0.459  -4.466  -1.313  0.00  0.00    +0.130 A 
BRANCH  21  24
ATOM     24  O   LIG    1        0.832  -6.664  -3.911  0.00  0.00    -0.507 OA
ATOM     25  H   LIG    1        1.474  -7.302  -3.571  0.00  0.00    +0.292 HD
ENDBRANCH  21  24
BRANCH  23  26
ATOM     26  O   LIG    1       -1.397  -4.473  -0.330  0.00  0.00    -0.506 OA
ATOM     27  H   LIG    1       -2.265  -4.156  -0.612  0.00  0.00    +0.292 HD
ENDBRANCH  23  26
ENDBRANCH   4  18
TORSDOF 4
