REMARK  Name = ZINC00104048
REMARK                            x       y       z     vdW  Elec       q    Type
REMARK                         _______ _______ _______ _____ _____    ______ ____
ROOT
ATOM      1  C   LIG    1       -0.149   1.182   2.380  0.00  0.00    +0.120 A 
ATOM      2  C   LIG    1        0.991   0.392   2.421  0.00  0.00    +0.046 A 
ATOM      3  C   LIG    1        1.534   0.028   3.638  0.00  0.00    +0.009 A 
ATOM      4  C   LIG    1        0.936   0.440   4.814  0.00  0.00    -0.029 A 
ATOM      5  C   LIG    1       -0.203   1.223   4.776  0.00  0.00    +0.009 A 
ATOM      6  C   LIG    1       -0.747   1.595   3.561  0.00  0.00    +0.046 A 
ENDROOT
BRANCH   1   8
ATOM      7  C   LIG    1       -0.013   1.086   0.008  0.00  0.00    +0.277 C 
ATOM      8  O   LIG    1       -0.682   1.547   1.184  0.00  0.00    -0.495 OA
ENDBRANCH   1   8
BRANCH   4   9
ATOM      9  C   LIG    1        1.527   0.036   6.140  0.00  0.00    +0.152 C 
BRANCH   9  10
ATOM     10  N   LIG    1        0.936  -1.234   6.571  0.00  0.00    -0.231 N 
ATOM     11  C   LIG    1       -0.170  -1.357   7.326  0.00  0.00    +0.246 C 
ATOM     12  C   LIG    1       -0.435  -2.798   7.535  0.00  0.00    +0.073 C 
ATOM     13  C   LIG    1        0.539  -3.468   6.897  0.00  0.00    +0.073 C 
ATOM     14  O   LIG    1       -0.840  -0.443   7.761  0.00  0.00    -0.270 OA
ATOM     15  C   LIG    1        1.420  -2.454   6.277  0.00  0.00    +0.246 C 
ATOM     16  O   LIG    1        2.412  -2.683   5.615  0.00  0.00    -0.270 OA
ENDBRANCH   9  10
ENDBRANCH   4   9
TORSDOF 3
