REMARK  Name = ZINC00155383
REMARK                            x       y       z     vdW  Elec       q    Type
REMARK                         _______ _______ _______ _____ _____    ______ ____
ROOT
ATOM      1  N   LIG    1        2.324   3.908  -0.000  0.00  0.00    -0.303 NA
ATOM      2  C   LIG    1        3.165   3.548  -1.150  0.00  0.00    +0.065 C 
ATOM      3  C   LIG    1        4.482   4.324  -1.079  0.00  0.00    -0.067 C 
ATOM      4  N   LIG    1        4.201   5.772  -1.076  0.00  0.00    +0.381 N 
ATOM      5  H   LIG    1        5.086   6.289  -1.020  0.00  0.00    -0.086 HD
ATOM      6  H   LIG    1        3.712   6.024  -1.942  0.00  0.00    -0.086 HD
ATOM      7  C   LIG    1        3.357   6.126   0.081  0.00  0.00    -0.067 C 
ATOM      8  C   LIG    1        2.040   5.350   0.010  0.00  0.00    +0.065 C 
ENDROOT
BRANCH   1  15
ATOM      9  C   LIG    1        1.177   1.773   0.000  0.00  0.00    +0.034 C 
ATOM     10  C   LIG    1       -0.013   1.076   0.008  0.00  0.00    +0.082 C 
ATOM     11  N   LIG    1       -1.238   1.669   0.017  0.00  0.00    -0.316 NA
ATOM     12  H   LIG    1       -2.107   1.122   0.014  0.00  0.00    +0.122 HD
ATOM     13  C   LIG    1       -1.241   3.030   0.029  0.00  0.00    +0.082 C 
ATOM     14  C   LIG    1       -0.097   3.800   0.022  0.00  0.00    +0.034 C 
ATOM     15  C   LIG    1        1.146   3.167   0.008  0.00  0.00    +0.059 C 
ENDBRANCH   1  15
TORSDOF 1
