REMARK  Name = ZINC00206382
REMARK                            x       y       z     vdW  Elec       q    Type
REMARK                         _______ _______ _______ _____ _____    ______ ____
ROOT
ATOM      1  C   LIG    1       -1.271  -0.767   0.013  0.00  0.00    +0.080 A 
ATOM      2  C   LIG    1       -1.256  -2.099  -0.289  0.00  0.00    +0.076 A 
ATOM      3  S   LIG    1       -3.009  -2.435  -0.404  0.00  0.00    -0.060 S 
ATOM      4  C   LIG    1       -3.579  -0.780  -0.042  0.00  0.00    +0.163 A 
ATOM      5  N   LIG    1       -2.438  -0.140   0.135  0.00  0.00    -0.225 NA
ENDROOT
BRANCH   1  12
ATOM      6  C   LIG    1       -0.020   1.329   0.521  0.00  0.00    +0.011 A 
ATOM      7  C   LIG    1        1.166   2.011   0.702  0.00  0.00    +0.020 A 
ATOM      8  C   LIG    1        2.375   1.349   0.573  0.00  0.00    +0.041 A 
ATOM      9 CL   LIG    1        3.863   2.213   0.801  0.00  0.00    -0.084 Cl
ATOM     10  C   LIG    1        2.401   0.000   0.263  0.00  0.00    +0.020 A 
ATOM     11  C   LIG    1        1.220  -0.691   0.079  0.00  0.00    +0.011 A 
ATOM     12  C   LIG    1        0.001  -0.029   0.208  0.00  0.00    +0.001 A 
ENDBRANCH   1  12
BRANCH   4  13
ATOM     13  N   LIG    1       -4.876  -0.299   0.038  0.00  0.00    -0.294 N 
ATOM     14  H   LIG    1       -5.034   0.650   0.163  0.00  0.00    +0.154 HD
BRANCH  13  15
ATOM     15  C   LIG    1       -5.958  -1.181  -0.060  0.00  0.00    +0.033 A 
ATOM     16  C   LIG    1       -5.889  -2.435   0.534  0.00  0.00    +0.027 A 
ATOM     17  C   LIG    1       -6.957  -3.305   0.436  0.00  0.00    +0.047 A 
ATOM     18  C   LIG    1       -8.098  -2.928  -0.255  0.00  0.00    +0.117 A 
ATOM     19  C   LIG    1       -8.168  -1.676  -0.849  0.00  0.00    +0.047 A 
ATOM     20  C   LIG    1       -7.104  -0.802  -0.748  0.00  0.00    +0.027 A 
BRANCH  18  21
ATOM     21  O   LIG    1       -9.149  -3.785  -0.352  0.00  0.00    -0.507 OA
ATOM     22  H   LIG    1       -9.794  -3.700   0.364  0.00  0.00    +0.292 HD
ENDBRANCH  18  21
ENDBRANCH  13  15
ENDBRANCH   4  13
TORSDOF 4
