REMARK  Name = ZINC00325294
REMARK                            x       y       z     vdW  Elec       q    Type
REMARK                         _______ _______ _______ _____ _____    ______ ____
ROOT
ATOM      1  C   LIG    1        0.002  -0.004   0.002  0.00  0.00    +0.074 A 
ATOM      2  C   LIG    1       -0.017   1.381   0.010  0.00  0.00    +0.097 A 
ATOM      3  N   LIG    1        1.255   1.809  -0.000  0.00  0.00    -0.224 NA
ATOM      4  C   LIG    1        2.069   0.774  -0.013  0.00  0.00    +0.175 A 
ATOM      5  N   LIG    1        1.328  -0.376  -0.013  0.00  0.00    -0.335 N 
ATOM      6  H   LIG    1        1.683  -1.311  -0.021  0.00  0.00    +0.167 HD
ENDROOT
BRANCH   1  10
ATOM      7  C   LIG    1       -3.363  -2.592   0.021  0.00  0.00    +0.000 A 
ATOM      8  C   LIG    1       -2.308  -2.840  -0.839  0.00  0.00    +0.001 A 
ATOM      9  C   LIG    1       -1.212  -2.004  -0.851  0.00  0.00    +0.010 A 
ATOM     10  C   LIG    1       -1.168  -0.903   0.009  0.00  0.00    +0.000 A 
ATOM     11  C   LIG    1       -2.234  -0.662   0.879  0.00  0.00    +0.010 A 
ATOM     12  C   LIG    1       -3.326  -1.504   0.876  0.00  0.00    +0.001 A 
ENDBRANCH   1  10
BRANCH   2  13
ATOM     13  C   LIG    1       -1.226   2.237   0.020  0.00  0.00    +0.002 A 
ATOM     14  C   LIG    1       -2.370   1.842  -0.673  0.00  0.00    +0.010 A 
ATOM     15  C   LIG    1       -3.494   2.641  -0.654  0.00  0.00    +0.001 A 
ATOM     16  C   LIG    1       -3.485   3.837   0.040  0.00  0.00    +0.000 A 
ATOM     17  C   LIG    1       -2.352   4.237   0.725  0.00  0.00    +0.001 A 
ATOM     18  C   LIG    1       -1.222   3.444   0.719  0.00  0.00    +0.010 A 
ENDBRANCH   2  13
BRANCH   4  19
ATOM     19  C   LIG    1        3.537   0.843  -0.028  0.00  0.00    +0.170 A 
ATOM     20  C   LIG    1        4.285   1.983  -0.034  0.00  0.00    +0.053 A 
ATOM     21  C   LIG    1        5.634   1.582  -0.044  0.00  0.00    +0.042 A 
ATOM     22  C   LIG    1        5.646   0.233  -0.052  0.00  0.00    +0.196 A 
ATOM     23  O   LIG    1        4.379  -0.210  -0.042  0.00  0.00    -0.460 OA
ENDBRANCH   4  19
TORSDOF 3
