REMARK  Name = ZINC00115253
REMARK                            x       y       z     vdW  Elec       q    Type
REMARK                         _______ _______ _______ _____ _____    ______ ____
ROOT
ATOM      1  C   LIG    1       -1.281   4.059   0.130  0.00  0.00    +0.278 C 
ATOM      2  N   LIG    1       -0.408   3.032   0.117  0.00  0.00    -0.203 N 
ATOM      3  C   LIG    1        0.951   3.135   0.113  0.00  0.00    +0.118 A 
ATOM      4  C   LIG    1        1.461   1.887   0.100  0.00  0.00    +0.054 A 
ATOM      5  C   LIG    1        0.380   0.977   0.096  0.00  0.00    +0.148 A 
ATOM      6  N   LIG    1       -0.739   1.671   0.100  0.00  0.00    -0.159 NA
ATOM      7  O   LIG    1       -0.875   5.201   0.043  0.00  0.00    -0.265 OA
ENDROOT
BRANCH   1  11
ATOM      8  C   LIG    1       -5.445   3.304   0.471  0.00  0.00    +0.000 A 
ATOM      9  C   LIG    1       -4.977   4.606   0.496  0.00  0.00    +0.001 A 
ATOM     10  C   LIG    1       -3.625   4.859   0.386  0.00  0.00    +0.013 A 
ATOM     11  C   LIG    1       -2.728   3.797   0.249  0.00  0.00    +0.041 A 
ATOM     12  C   LIG    1       -3.209   2.485   0.218  0.00  0.00    +0.013 A 
ATOM     13  C   LIG    1       -4.562   2.247   0.335  0.00  0.00    +0.001 A 
ENDBRANCH   1  11
BRANCH   5  14
ATOM     14  C   LIG    1        0.487  -0.497   0.082  0.00  0.00    +0.268 C 
ATOM     15  N   LIG    1       -0.628  -1.254   0.079  0.00  0.00    -0.280 N 
ATOM     16  H   LIG    1       -1.499  -0.834   0.149  0.00  0.00    +0.155 HD
ATOM     17  O   LIG    1        1.581  -1.027   0.073  0.00  0.00    -0.268 OA
BRANCH  15  18
ATOM     18  C   LIG    1       -0.529  -2.645  -0.025  0.00  0.00    +0.034 A 
ATOM     19  C   LIG    1       -1.493  -3.362  -0.722  0.00  0.00    +0.023 A 
ATOM     20  C   LIG    1       -1.389  -4.735  -0.827  0.00  0.00    +0.002 A 
ATOM     21  C   LIG    1       -0.333  -5.397  -0.229  0.00  0.00    +0.000 A 
ATOM     22  C   LIG    1        0.626  -4.688   0.470  0.00  0.00    +0.002 A 
ATOM     23  C   LIG    1        0.531  -3.314   0.574  0.00  0.00    +0.023 A 
ENDBRANCH  15  18
ENDBRANCH   5  14
TORSDOF 3
