REMARK  Name = ZINC00089409
REMARK                            x       y       z     vdW  Elec       q    Type
REMARK                         _______ _______ _______ _____ _____    ______ ____
ROOT
ATOM      1  C   LIG    1        0.000   1.080   2.488  0.00  0.00    -0.026 A 
ATOM      2  C   LIG    1       -0.410  -0.083   3.110  0.00  0.00    +0.005 A 
ATOM      3  C   LIG    1        0.258  -0.542   4.230  0.00  0.00    +0.000 A 
ATOM      4  C   LIG    1        1.339   0.162   4.731  0.00  0.00    +0.002 A 
ATOM      5  C   LIG    1        1.752   1.326   4.113  0.00  0.00    +0.024 A 
ATOM      6  C   LIG    1        1.087   1.786   2.985  0.00  0.00    +0.048 A 
ENDROOT
BRANCH   6   7
ATOM      7  N   LIG    1        1.509   2.963   2.352  0.00  0.00    -0.203 N 
ATOM      8  C   LIG    1        1.065   4.200   2.639  0.00  0.00    +0.250 C 
ATOM      9  C   LIG    1        1.758   5.162   1.754  0.00  0.00    +0.073 C 
ATOM     10  C   LIG    1        2.581   4.446   0.970  0.00  0.00    +0.073 C 
ATOM     11  O   LIG    1        0.238   4.479   3.482  0.00  0.00    -0.270 OA
ATOM     12  C   LIG    1        2.416   3.028   1.360  0.00  0.00    +0.250 C 
ATOM     13  O   LIG    1        3.000   2.084   0.869  0.00  0.00    -0.270 OA
ENDBRANCH   6   7
BRANCH   1  15
ATOM     14  C   LIG    1       -0.013   1.086   0.008  0.00  0.00    +0.009 C 
ATOM     15  C   LIG    1       -0.729   1.579   1.267  0.00  0.00    +0.033 C 
ENDBRANCH   1  15
TORSDOF 2
