REMARK  Name = ZINC00128953
REMARK                            x       y       z     vdW  Elec       q    Type
REMARK                         _______ _______ _______ _____ _____    ______ ____
ROOT
ATOM      1  C   LIG    1        2.438  -0.437  -1.202  0.00  0.00    +0.105 A 
ATOM      2  C   LIG    1        2.926   0.656  -1.894  0.00  0.00    +0.031 A 
ATOM      3  C   LIG    1        4.275   0.953  -1.855  0.00  0.00    +0.034 A 
ATOM      4  C   LIG    1        5.137   0.158  -1.123  0.00  0.00    +0.122 A 
ATOM      5  C   LIG    1        4.650  -0.935  -0.431  0.00  0.00    +0.034 A 
ATOM      6  C   LIG    1        3.300  -1.230  -0.466  0.00  0.00    +0.031 A 
ENDROOT
BRANCH   1   7
ATOM      7  S   LIG    1        0.718  -0.816  -1.251  0.00  0.00    +0.058 S 
ATOM      8  O   LIG    1        0.211  -0.243  -2.449  0.00  0.00    -0.153 OA
ATOM      9  O   LIG    1        0.599  -2.201  -0.959  0.00  0.00    -0.153 OA
BRANCH   7  11
ATOM     10  C   LIG    1       -0.018   1.461   0.010  0.00  0.00    +0.127 C 
ATOM     11  N   LIG    1        0.002  -0.004   0.002  0.00  0.00    -0.193 NA
ATOM     12  H   LIG    1       -0.404  -0.499   0.731  0.00  0.00    +0.148 HD
ENDBRANCH   7  11
ENDBRANCH   1   7
BRANCH   4  13
ATOM     13  N   LIG    1        6.583   0.475  -1.083  0.00  0.00    +0.006 N 
ATOM     14  O   LIG    1        7.009   1.430  -1.689  0.00  0.00    -0.130 OA
BRANCH  13  15
ATOM     15  O   LIG    1        7.337  -0.221  -0.443  0.00  0.00    -0.396 OA
ATOM     16  H   LIG    1        7.006  -0.961   0.027  0.00  0.00    +0.329 HD
ENDBRANCH  13  15
ENDBRANCH   4  13
TORSDOF 4
