REMARK  Name = ZINC00119304
REMARK                            x       y       z     vdW  Elec       q    Type
REMARK                         _______ _______ _______ _____ _____    ______ ____
ROOT
ATOM      1  C   LIG    1        5.319  -1.605   1.467  0.00  0.00    +0.121 A 
ATOM      2  C   LIG    1        6.048  -2.007   0.357  0.00  0.00    +0.047 A 
ATOM      3  C   LIG    1        7.245  -2.676   0.521  0.00  0.00    +0.026 A 
ATOM      4  C   LIG    1        7.719  -2.947   1.798  0.00  0.00    +0.025 A 
ATOM      5  C   LIG    1        6.989  -2.545   2.908  0.00  0.00    +0.026 A 
ATOM      6  C   LIG    1        5.795  -1.870   2.742  0.00  0.00    +0.047 A 
ENDROOT
BRANCH   4   7
ATOM      7  N   LIG    1        8.931  -3.626   1.965  0.00  0.00    -0.358 N 
ATOM      8  H   LIG    1        9.262  -3.815   2.857  0.00  0.00    +0.142 HD
ATOM      9  H   LIG    1        9.441  -3.907   1.189  0.00  0.00    +0.142 HD
ENDBRANCH   4   7
BRANCH   1  10
ATOM     10  O   LIG    1        4.141  -0.946   1.304  0.00  0.00    -0.487 OA
BRANCH  10  11
ATOM     11  C   LIG    1        3.711  -0.707  -0.038  0.00  0.00    +0.264 C 
BRANCH  11  15
ATOM     12  C   LIG    1       -0.017   1.378   0.010  0.00  0.00    +0.000 A 
ATOM     13  C   LIG    1        1.171   2.086   0.002  0.00  0.00    +0.000 A 
ATOM     14  C   LIG    1        2.377   1.411  -0.013  0.00  0.00    +0.007 A 
ATOM     15  C   LIG    1        2.396   0.029  -0.020  0.00  0.00    -0.010 A 
ATOM     16  C   LIG    1        1.208  -0.679  -0.012  0.00  0.00    +0.007 A 
ATOM     17  C   LIG    1        0.002  -0.004   0.002  0.00  0.00    +0.000 A 
ENDBRANCH  11  15
ENDBRANCH  10  11
ENDBRANCH   1  10
TORSDOF 4
