REMARK  Name = ZINC00109841
REMARK                            x       y       z     vdW  Elec       q    Type
REMARK                         _______ _______ _______ _____ _____    ______ ____
ROOT
ATOM      1  C   LIG    1        2.545  -1.486  -0.031  0.00  0.00    +0.026 A 
ATOM      2  C   LIG    1        2.084  -2.791  -0.028  0.00  0.00    +0.017 A 
ATOM      3  C   LIG    1        3.000  -3.812  -0.049  0.00  0.00    +0.017 A 
ATOM      4  C   LIG    1        4.347  -3.496  -0.060  0.00  0.00    +0.026 A 
ATOM      5  S   LIG    1        4.315  -1.711  -0.049  0.00  0.00    -0.087 S 
ENDROOT
BRANCH   1   8
ATOM      6  C   LIG    1        1.300   2.088   0.001  0.00  0.00    +0.008 A 
ATOM      7  C   LIG    1        2.228   1.071  -0.013  0.00  0.00    +0.016 A 
ATOM      8  C   LIG    1        1.772  -0.234  -0.016  0.00  0.00    +0.026 A 
ATOM      9  S   LIG    1        0.002  -0.004   0.002  0.00  0.00    -0.096 S 
ATOM     10  C   LIG    1       -0.022   1.781   0.012  0.00  0.00    +0.046 A 
ENDBRANCH   1   8
BRANCH   4  11
ATOM     11  C   LIG    1        5.508  -4.399  -0.076  0.00  0.00    +0.026 A 
ATOM     12  C   LIG    1        6.855  -4.087  -0.092  0.00  0.00    +0.016 A 
ATOM     13  C   LIG    1        7.766  -5.120  -0.103  0.00  0.00    +0.008 A 
ATOM     14  C   LIG    1        7.317  -6.401  -0.107  0.00  0.00    +0.046 A 
ATOM     15  S   LIG    1        5.546  -6.184  -0.089  0.00  0.00    -0.096 S 
ENDBRANCH   4  11
TORSDOF 2
