REMARK  Name = ZINC00266941
REMARK                            x       y       z     vdW  Elec       q    Type
REMARK                         _______ _______ _______ _____ _____    ______ ____
ROOT
ATOM      1  C   LIG    1       -1.169  -2.106   0.002  0.00  0.00    +0.047 A 
ATOM      2  C   LIG    1        0.048  -2.778  -0.013  0.00  0.00    +0.027 A 
ATOM      3  C   LIG    1        1.234  -2.071  -0.021  0.00  0.00    +0.023 A 
ATOM      4  C   LIG    1        1.220  -0.689  -0.013  0.00  0.00    +0.055 A 
ATOM      5 CL   LIG    1        2.714   0.195  -0.022  0.00  0.00    -0.083 Cl
ATOM      6  C   LIG    1        0.002  -0.004   0.002  0.00  0.00    +0.079 A 
ATOM      7  C   LIG    1       -1.196  -0.721   0.015  0.00  0.00    +0.042 A 
ENDROOT
BRANCH   1  14
ATOM      8  C   LIG    1       -3.226  -2.053  -2.274  0.00  0.00    +0.064 C 
ATOM      9  C   LIG    1       -3.306  -2.830  -0.985  0.00  0.00    +0.021 A 
ATOM     10  C   LIG    1       -4.313  -3.647  -0.615  0.00  0.00    +0.023 A 
ATOM     11  C   LIG    1       -3.993  -4.164   0.656  0.00  0.00    +0.023 A 
ATOM     12  C   LIG    1       -2.800  -3.648   1.015  0.00  0.00    +0.021 A 
ATOM     13  C   LIG    1       -2.068  -3.926   2.302  0.00  0.00    +0.064 C 
ATOM     14  N   LIG    1       -2.370  -2.830   0.009  0.00  0.00    -0.318 N 
ENDBRANCH   1  14
BRANCH   6  15
ATOM     15  C   LIG    1       -0.018   1.472   0.010  0.00  0.00    +0.338 C 
ATOM     16  O   LIG    1        1.026   2.094   0.004  0.00  0.00    -0.245 OA
BRANCH  15  17
ATOM     17  O   LIG    1       -1.194   2.130   0.019  0.00  0.00    -0.477 OA
ATOM     18  H   LIG    1       -1.999   1.651   0.024  0.00  0.00    +0.295 HD
ENDBRANCH  15  17
ENDBRANCH   6  15
TORSDOF 3
