REMARK  Name = ZINC00205636
REMARK                            x       y       z     vdW  Elec       q    Type
REMARK                         _______ _______ _______ _____ _____    ______ ____
ROOT
ATOM      1  C   LIG    1       -1.238   1.778   0.028  0.00  0.00    +0.129 A 
ATOM      2  C   LIG    1       -1.281   3.163   0.108  0.00  0.00    +0.047 A 
ATOM      3  C   LIG    1       -0.111   3.901   0.112  0.00  0.00    +0.017 A 
ATOM      4  C   LIG    1        1.114   3.253   0.040  0.00  0.00    +0.050 A 
ATOM      5  C   LIG    1        1.161   1.845  -0.036  0.00  0.00    +0.053 A 
ATOM      6  C   LIG    1        2.596   1.492  -0.099  0.00  0.00    +0.254 C 
ATOM      7  N   LIG    1        3.317   2.627  -0.059  0.00  0.00    -0.223 N 
ATOM      8  O   LIG    1        3.047   0.367  -0.172  0.00  0.00    -0.270 OA
ATOM      9  C   LIG    1        2.518   3.706   0.022  0.00  0.00    +0.254 C 
ATOM     10  O   LIG    1        2.891   4.861   0.073  0.00  0.00    -0.270 OA
ATOM     11  C   LIG    1       -0.014   1.115  -0.040  0.00  0.00    +0.060 A 
ENDROOT
BRANCH   1  12
ATOM     12  O   LIG    1       -2.393   1.065   0.019  0.00  0.00    -0.456 OA
BRANCH  12  17
ATOM     13  C   LIG    1       -5.761   1.543  -4.470  0.00  0.00    +0.044 C 
ATOM     14  C   LIG    1       -4.860   1.415  -3.269  0.00  0.00    -0.050 A 
ATOM     15  C   LIG    1       -5.277   0.692  -2.166  0.00  0.00    +0.007 A 
ATOM     16  C   LIG    1       -4.453   0.574  -1.064  0.00  0.00    +0.046 A 
ATOM     17  C   LIG    1       -3.205   1.181  -1.064  0.00  0.00    +0.128 A 
ATOM     18  C   LIG    1       -2.791   1.910  -2.169  0.00  0.00    +0.046 A 
ATOM     19  C   LIG    1       -3.617   2.021  -3.271  0.00  0.00    +0.007 A 
ENDBRANCH  12  17
ENDBRANCH   1  12
BRANCH   7  20
ATOM     20  C   LIG    1        4.780   2.680  -0.101  0.00  0.00    +0.237 C 
BRANCH  20  21
ATOM     21  C   LIG    1        5.239   2.775  -1.534  0.00  0.00    +0.323 C 
ATOM     22  O   LIG    1        4.427   2.796  -2.428  0.00  0.00    -0.249 OA
BRANCH  21  23
ATOM     23  O   LIG    1        6.550   2.837  -1.816  0.00  0.00    -0.480 OA
ATOM     24  H   LIG    1        7.180   2.821  -1.122  0.00  0.00    +0.295 HD
ENDBRANCH  21  23
ENDBRANCH  20  21
ENDBRANCH   7  20
TORSDOF 5
