REMARK  Name = ZINC00319145
REMARK                            x       y       z     vdW  Elec       q    Type
REMARK                         _______ _______ _______ _____ _____    ______ ____
ROOT
ATOM      1  C   LIG    1       -3.014  -2.361   0.018  0.00  0.00    +0.144 C 
ENDROOT
BRANCH   1   2
ATOM      2  C   LIG    1       -3.019  -3.790   0.496  0.00  0.00    +0.021 A 
ATOM      3  C   LIG    1       -1.823  -4.502   0.541  0.00  0.00    +0.010 A 
ATOM      4  C   LIG    1       -1.793  -5.795   0.968  0.00  0.00    +0.010 A 
ATOM      5  C   LIG    1       -2.983  -6.423   1.371  0.00  0.00    +0.004 A 
ATOM      6  C   LIG    1       -2.992  -7.757   1.819  0.00  0.00    +0.011 A 
ATOM      7  C   LIG    1       -4.187  -8.303   2.195  0.00  0.00    +0.020 A 
ATOM      8  C   LIG    1       -5.351  -7.540   2.128  0.00  0.00    +0.111 A 
ATOM      9  N   LIG    1       -5.338  -6.298   1.710  0.00  0.00    -0.251 NA
ATOM     10  C   LIG    1       -4.204  -5.705   1.328  0.00  0.00    +0.113 A 
ATOM     11  C   LIG    1       -4.195  -4.365   0.885  0.00  0.00    +0.148 A 
BRANCH  11  12
ATOM     12  O   LIG    1       -5.351  -3.654   0.840  0.00  0.00    -0.504 OA
ATOM     13  H   LIG    1       -5.824  -3.724  -0.001  0.00  0.00    +0.292 HD
ENDBRANCH  11  12
ENDBRANCH   1   2
BRANCH   1  14
ATOM     14  C   LIG    1       -3.394  -2.318  -1.440  0.00  0.00    +0.015 A 
ATOM     15  C   LIG    1       -4.590  -2.015  -2.002  0.00  0.00    +0.013 A 
ATOM     16  C   LIG    1       -4.708  -2.039  -3.379  0.00  0.00    +0.008 A 
ATOM     17  C   LIG    1       -3.625  -2.365  -4.126  0.00  0.00    +0.045 A 
ATOM     18  S   LIG    1       -2.384  -2.645  -2.875  0.00  0.00    -0.099 S 
ENDBRANCH   1  14
BRANCH   1  20
ATOM     19  C   LIG    1       -1.313  -1.270   1.380  0.00  0.00    +0.213 C 
ATOM     20  N   LIG    1       -1.675  -1.792   0.191  0.00  0.00    -0.304 N 
ATOM     21  H   LIG    1       -1.049  -1.792  -0.550  0.00  0.00    +0.150 HD
ATOM     22  O   LIG    1       -2.096  -1.271   2.306  0.00  0.00    -0.276 OA
BRANCH  19  24
ATOM     23  C   LIG    1        0.216  -0.166   2.988  0.00  0.00    +0.013 C 
ATOM     24  C   LIG    1        0.064  -0.685   1.558  0.00  0.00    +0.092 C 
ENDBRANCH  19  24
ENDBRANCH   1  20
TORSDOF 5
