REMARK  Name = ZINC00122248
REMARK                            x       y       z     vdW  Elec       q    Type
REMARK                         _______ _______ _______ _____ _____    ______ ____
ROOT
ATOM      1  C   LIG    1        5.337  -1.615   1.574  0.00  0.00    +0.130 A 
ATOM      2  C   LIG    1        5.779  -1.868   2.896  0.00  0.00    +0.041 A 
ATOM      3  C   LIG    1        5.044  -1.464   4.016  0.00  0.00    +0.028 A 
ATOM      4  C   LIG    1        5.520  -1.735   5.266  0.00  0.00    +0.019 A 
ATOM      5 BR   LIG    1        4.528  -1.189   6.781  0.00  0.00    -0.050 Br
ATOM      6  C   LIG    1        6.726  -2.409   5.441  0.00  0.00    +0.017 A 
ATOM      7  C   LIG    1        7.465  -2.816   4.370  0.00  0.00    +0.029 A 
ATOM      8  C   LIG    1        7.005  -2.553   3.072  0.00  0.00    +0.076 A 
ATOM      9  N   LIG    1        7.694  -2.932   1.985  0.00  0.00    -0.235 NA
ATOM     10  C   LIG    1        7.236  -2.671   0.783  0.00  0.00    +0.223 A 
ATOM     11  N   LIG    1        6.093  -2.039   0.570  0.00  0.00    -0.220 NA
ENDROOT
BRANCH   1  12
ATOM     12  N   LIG    1        4.152  -0.952   1.338  0.00  0.00    -0.324 N 
ATOM     13  H   LIG    1        3.610  -0.648   2.082  0.00  0.00    +0.148 HD
BRANCH  12  14
ATOM     14  C   LIG    1        3.711  -0.707  -0.038  0.00  0.00    +0.138 C 
BRANCH  14  18
ATOM     15  C   LIG    1       -0.017   1.378   0.010  0.00  0.00    +0.000 A 
ATOM     16  C   LIG    1        1.171   2.086   0.002  0.00  0.00    +0.000 A 
ATOM     17  C   LIG    1        2.377   1.411  -0.013  0.00  0.00    +0.005 A 
ATOM     18  C   LIG    1        2.396   0.029  -0.020  0.00  0.00    -0.030 A 
ATOM     19  C   LIG    1        1.208  -0.679  -0.012  0.00  0.00    +0.005 A 
ATOM     20  C   LIG    1        0.002  -0.004   0.002  0.00  0.00    +0.000 A 
ENDBRANCH  14  18
ENDBRANCH  12  14
ENDBRANCH   1  12
TORSDOF 3
