REMARK  Name = ZINC00129876
REMARK                            x       y       z     vdW  Elec       q    Type
REMARK                         _______ _______ _______ _____ _____    ______ ____
ROOT
ATOM      1  S   LIG    1        6.619  -3.697   0.290  0.00  0.00    +0.061 S 
ATOM      2  O   LIG    1        7.426  -3.592   1.455  0.00  0.00    -0.153 OA
ATOM      3  O   LIG    1        7.134  -4.144  -0.957  0.00  0.00    -0.153 OA
ENDROOT
BRANCH   1   4
ATOM      4  C   LIG    1        5.284  -4.773   0.697  0.00  0.00    +0.106 A 
ATOM      5  C   LIG    1        4.902  -4.918   2.030  0.00  0.00    +0.029 A 
ATOM      6  C   LIG    1        3.875  -5.741   2.378  0.00  0.00    +0.010 A 
ATOM      7  C   LIG    1        3.188  -6.456   1.382  0.00  0.00    -0.018 A 
ATOM      8  C   LIG    1        2.122  -7.314   1.704  0.00  0.00    +0.008 A 
ATOM      9  C   LIG    1        1.480  -7.990   0.713  0.00  0.00    +0.001 A 
ATOM     10  C   LIG    1        1.861  -7.844  -0.620  0.00  0.00    +0.001 A 
ATOM     11  C   LIG    1        2.888  -7.021  -0.969  0.00  0.00    +0.008 A 
ATOM     12  C   LIG    1        3.576  -6.307   0.028  0.00  0.00    -0.016 A 
ATOM     13  C   LIG    1        4.637  -5.444  -0.294  0.00  0.00    +0.037 A 
ENDBRANCH   1   4
BRANCH   1  17
ATOM     14  C   LIG    1        3.695  -0.685  -0.038  0.00  0.00    -0.042 C 
ATOM     15  C   LIG    1        4.476  -0.564   1.008  0.00  0.00    -0.006 C 
ATOM     16  C   LIG    1        5.823  -1.224   1.117  0.00  0.00    +0.137 C 
ATOM     17  N   LIG    1        5.973  -2.195   0.024  0.00  0.00    -0.173 NA
ATOM     18  C   LIG    1        5.529  -1.779  -1.317  0.00  0.00    +0.114 C 
ATOM     19  C   LIG    1        4.021  -1.508  -1.249  0.00  0.00    +0.052 C 
BRANCH  14  23
ATOM     20  C   LIG    1       -0.017   1.379   0.010  0.00  0.00    +0.000 A 
ATOM     21  C   LIG    1        1.168   2.093   0.002  0.00  0.00    +0.001 A 
ATOM     22  C   LIG    1        2.377   1.429  -0.013  0.00  0.00    +0.008 A 
ATOM     23  C   LIG    1        2.403   0.034  -0.021  0.00  0.00    -0.022 A 
ATOM     24  C   LIG    1        1.204  -0.681  -0.013  0.00  0.00    +0.008 A 
ATOM     25  C   LIG    1        0.002  -0.004   0.002  0.00  0.00    +0.001 A 
ENDBRANCH  14  23
ENDBRANCH   1  17
TORSDOF 3
