REMARK  Name = ZINC00120368
REMARK                            x       y       z     vdW  Elec       q    Type
REMARK                         _______ _______ _______ _____ _____    ______ ____
ROOT
ATOM      1  C   LIG    1       -2.995   3.782   0.052  0.00  0.00    +0.121 A 
ATOM      2  C   LIG    1       -3.399   2.452   0.048  0.00  0.00    +0.047 A 
ATOM      3  C   LIG    1       -2.494   1.407   0.033  0.00  0.00    +0.030 A 
ATOM      4  C   LIG    1       -1.141   1.738   0.016  0.00  0.00    +0.047 A 
ATOM      5  C   LIG    1       -0.725   3.094   0.026  0.00  0.00    +0.006 A 
ATOM      6  C   LIG    1        0.721   3.067   0.011  0.00  0.00    -0.022 A 
ATOM      7  C   LIG    1        1.097   1.768   0.001  0.00  0.00    +0.017 A 
ATOM      8  CA  LIG    1        2.542   1.330  -0.013  0.00  0.00    +0.087 C 
ATOM      9  N   LIG    1        3.390   2.473   0.395  0.00  0.00    +0.392 N 
ATOM     10  H1  LIG    1        3.224   2.680   1.387  0.00  0.00    -0.084 HD
ATOM     11  H2  LIG    1        4.377   2.227   0.257  0.00  0.00    -0.084 HD
ATOM     12  C   LIG    1        3.070   3.669  -0.412  0.00  0.00    -0.076 C 
ATOM     13  C   LIG    1        1.698   4.216   0.003  0.00  0.00    +0.018 C 
ATOM     14  N   LIG    1       -0.011   0.966   0.007  0.00  0.00    -0.359 N 
ATOM     15  H   LIG    1        0.002  -0.004   0.002  0.00  0.00    +0.166 HD
ATOM     16  C   LIG    1       -1.655   4.139   0.042  0.00  0.00    +0.056 A 
ENDROOT
BRANCH   1  18
ATOM     17  C   LIG    1       -5.306   4.342   0.078  0.00  0.00    +0.277 C 
ATOM     18  O   LIG    1       -3.940   4.760   0.067  0.00  0.00    -0.495 OA
ENDBRANCH   1  18
BRANCH   8  19
ATOM     19  C   LIG    1        2.737   0.197   0.961  0.00  0.00    +0.296 C 
ATOM     20  O   LIG    1        3.204   0.413   2.054  0.00  0.00    -0.252 OA
BRANCH  19  21
ATOM     21  OXT LIG    1        2.392  -1.053   0.614  0.00  0.00    -0.481 OA
ATOM     22  HXT LIG    1        2.030  -1.221  -0.234  0.00  0.00    +0.295 HD
ENDBRANCH  19  21
ENDBRANCH   8  19
TORSDOF 3
