REMARK  Name = ZINC00141234
REMARK                            x       y       z     vdW  Elec       q    Type
REMARK                         _______ _______ _______ _____ _____    ______ ____
ROOT
ATOM      1  C   LIG    1        0.723  -0.489  -1.229  0.00  0.00    -0.037 A 
ATOM      2  C   LIG    1        0.037  -1.204  -2.194  0.00  0.00    +0.008 A 
ATOM      3  C   LIG    1        0.696  -1.649  -3.324  0.00  0.00    +0.046 A 
ATOM      4  C   LIG    1        2.046  -1.379  -3.490  0.00  0.00    +0.121 A 
ATOM      5  C   LIG    1        2.732  -0.661  -2.521  0.00  0.00    +0.046 A 
ATOM      6  C   LIG    1        2.068  -0.213  -1.395  0.00  0.00    +0.008 A 
ENDROOT
BRANCH   1   8
ATOM      7  C   LIG    1       -1.120   0.953  -0.407  0.00  0.00    +0.021 C 
ATOM      8  C   LIG    1        0.002  -0.004   0.002  0.00  0.00    +0.015 C 
ATOM      9  C   LIG    1        0.988   0.727   0.915  0.00  0.00    +0.021 C 
BRANCH   8  10
ATOM     10  C   LIG    1       -0.585  -1.182   0.737  0.00  0.00    -0.037 A 
ATOM     11  C   LIG    1        0.225  -2.238   1.108  0.00  0.00    +0.004 A 
ATOM     12  C   LIG    1       -0.313  -3.318   1.782  0.00  0.00    +0.000 A 
ATOM     13  C   LIG    1       -1.662  -3.342   2.085  0.00  0.00    +0.000 A 
ATOM     14  C   LIG    1       -2.472  -2.285   1.714  0.00  0.00    +0.000 A 
ATOM     15  C   LIG    1       -1.933  -1.202   1.044  0.00  0.00    +0.004 A 
ENDBRANCH   8  10
ENDBRANCH   1   8
BRANCH   4  16
ATOM     16  O   LIG    1        2.697  -1.817  -4.600  0.00  0.00    -0.483 OA
BRANCH  16  17
ATOM     17  C   LIG    1        4.087  -1.502  -4.704  0.00  0.00    +0.324 C 
BRANCH  17  18
ATOM     18  C   LIG    1        4.634  -2.065  -5.990  0.00  0.00    +0.251 C 
ATOM     19  N   LIG    1        5.933  -1.890  -6.304  0.00  0.00    -0.310 N 
ATOM     20  H   LIG    1        6.516  -1.401  -5.701  0.00  0.00    +0.149 HD
ATOM     21  O   LIG    1        3.905  -2.676  -6.744  0.00  0.00    -0.272 OA
BRANCH  19  22
ATOM     22  C   LIG    1        6.465  -2.437  -7.554  0.00  0.00    +0.073 C 
ATOM     23  C   LIG    1        6.939  -3.889  -7.337  0.00  0.00    +0.022 C 
ATOM     24  C   LIG    1        8.210  -4.009  -8.213  0.00  0.00    +0.002 C 
ATOM     25  C   LIG    1        8.882  -2.625  -8.034  0.00  0.00    +0.002 C 
ATOM     26  C   LIG    1        7.701  -1.633  -7.997  0.00  0.00    +0.022 C 
ENDBRANCH  19  22
ENDBRANCH  17  18
ENDBRANCH  16  17
ENDBRANCH   4  16
TORSDOF 6
