REMARK  Name = ZINC00320034
REMARK                            x       y       z     vdW  Elec       q    Type
REMARK                         _______ _______ _______ _____ _____    ______ ____
ROOT
ATOM      1  N   LIG    1        4.153  -0.953   1.342  0.00  0.00    +0.383 N 
ATOM      2  H   LIG    1        3.427  -1.441   1.844  0.00  0.00    -0.081 HD
ATOM      3  C   LIG    1        4.424   0.329   2.003  0.00  0.00    -0.075 C 
ATOM      4  C   LIG    1        4.807   0.083   3.464  0.00  0.00    +0.021 C 
ATOM      5  C   LIG    1        6.060  -0.796   3.517  0.00  0.00    +0.088 C 
ATOM      6  C   LIG    1        5.790  -2.099   2.760  0.00  0.00    +0.021 C 
ATOM      7  C   LIG    1        5.371  -1.772   1.325  0.00  0.00    -0.075 C 
ENDROOT
BRANCH   5   8
ATOM      8  C   LIG    1        6.397  -1.107   4.952  0.00  0.00    -0.016 A 
ATOM      9  C   LIG    1        5.391  -1.190   5.896  0.00  0.00    +0.006 A 
ATOM     10  C   LIG    1        5.700  -1.476   7.213  0.00  0.00    +0.000 A 
ATOM     11  C   LIG    1        7.016  -1.679   7.585  0.00  0.00    +0.000 A 
ATOM     12  C   LIG    1        8.022  -1.596   6.641  0.00  0.00    +0.000 A 
ATOM     13  C   LIG    1        7.712  -1.315   5.324  0.00  0.00    +0.006 A 
ENDBRANCH   5   8
BRANCH   5  14
ATOM     14  O   LIG    1        7.153  -0.107   2.906  0.00  0.00    -0.384 OA
ATOM     15  H   LIG    1        7.981  -0.606   2.904  0.00  0.00    +0.211 HD
ENDBRANCH   5  14
BRANCH   1  16
ATOM     16  C   LIG    1        3.711  -0.707  -0.038  0.00  0.00    -0.043 C 
BRANCH  16  20
ATOM     17  C   LIG    1       -0.017   1.378   0.010  0.00  0.00    +0.000 A 
ATOM     18  C   LIG    1        1.171   2.086   0.002  0.00  0.00    +0.000 A 
ATOM     19  C   LIG    1        2.377   1.411  -0.013  0.00  0.00    +0.002 A 
ATOM     20  C   LIG    1        2.396   0.029  -0.020  0.00  0.00    -0.064 A 
ATOM     21  C   LIG    1        1.208  -0.679  -0.012  0.00  0.00    +0.002 A 
ATOM     22  C   LIG    1        0.002  -0.004   0.002  0.00  0.00    +0.000 A 
ENDBRANCH  16  20
ENDBRANCH   1  16
TORSDOF 4
