REMARK  Name = ZINC00319140
REMARK                            x       y       z     vdW  Elec       q    Type
REMARK                         _______ _______ _______ _____ _____    ______ ____
ROOT
ATOM      1  C   LIG    1       -3.014  -2.361   0.018  0.00  0.00    +0.144 C 
ENDROOT
BRANCH   1   2
ATOM      2  C   LIG    1       -3.067  -3.686  -0.699  0.00  0.00    +0.021 A 
ATOM      3  C   LIG    1       -1.949  -4.516  -0.687  0.00  0.00    +0.010 A 
ATOM      4  C   LIG    1       -1.964  -5.719  -1.325  0.00  0.00    +0.010 A 
ATOM      5  C   LIG    1       -3.121  -6.132  -2.006  0.00  0.00    +0.004 A 
ATOM      6  C   LIG    1       -3.174  -7.368  -2.677  0.00  0.00    +0.011 A 
ATOM      7  C   LIG    1       -4.333  -7.704  -3.317  0.00  0.00    +0.020 A 
ATOM      8  C   LIG    1       -5.418  -6.831  -3.294  0.00  0.00    +0.111 A 
ATOM      9  N   LIG    1       -5.365  -5.681  -2.668  0.00  0.00    -0.251 NA
ATOM     10  C   LIG    1       -4.261  -5.292  -2.022  0.00  0.00    +0.113 A 
ATOM     11  C   LIG    1       -4.211  -4.055  -1.345  0.00  0.00    +0.148 A 
BRANCH  11  12
ATOM     12  O   LIG    1       -5.294  -3.235  -1.341  0.00  0.00    -0.504 OA
ATOM     13  H   LIG    1       -5.316  -2.609  -2.078  0.00  0.00    +0.292 HD
ENDBRANCH  11  12
ENDBRANCH   1   2
BRANCH   1  14
ATOM     14  C   LIG    1       -3.534  -2.529   1.423  0.00  0.00    +0.015 A 
ATOM     15  C   LIG    1       -4.761  -2.236   1.920  0.00  0.00    +0.013 A 
ATOM     16  C   LIG    1       -5.018  -2.478   3.256  0.00  0.00    +0.008 A 
ATOM     17  C   LIG    1       -4.035  -3.001   4.030  0.00  0.00    +0.045 A 
ATOM     18  S   LIG    1       -2.697  -3.174   2.862  0.00  0.00    -0.099 S 
ENDBRANCH   1  14
BRANCH   1  20
ATOM     19  C   LIG    1       -1.374  -0.563   0.135  0.00  0.00    +0.213 C 
ATOM     20  N   LIG    1       -1.630  -1.885   0.064  0.00  0.00    -0.304 N 
ATOM     21  H   LIG    1       -0.897  -2.520   0.043  0.00  0.00    +0.150 HD
ATOM     22  O   LIG    1       -2.289   0.231   0.162  0.00  0.00    -0.276 OA
BRANCH  19  24
ATOM     23  C   LIG    1        0.062   1.454   0.260  0.00  0.00    +0.013 C 
ATOM     24  C   LIG    1        0.051  -0.073   0.182  0.00  0.00    +0.092 C 
ENDBRANCH  19  24
ENDBRANCH   1  20
TORSDOF 5
