REMARK  Name = ZINC00347120
REMARK                            x       y       z     vdW  Elec       q    Type
REMARK                         _______ _______ _______ _____ _____    ______ ____
ROOT
ATOM      1  C   LIG    1        5.334  -1.613   1.573  0.00  0.00    +0.172 A 
ATOM      2  N   LIG    1        6.155  -2.067   0.629  0.00  0.00    -0.328 N 
ATOM      3  C   LIG    1        7.226  -2.667   1.237  0.00  0.00    +0.065 A 
ATOM      4  C   LIG    1        8.371  -3.303   0.764  0.00  0.00    +0.028 A 
ATOM      5  C   LIG    1        9.286  -3.818   1.656  0.00  0.00    +0.002 A 
ATOM      6  C   LIG    1        9.076  -3.707   3.023  0.00  0.00    +0.002 A 
ATOM      7  C   LIG    1        7.948  -3.081   3.508  0.00  0.00    +0.028 A 
ATOM      8  C   LIG    1        7.013  -2.555   2.621  0.00  0.00    +0.065 A 
ATOM      9  H   LIG    1        6.019  -1.986  -0.328  0.00  0.00    +0.169 HD
ATOM     10  N   LIG    1        5.827  -1.888   2.779  0.00  0.00    -0.328 N 
ATOM     11  H   LIG    1        5.415  -1.657   3.626  0.00  0.00    +0.169 HD
ENDROOT
BRANCH   1  12
ATOM     12  N   LIG    1        4.152  -0.952   1.338  0.00  0.00    -0.312 N 
ATOM     13  H   LIG    1        3.610  -0.648   2.082  0.00  0.00    +0.149 HD
BRANCH  12  14
ATOM     14  C   LIG    1        3.711  -0.707  -0.038  0.00  0.00    +0.139 C 
BRANCH  14  18
ATOM     15  C   LIG    1       -0.017   1.378   0.010  0.00  0.00    +0.000 A 
ATOM     16  C   LIG    1        1.171   2.086   0.002  0.00  0.00    +0.000 A 
ATOM     17  C   LIG    1        2.377   1.411  -0.013  0.00  0.00    +0.005 A 
ATOM     18  C   LIG    1        2.396   0.029  -0.020  0.00  0.00    -0.030 A 
ATOM     19  C   LIG    1        1.208  -0.679  -0.012  0.00  0.00    +0.005 A 
ATOM     20  C   LIG    1        0.002  -0.004   0.002  0.00  0.00    +0.000 A 
ENDBRANCH  14  18
ENDBRANCH  12  14
ENDBRANCH   1  12
TORSDOF 3
