REMARK  Name = ZINC00291743
REMARK                            x       y       z     vdW  Elec       q    Type
REMARK                         _______ _______ _______ _____ _____    ______ ____
ROOT
ATOM      1  C   LIG    1       -2.881   0.603   1.456  0.00  0.00    +0.112 C 
ENDROOT
BRANCH   1   2
ATOM      2  C   LIG    1       -3.280   1.843   2.214  0.00  0.00    +0.309 C 
ATOM      3  O   LIG    1       -3.359   2.903   1.640  0.00  0.00    -0.251 OA
BRANCH   2   4
ATOM      4  O   LIG    1       -3.547   1.769   3.527  0.00  0.00    -0.480 OA
ATOM      5  H   LIG    1       -3.486   0.947   3.973  0.00  0.00    +0.295 HD
ENDBRANCH   2   4
ENDBRANCH   1   2
BRANCH   1   6
ATOM      6  C   LIG    1       -1.431   0.737   0.986  0.00  0.00    +0.050 C 
BRANCH   6  10
ATOM      7  C   LIG    1        1.160   0.816   4.381  0.00  0.00    +0.000 A 
ATOM      8  C   LIG    1        0.738   2.000   3.806  0.00  0.00    +0.000 A 
ATOM      9  C   LIG    1       -0.098   1.974   2.705  0.00  0.00    +0.003 A 
ATOM     10  C   LIG    1       -0.515   0.765   2.182  0.00  0.00    -0.047 A 
ATOM     11  C   LIG    1       -0.089  -0.419   2.754  0.00  0.00    +0.003 A 
ATOM     12  C   LIG    1        0.747  -0.394   3.855  0.00  0.00    +0.000 A 
ENDBRANCH   6  10
ENDBRANCH   1   6
BRANCH   1  13
ATOM     13  C   LIG    1       -3.797   0.430   0.243  0.00  0.00    +0.135 C 
BRANCH  13  14
ATOM     14  C   LIG    1       -5.207   0.175   0.710  0.00  0.00    +0.305 C 
ATOM     15  O   LIG    1       -5.454   0.136   1.892  0.00  0.00    -0.251 OA
BRANCH  14  16
ATOM     16  O   LIG    1       -6.188  -0.008  -0.187  0.00  0.00    -0.481 OA
ATOM     17  H   LIG    1       -5.997   0.023  -1.104  0.00  0.00    +0.295 HD
ENDBRANCH  14  16
ENDBRANCH  13  14
ENDBRANCH   1  13
TORSDOF 7
