REMARK  Name = ZINC00152996
REMARK                            x       y       z     vdW  Elec       q    Type
REMARK                         _______ _______ _______ _____ _____    ______ ____
ROOT
ATOM      1  C   LIG    1       -0.017   1.379   0.010  0.00  0.00    +0.000 A 
ATOM      2  C   LIG    1        1.168   2.094   0.002  0.00  0.00    +0.001 A 
ATOM      3  C   LIG    1        2.377   1.429  -0.013  0.00  0.00    +0.013 A 
ATOM      4  C   LIG    1        2.403   0.034  -0.021  0.00  0.00    +0.036 A 
ATOM      5  C   LIG    1        1.204  -0.681  -0.013  0.00  0.00    +0.013 A 
ATOM      6  C   LIG    1        0.002  -0.004   0.002  0.00  0.00    +0.001 A 
ENDROOT
BRANCH   4   7
ATOM      7  C   LIG    1        3.696  -0.685  -0.037  0.00  0.00    +0.242 C 
ATOM      8  N   LIG    1        3.717  -2.032  -0.045  0.00  0.00    -0.325 N 
ATOM      9  H   LIG    1        4.565  -2.504  -0.056  0.00  0.00    +0.145 HD
ATOM     10  H   LIG    1        2.885  -2.531  -0.039  0.00  0.00    +0.145 HD
ATOM     11  O   LIG    1        4.738  -0.060  -0.044  0.00  0.00    -0.270 OA
ENDBRANCH   4   7
TORSDOF 1
