REMARK  Name = ZINC00150214
REMARK                            x       y       z     vdW  Elec       q    Type
REMARK                         _______ _______ _______ _____ _____    ______ ____
ROOT
ATOM      1  C   LIG    1       -0.017   1.375   0.010  0.00  0.00    +0.001 A 
ATOM      2  C   LIG    1        1.169   2.098   0.002  0.00  0.00    +0.002 A 
ATOM      3  C   LIG    1        2.389   1.459  -0.018  0.00  0.00    +0.029 A 
ATOM      4  C   LIG    1        2.435   0.064  -0.036  0.00  0.00    +0.082 A 
ATOM      5  C   LIG    1        1.222  -0.669  -0.016  0.00  0.00    +0.085 A 
ATOM      6  C   LIG    1        1.329  -2.138  -0.007  0.00  0.00    +0.348 A 
ATOM      7  O   LIG    1        2.499  -2.640  -0.485  0.00  0.00    -0.400 OA
ATOM      8  C   LIG    1        3.618  -1.921  -0.245  0.00  0.00    +0.267 A 
ATOM      9  O   LIG    1        0.433  -2.853   0.400  0.00  0.00    -0.244 OA
ATOM     10  N   LIG    1        3.596  -0.621  -0.059  0.00  0.00    -0.209 NA
ATOM     11  C   LIG    1        0.002  -0.004   0.002  0.00  0.00    +0.017 A 
ENDROOT
BRANCH   8  12
ATOM     12  C   LIG    1        4.906  -2.619  -0.192  0.00  0.00    +0.189 A 
ATOM     13  C   LIG    1        5.100  -3.959  -0.368  0.00  0.00    +0.055 A 
ATOM     14  C   LIG    1        6.480  -4.188  -0.233  0.00  0.00    +0.042 A 
ATOM     15  C   LIG    1        7.058  -2.994   0.017  0.00  0.00    +0.196 A 
ATOM     16  O   LIG    1        6.107  -2.049   0.035  0.00  0.00    -0.458 OA
ENDBRANCH   8  12
TORSDOF 1
