REMARK  Name = ZINC00244514
REMARK                            x       y       z     vdW  Elec       q    Type
REMARK                         _______ _______ _______ _____ _____    ______ ____
ROOT
ATOM      1  C   LIG    1        0.031  -0.377   2.433  0.00  0.00    +0.061 A 
ATOM      2  C   LIG    1       -1.166  -0.171   3.104  0.00  0.00    +0.030 A 
ATOM      3  C   LIG    1       -1.160   0.254   4.417  0.00  0.00    +0.047 A 
ATOM      4  C   LIG    1        0.042   0.488   5.074  0.00  0.00    +0.118 A 
ATOM      5  C   LIG    1        1.243   0.293   4.417  0.00  0.00    +0.062 A 
ATOM      6  C   LIG    1        1.247  -0.142   3.089  0.00  0.00    +0.086 A 
ENDROOT
BRANCH   1  13
ATOM      7  C   LIG    1       -0.018   1.503   0.010  0.00  0.00    +0.064 C 
ATOM      8  C   LIG    1        0.002  -0.004   0.002  0.00  0.00    +0.021 A 
ATOM      9  C   LIG    1       -0.004  -0.789  -1.094  0.00  0.00    +0.023 A 
ATOM     10  C   LIG    1        0.025  -2.128  -0.656  0.00  0.00    +0.023 A 
ATOM     11  C   LIG    1        0.037  -2.114   0.692  0.00  0.00    +0.021 A 
ATOM     12  C   LIG    1        0.062  -3.324   1.589  0.00  0.00    +0.064 C 
ATOM     13  N   LIG    1        0.024  -0.811   1.104  0.00  0.00    -0.317 N 
ENDBRANCH   1  13
BRANCH   4  14
ATOM     14  O   LIG    1        0.037   0.911   6.366  0.00  0.00    -0.507 OA
ATOM     15  H   LIG    1        0.022   1.873   6.465  0.00  0.00    +0.292 HD
ENDBRANCH   4  14
BRANCH   6  16
ATOM     16  C   LIG    1        2.524  -0.352   2.382  0.00  0.00    +0.339 C 
ATOM     17  O   LIG    1        2.523  -0.730   1.227  0.00  0.00    -0.245 OA
BRANCH  16  18
ATOM     18  O   LIG    1        3.691  -0.125   3.017  0.00  0.00    -0.477 OA
ATOM     19  H   LIG    1        3.691   0.166   3.907  0.00  0.00    +0.295 HD
ENDBRANCH  16  18
ENDBRANCH   6  16
TORSDOF 4
