REMARK  Name = ZINC00171055
REMARK                            x       y       z     vdW  Elec       q    Type
REMARK                         _______ _______ _______ _____ _____    ______ ____
ROOT
ATOM      1  N   LIG    1        3.692  -0.584   1.753  0.00  0.00    -0.254 N 
ATOM      2  C   LIG    1        4.893  -0.014   1.987  0.00  0.00    +0.283 A 
ATOM      3  C   LIG    1        5.788  -0.636   2.884  0.00  0.00    +0.149 A 
ATOM      4  C   LIG    1        5.411  -1.821   3.504  0.00  0.00    +0.172 A 
ATOM      5  N   LIG    1        4.163  -2.356   3.222  0.00  0.00    -0.245 N 
ATOM      6  N   LIG    1        6.423  -2.195   4.291  0.00  0.00    -0.218 NA
ATOM      7  C   LIG    1        7.399  -1.328   4.201  0.00  0.00    +0.199 A 
ATOM      8  N   LIG    1        7.056  -0.345   3.345  0.00  0.00    -0.339 N 
ATOM      9  H   LIG    1        7.598   0.421   3.099  0.00  0.00    +0.167 HD
ATOM     10  O   LIG    1        5.200   1.025   1.431  0.00  0.00    -0.265 OA
ATOM     11  C   LIG    1        3.338  -1.728   2.363  0.00  0.00    +0.338 A 
ATOM     12  O   LIG    1        2.246  -2.210   2.131  0.00  0.00    -0.246 OA
ENDROOT
BRANCH   5  13
ATOM     13  C   LIG    1        3.760  -3.549   3.834  0.00  0.00    +0.053 A 
ATOM     14  C   LIG    1        4.034  -4.769   3.229  0.00  0.00    +0.026 A 
ATOM     15  C   LIG    1        3.634  -5.944   3.835  0.00  0.00    +0.002 A 
ATOM     16  C   LIG    1        2.962  -5.907   5.043  0.00  0.00    +0.000 A 
ATOM     17  C   LIG    1        2.688  -4.694   5.647  0.00  0.00    +0.002 A 
ATOM     18  C   LIG    1        3.090  -3.516   5.050  0.00  0.00    +0.026 A 
ENDBRANCH   5  13
BRANCH   1  19
ATOM     19  C   LIG    1        2.759   0.056   0.823  0.00  0.00    +0.165 C 
BRANCH  19  23
ATOM     20  C   LIG    1        0.272   2.794   2.960  0.00  0.00    +0.000 A 
ATOM     21  C   LIG    1        1.469   3.225   2.420  0.00  0.00    +0.000 A 
ATOM     22  C   LIG    1        2.274   2.339   1.729  0.00  0.00    +0.005 A 
ATOM     23  C   LIG    1        1.882   1.022   1.578  0.00  0.00    -0.028 A 
ATOM     24  C   LIG    1        0.685   0.591   2.119  0.00  0.00    +0.005 A 
ATOM     25  C   LIG    1       -0.121   1.477   2.809  0.00  0.00    +0.000 A 
ENDBRANCH  19  23
ENDBRANCH   1  19
TORSDOF 3
