REMARK  Name = ZINC00122260
REMARK                            x       y       z     vdW  Elec       q    Type
REMARK                         _______ _______ _______ _____ _____    ______ ____
ROOT
ATOM      1  C   LIG    1        1.907  -3.638  -0.105  0.00  0.00    +0.132 A 
ATOM      2  C   LIG    1        1.491  -4.987   0.014  0.00  0.00    +0.041 A 
ATOM      3  C   LIG    1        0.148  -5.340   0.184  0.00  0.00    +0.028 A 
ATOM      4  C   LIG    1       -0.192  -6.657   0.293  0.00  0.00    +0.019 A 
ATOM      5 BR   LIG    1       -2.007  -7.136   0.522  0.00  0.00    -0.050 Br
ATOM      6  C   LIG    1        0.779  -7.653   0.237  0.00  0.00    +0.017 A 
ATOM      7  C   LIG    1        2.096  -7.342   0.072  0.00  0.00    +0.029 A 
ATOM      8  C   LIG    1        2.481  -5.999  -0.043  0.00  0.00    +0.076 A 
ATOM      9  N   LIG    1        3.762  -5.639  -0.207  0.00  0.00    -0.235 NA
ATOM     10  C   LIG    1        4.089  -4.373  -0.312  0.00  0.00    +0.223 A 
ATOM     11  N   LIG    1        3.200  -3.393  -0.270  0.00  0.00    -0.220 NA
ENDROOT
BRANCH   1  16
ATOM     12  C   LIG    1       -0.032   1.461  -0.161  0.00  0.00    +0.105 C 
ATOM     13  N   LIG    1       -0.005  -0.006  -0.085  0.00  0.00    -0.302 NA
ATOM     14  C   LIG    1        0.505  -0.589  -1.333  0.00  0.00    +0.103 C 
ATOM     15  C   LIG    1        0.348  -2.113  -1.283  0.00  0.00    +0.122 C 
ATOM     16  N   LIG    1        0.991  -2.608  -0.057  0.00  0.00    -0.312 N 
ATOM     17  C   LIG    1        0.632  -1.977   1.222  0.00  0.00    +0.122 C 
ATOM     18  C   LIG    1        0.778  -0.459   1.073  0.00  0.00    +0.103 C 
ENDBRANCH   1  16
TORSDOF 1
