REMARK  Name = ZINC00120262
REMARK                            x       y       z     vdW  Elec       q    Type
REMARK                         _______ _______ _______ _____ _____    ______ ____
ROOT
ATOM      1  C   LIG    1        0.002  -0.004   0.029  0.00  0.00    +0.141 A 
ATOM      2  C   LIG    1        1.213  -0.677   0.014  0.00  0.00    +0.047 A 
ATOM      3  C   LIG    1        2.399   0.034  -0.021  0.00  0.00    +0.004 A 
ATOM      4  C   LIG    1        2.381   1.416  -0.040  0.00  0.00    +0.002 A 
ATOM      5  C   LIG    1        1.177   2.095  -0.025  0.00  0.00    +0.027 A 
ATOM      6  C   LIG    1       -0.017   1.389   0.010  0.00  0.00    +0.072 A 
ENDROOT
BRANCH   6   7
ATOM      7  N   LIG    1       -1.237   2.074   0.019  0.00  0.00    -0.331 N 
ATOM      8  C   LIG    1       -1.031   3.514   0.229  0.00  0.00    +0.086 C 
ATOM      9  C   LIG    1       -2.390   4.214   0.313  0.00  0.00    -0.063 C 
ATOM     10  N   LIG    1       -3.145   3.975  -0.932  0.00  0.00    +0.381 N 
ATOM     11  H   LIG    1       -4.058   4.440  -0.869  0.00  0.00    -0.086 HD
ATOM     12  H   LIG    1       -2.619   4.359  -1.726  0.00  0.00    -0.086 HD
ATOM     13  C   LIG    1       -3.348   2.528  -1.136  0.00  0.00    -0.063 C 
ATOM     14  C   LIG    1       -1.989   1.828  -1.219  0.00  0.00    +0.086 C 
ENDBRANCH   6   7
BRANCH   1  15
ATOM     15  O   LIG    1       -1.165  -0.701   0.062  0.00  0.00    -0.490 OA
BRANCH  15  17
ATOM     16  C   LIG    1       -2.473  -2.733   0.117  0.00  0.00    +0.048 C 
ATOM     17  C   LIG    1       -1.069  -2.127   0.080  0.00  0.00    +0.226 C 
ENDBRANCH  15  17
ENDBRANCH   1  15
TORSDOF 3
