REMARK  Name = ZINC00245045
REMARK                            x       y       z     vdW  Elec       q    Type
REMARK                         _______ _______ _______ _____ _____    ______ ____
ROOT
ATOM      1  N   LIG    1       -1.184  -0.723   0.010  0.00  0.00    -0.301 N 
ATOM      2  H   LIG    1       -2.014  -0.370  -0.421  0.00  0.00    +0.154 HD
ENDROOT
BRANCH   1   3
ATOM      3  C   LIG    1       -0.167   0.037  -0.548  0.00  0.00    +0.109 A 
ATOM      4  N   LIG    1        0.776  -0.537  -1.290  0.00  0.00    -0.296 N 
ATOM      5  H   LIG    1        2.646  -1.426  -2.719  0.00  0.00    +0.172 HD
ATOM      6  C   LIG    1        1.748   0.182  -1.825  0.00  0.00    +0.328 A 
ATOM      7  O   LIG    1        2.691  -0.437  -2.575  0.00  0.00    -0.247 OA
ATOM      8  N   LIG    1        1.825   1.491  -1.647  0.00  0.00    -0.275 N 
ATOM      9  H   LIG    1        2.575   2.003  -2.067  0.00  0.00    +0.173 HD
ATOM     10  C   LIG    1        0.918   2.134  -0.918  0.00  0.00    +0.256 A 
ATOM     11  O   LIG    1        1.004   3.475  -0.742  0.00  0.00    -0.268 OA
ATOM     12  C   LIG    1       -0.119   1.414  -0.339  0.00  0.00    +0.112 A 
ENDBRANCH   1   3
BRANCH   1  20
ATOM     13  C   LIG    1        0.058  -2.790  -0.125  0.00  0.00    +0.025 A 
ATOM     14  C   LIG    1        0.082  -4.167  -0.231  0.00  0.00    +0.023 A 
ATOM     15  C   LIG    1       -1.102  -4.876  -0.328  0.00  0.00    +0.059 A 
ATOM     16 CL   LIG    1       -1.068  -6.606  -0.468  0.00  0.00    -0.082 Cl
ATOM     17  C   LIG    1       -2.315  -4.207  -0.312  0.00  0.00    +0.061 A 
ATOM     18 CL   LIG    1       -3.799  -5.100  -0.432  0.00  0.00    -0.082 Cl
ATOM     19  C   LIG    1       -2.345  -2.830  -0.200  0.00  0.00    +0.044 A 
ATOM     20  C   LIG    1       -1.157  -2.117  -0.103  0.00  0.00    +0.034 A 
ENDBRANCH   1  20
TORSDOF 2
