REMARK  Name = ZINC00178572
REMARK                            x       y       z     vdW  Elec       q    Type
REMARK                         _______ _______ _______ _____ _____    ______ ____
ROOT
ATOM      1  N   LIG    1        2.358   3.890   0.001  0.00  0.00    -0.210 N 
ATOM      2  C   LIG    1        2.403   5.223  -0.096  0.00  0.00    +0.231 C 
ATOM      3  C   LIG    1        3.843   5.682  -0.071  0.00  0.00    +0.095 C 
ATOM      4  C   LIG    1        4.228   6.209  -1.489  0.00  0.00    +0.025 C 
ATOM      5  C   LIG    1        4.321   4.855  -2.283  0.00  0.00    +0.016 C 
ATOM      6  C   LIG    1        5.397   4.228  -1.309  0.00  0.00    +0.025 C 
ATOM      7  C   LIG    1        6.393   5.394  -1.289  0.00  0.00    -0.027 C 
ATOM      8  C   LIG    1        5.719   6.547  -1.371  0.00  0.00    -0.027 C 
ATOM      9  C   LIG    1        4.640   4.350   0.051  0.00  0.00    +0.095 C 
ATOM     10  O   LIG    1        1.438   5.951  -0.187  0.00  0.00    -0.274 OA
ATOM     11  C   LIG    1        3.555   3.298   0.085  0.00  0.00    +0.231 C 
ATOM     12  O   LIG    1        3.740   2.103   0.174  0.00  0.00    -0.274 OA
ENDROOT
BRANCH   1  17
ATOM     13  C   LIG    1       -0.904   2.578   1.084  0.00  0.00    +0.002 A 
ATOM     14  C   LIG    1       -1.218   1.746   0.024  0.00  0.00    +0.012 A 
ATOM     15  C   LIG    1       -0.352   1.632  -1.047  0.00  0.00    +0.057 A 
ATOM     16  C   LIG    1        0.835   2.340  -1.057  0.00  0.00    +0.036 A 
ATOM     17  C   LIG    1        1.155   3.170   0.008  0.00  0.00    +0.044 A 
ATOM     18  C   LIG    1        0.281   3.287   1.080  0.00  0.00    +0.024 A 
BRANCH  15  19
ATOM     19  C   LIG    1       -0.700   0.730  -2.203  0.00  0.00    +0.417 C 
ATOM     20  F   LIG    1       -0.129   1.234  -3.377  0.00  0.00    -0.166 F 
ATOM     21  F   LIG    1       -2.090   0.673  -2.348  0.00  0.00    -0.166 F 
ATOM     22  F   LIG    1       -0.203  -0.555  -1.958  0.00  0.00    -0.166 F 
ENDBRANCH  15  19
ENDBRANCH   1  17
TORSDOF 2
