REMARK  Name = ZINC00077553
REMARK                            x       y       z     vdW  Elec       q    Type
REMARK                         _______ _______ _______ _____ _____    ______ ____
ROOT
ATOM      1  C   LIG    1       -0.004  -0.912  -1.105  0.00  0.00    +0.068 C 
ATOM      2  C   LIG    1        1.189  -1.195  -1.753  0.00  0.00    +0.035 C 
ATOM      3  C   LIG    1        1.183  -1.619  -3.067  0.00  0.00    +0.083 C 
ATOM      4  N   LIG    1        0.044  -1.760  -3.722  0.00  0.00    -0.304 NA
ATOM      5  H   LIG    1        0.062  -2.059  -4.644  0.00  0.00    +0.123 HD
ATOM      6  C   LIG    1       -1.116  -1.505  -3.152  0.00  0.00    +0.127 C 
ATOM      7  S   LIG    1       -2.797  -1.584  -3.720  0.00  0.00    -0.099 S 
ATOM      8  C   LIG    1       -3.619  -1.073  -2.236  0.00  0.00    +0.096 A 
ATOM      9  C   LIG    1       -4.959  -0.881  -1.883  0.00  0.00    +0.272 A 
ATOM     10  N   LIG    1       -5.233  -0.459  -0.625  0.00  0.00    -0.267 N 
ATOM     11  C   LIG    1       -4.207  -0.238   0.239  0.00  0.00    +0.207 A 
ATOM     12  N   LIG    1       -2.964  -0.414  -0.083  0.00  0.00    -0.240 NA
ATOM     13  O   LIG    1       -5.856  -1.090  -2.683  0.00  0.00    -0.266 OA
ATOM     14  C   LIG    1       -2.591  -0.836  -1.325  0.00  0.00    +0.068 A 
ATOM     15  C   LIG    1       -1.225  -1.073  -1.818  0.00  0.00    +0.084 C 
ENDROOT
BRANCH  10  16
ATOM     16  C   LIG    1       -6.558  -0.252  -0.220  0.00  0.00    +0.051 A 
ATOM     17  C   LIG    1       -7.422  -1.330  -0.091  0.00  0.00    +0.026 A 
ATOM     18  C   LIG    1       -8.728  -1.123   0.309  0.00  0.00    +0.002 A 
ATOM     19  C   LIG    1       -9.174   0.158   0.580  0.00  0.00    +0.000 A 
ATOM     20  C   LIG    1       -8.316   1.234   0.452  0.00  0.00    +0.002 A 
ATOM     21  C   LIG    1       -7.007   1.032   0.058  0.00  0.00    +0.026 A 
ENDBRANCH  10  16
BRANCH   1  23
ATOM     22  C   LIG    1        0.058   0.947   0.522  0.00  0.00    +0.104 C 
ATOM     23  N   LIG    1       -0.008  -0.484   0.215  0.00  0.00    -0.305 NA
ATOM     24  C   LIG    1       -0.078  -1.464   1.302  0.00  0.00    +0.104 C 
ENDBRANCH   1  23
TORSDOF 2
