REMARK  Name = ZINC00346173
REMARK                            x       y       z     vdW  Elec       q    Type
REMARK                         _______ _______ _______ _____ _____    ______ ____
ROOT
ATOM      1  C   LIG    1       -1.321   3.325   0.032  0.00  0.00    +0.013 A 
ATOM      2  C   LIG    1       -2.527   3.992   0.035  0.00  0.00    +0.022 A 
ATOM      3  C   LIG    1       -3.716   3.281   0.037  0.00  0.00    +0.059 A 
ATOM      4 CL   LIG    1       -5.230   4.129   0.048  0.00  0.00    -0.082 Cl
ATOM      5  C   LIG    1       -3.702   1.894   0.030  0.00  0.00    +0.060 A 
ATOM      6 CL   LIG    1       -5.197   1.012   0.032  0.00  0.00    -0.082 Cl
ATOM      7  C   LIG    1       -2.502   1.214   0.021  0.00  0.00    +0.032 A 
ATOM      8  C   LIG    1       -1.298   1.927   0.019  0.00  0.00    +0.019 A 
ENDROOT
BRANCH   8   9
ATOM      9  C   LIG    1       -0.014   1.208   0.009  0.00  0.00    +0.164 C 
ATOM     10  O   LIG    1        0.002  -0.004   0.002  0.00  0.00    -0.292 OA
BRANCH   9  11
ATOM     11  C   LIG    1        1.280   1.980   0.001  0.00  0.00    +0.091 C 
BRANCH  11  12
ATOM     12  C   LIG    1        2.457   1.001  -0.016  0.00  0.00    +0.128 C 
BRANCH  12  13
ATOM     13  C   LIG    1        3.751   1.772  -0.024  0.00  0.00    +0.305 C 
ATOM     14  O   LIG    1        3.735   2.981  -0.018  0.00  0.00    -0.251 OA
BRANCH  13  15
ATOM     15  O   LIG    1        4.923   1.117  -0.039  0.00  0.00    -0.481 OA
ATOM     16  H   LIG    1        4.935   0.180  -0.044  0.00  0.00    +0.295 HD
ENDBRANCH  13  15
ENDBRANCH  12  13
ENDBRANCH  11  12
ENDBRANCH   9  11
ENDBRANCH   8   9
TORSDOF 5
