REMARK  Name = ZINC00194080
REMARK                            x       y       z     vdW  Elec       q    Type
REMARK                         _______ _______ _______ _____ _____    ______ ____
ROOT
ATOM      1  C   LIG    1       -1.255  -0.753   0.010  0.00  0.00    +0.102 A 
ATOM      2  C   LIG    1       -1.272  -2.151   0.009  0.00  0.00    +0.030 A 
ATOM      3  C   LIG    1       -2.522  -2.796  -0.015  0.00  0.00    +0.026 A 
ATOM      4  C   LIG    1       -2.625  -4.241   0.202  0.00  0.00    -0.007 A 
ATOM      5  C   LIG    1       -1.494  -5.032   0.418  0.00  0.00    +0.009 A 
ATOM      6  C   LIG    1       -1.636  -6.375   0.615  0.00  0.00    +0.001 A 
ATOM      7  C   LIG    1       -2.894  -6.968   0.605  0.00  0.00    +0.001 A 
ATOM      8  C   LIG    1       -4.018  -6.224   0.397  0.00  0.00    +0.008 A 
ATOM      9  C   LIG    1       -3.907  -4.840   0.190  0.00  0.00    -0.017 A 
ATOM     10  C   LIG    1       -5.046  -4.040  -0.026  0.00  0.00    +0.012 A 
ATOM     11  C   LIG    1       -4.936  -2.703  -0.235  0.00  0.00    +0.047 A 
ATOM     12  C   LIG    1       -3.695  -2.060  -0.242  0.00  0.00    +0.140 A 
ATOM     13  O   LIG    1       -3.622  -0.731  -0.491  0.00  0.00    -0.422 OA
ATOM     14  C   LIG    1       -2.560  -0.066   0.026  0.00  0.00    +0.348 A 
ATOM     15  O   LIG    1       -2.676   1.056   0.483  0.00  0.00    -0.244 OA
ENDROOT
BRANCH   1  17
ATOM     16  C   LIG    1       -0.018   1.503   0.010  0.00  0.00    +0.092 C 
ATOM     17  C   LIG    1        0.002  -0.004   0.002  0.00  0.00    +0.167 C 
ATOM     18  O   LIG    1        1.061  -0.597  -0.011  0.00  0.00    -0.292 OA
ENDBRANCH   1  17
TORSDOF 1
