REMARK  Name = ZINC00126122
REMARK                            x       y       z     vdW  Elec       q    Type
REMARK                         _______ _______ _______ _____ _____    ______ ____
ROOT
ATOM      1  C   LIG    1        1.270  -2.142  -0.023  0.00  0.00    +0.039 A 
ATOM      2  C   LIG    1        2.356  -2.977  -0.033  0.00  0.00    +0.019 A 
ATOM      3  C   LIG    1        2.144  -4.337  -0.041  0.00  0.00    +0.037 A 
ATOM      4  C   LIG    1        0.871  -4.809  -0.038  0.00  0.00    +0.144 A 
ATOM      5  S   LIG    1       -0.087  -3.302  -0.016  0.00  0.00    -0.067 S 
ENDROOT
BRANCH   1  10
ATOM      6  C   LIG    1       -0.017   1.379   0.010  0.00  0.00    +0.004 A 
ATOM      7  C   LIG    1        1.194   2.059   0.002  0.00  0.00    +0.020 A 
ATOM      8  C   LIG    1        2.376   1.341  -0.013  0.00  0.00    +0.111 A 
ATOM      9  N   LIG    1        2.368   0.024  -0.021  0.00  0.00    -0.254 NA
ATOM     10  C   LIG    1        1.232  -0.665  -0.014  0.00  0.00    +0.078 A 
ATOM     11  C   LIG    1        0.002  -0.004   0.002  0.00  0.00    +0.029 A 
ENDBRANCH   1  10
BRANCH   4  12
ATOM     12  S   LIG    1        0.308  -6.479  -0.046  0.00  0.00    +0.077 S 
ATOM     13  O   LIG    1        1.355  -7.258  -0.607  0.00  0.00    -0.151 OA
ATOM     14  O   LIG    1       -1.005  -6.462  -0.590  0.00  0.00    -0.151 OA
BRANCH  12  15
ATOM     15  N   LIG    1        0.159  -6.953   1.534  0.00  0.00    -0.127 NA
ATOM     16  H   LIG    1        0.676  -7.704   1.866  0.00  0.00    +0.167 HD
BRANCH  15  17
ATOM     17  N   LIG    1       -0.692  -6.287   2.370  0.00  0.00    -0.251 NA
ATOM     18  H   LIG    1       -0.474  -5.302   2.398  0.00  0.00    +0.138 HD
ATOM     19  H   LIG    1       -0.676  -6.687   3.296  0.00  0.00    +0.138 HD
ENDBRANCH  15  17
ENDBRANCH  12  15
ENDBRANCH   4  12
TORSDOF 4
