REMARK  Name = ZINC00171938
REMARK                            x       y       z     vdW  Elec       q    Type
REMARK                         _______ _______ _______ _____ _____    ______ ____
ROOT
ATOM      1  C   LIG    1       -1.263  -0.762   0.010  0.00  0.00    +0.140 C 
ATOM      2  N   LIG    1       -1.242  -2.059   0.003  0.00  0.00    -0.180 NA
ENDROOT
BRANCH   1  10
ATOM      3  C   LIG    1       -0.017   1.393   0.010  0.00  0.00    +0.011 A 
ATOM      4  C   LIG    1        1.170   2.096   0.002  0.00  0.00    +0.022 A 
ATOM      5  C   LIG    1        2.378   1.421  -0.013  0.00  0.00    +0.059 A 
ATOM      6 CL   LIG    1        3.867   2.314  -0.022  0.00  0.00    -0.082 Cl
ATOM      7  C   LIG    1        2.405   0.035  -0.021  0.00  0.00    +0.060 A 
ATOM      8 CL   LIG    1        3.925  -0.803  -0.041  0.00  0.00    -0.082 Cl
ATOM      9  C   LIG    1        1.224  -0.680  -0.014  0.00  0.00    +0.031 A 
ATOM     10  C   LIG    1        0.002  -0.004   0.002  0.00  0.00    -0.004 A 
ENDBRANCH   1  10
BRANCH   2  11
ATOM     11  N   LIG    1       -2.444  -2.779   0.011  0.00  0.00    -0.259 N 
ATOM     12  H   LIG    1       -3.292  -2.308   0.021  0.00  0.00    +0.191 HD
ATOM     13  C   LIG    1       -2.422  -4.147   0.003  0.00  0.00    +0.142 C 
BRANCH  13  14
ATOM     14  N   LIG    1       -3.596  -4.849   0.010  0.00  0.00    -0.338 N 
ATOM     15  H   LIG    1       -3.580  -5.819   0.005  0.00  0.00    +0.144 HD
ATOM     16  H   LIG    1       -4.443  -4.378   0.021  0.00  0.00    +0.144 HD
ENDBRANCH  13  14
BRANCH  13  17
ATOM     17  S   LIG    1       -0.972  -4.954  -0.015  0.00  0.00    -0.109 S 
ATOM     18  H   LIG    1        0.048  -4.053  -0.020  0.00  0.00    +0.110 HD
ENDBRANCH  13  17
ENDBRANCH   2  11
TORSDOF 4
