REMARK  Name = ZINC00180806
REMARK                            x       y       z     vdW  Elec       q    Type
REMARK                         _______ _______ _______ _____ _____    ______ ____
ROOT
ATOM      1  C   LIG    1        1.472  -2.024  -0.023  0.00  0.00    +0.117 C 
ENDROOT
BRANCH   1   8
ATOM      2  C   LIG    1        7.204  -3.967   0.603  0.00  0.00    +0.001 A 
ATOM      3  C   LIG    1        7.190  -3.960  -0.779  0.00  0.00    +0.001 A 
ATOM      4  C   LIG    1        6.052  -3.573  -1.469  0.00  0.00    +0.014 A 
ATOM      5  C   LIG    1        4.920  -3.191  -0.767  0.00  0.00    +0.049 A 
ATOM      6  C   LIG    1        4.934  -3.198   0.643  0.00  0.00    +0.049 A 
ATOM      7  C   LIG    1        3.591  -2.744   1.062  0.00  0.00    +0.254 C 
ATOM      8  N   LIG    1        2.860  -2.494  -0.039  0.00  0.00    -0.234 N 
ATOM      9  O   LIG    1        3.212  -2.617   2.209  0.00  0.00    -0.270 OA
ATOM     10  C   LIG    1        3.568  -2.737  -1.156  0.00  0.00    +0.254 C 
ATOM     11  O   LIG    1        3.165  -2.604  -2.294  0.00  0.00    -0.270 OA
ATOM     12  C   LIG    1        6.079  -3.587   1.319  0.00  0.00    +0.014 A 
ENDBRANCH   1   8
BRANCH   1  13
ATOM     13  C   LIG    1        1.451  -0.494  -0.015  0.00  0.00    +0.029 C 
BRANCH  13  14
ATOM     14  C   LIG    1        0.002  -0.004   0.002  0.00  0.00    +0.097 C 
BRANCH  14  15
ATOM     15  C   LIG    1       -0.018   1.503   0.010  0.00  0.00    +0.216 C 
ATOM     16  N   LIG    1       -1.195   2.161   0.019  0.00  0.00    -0.301 N 
ATOM     17  C   LIG    1       -2.419   1.392   0.015  0.00  0.00    +0.108 C 
ATOM     18  C   LIG    1       -2.856   1.108  -1.437  0.00  0.00    +0.019 C 
ATOM     19  C   LIG    1       -3.341   2.341  -2.075  0.00  0.00    +0.002 C 
ATOM     20  C   LIG    1       -2.289   3.438  -2.203  0.00  0.00    +0.002 C 
ATOM     21  C   LIG    1       -2.236   4.233  -0.921  0.00  0.00    +0.019 C 
ATOM     22  C   LIG    1       -1.180   3.637   0.027  0.00  0.00    +0.108 C 
ATOM     23  O   LIG    1        1.024   2.123   0.004  0.00  0.00    -0.276 OA
ENDBRANCH  14  15
ENDBRANCH  13  14
ENDBRANCH   1  13
TORSDOF 4
