REMARK  Name = ZINC00145162
REMARK                            x       y       z     vdW  Elec       q    Type
REMARK                         _______ _______ _______ _____ _____    ______ ____
ROOT
ATOM      1  C   LIG    1        0.931   3.232   0.010  0.00  0.00    +0.268 C 
ATOM      2  N   LIG    1       -0.015   4.158   0.024  0.00  0.00    -0.288 N 
ATOM      3  H   LIG    1       -1.004   3.881   0.031  0.00  0.00    +0.301 HD
ATOM      4  H   LIG    1        0.237   5.146   0.026  0.00  0.00    +0.301 HD
ENDROOT
BRANCH   1   5
ATOM      5  C   LIG    1        0.491   1.819   0.007  0.00  0.00    +0.061 A 
ATOM      6  C   LIG    1       -0.869   1.509   0.018  0.00  0.00    +0.017 A 
ATOM      7  C   LIG    1       -1.273   0.190   0.015  0.00  0.00    +0.021 A 
ATOM      8  C   LIG    1       -0.332  -0.825   0.000  0.00  0.00    +0.041 A 
ATOM      9 CL   LIG    1       -0.848  -2.483  -0.003  0.00  0.00    -0.084 Cl
ATOM     10  C   LIG    1        1.020  -0.523  -0.011  0.00  0.00    +0.021 A 
ATOM     11  C   LIG    1        1.435   0.792  -0.007  0.00  0.00    +0.017 A 
ENDBRANCH   1   5
BRANCH   1  12
ATOM     12  N   LIG    1        2.276   3.535  -0.001  0.00  0.00    -0.233 N 
ATOM     13  H   LIG    1        2.933   2.823  -0.011  0.00  0.00    +0.292 HD
BRANCH  12  14
ATOM     14  C   LIG    1        2.711   4.934   0.002  0.00  0.00    +0.259 C 
BRANCH  14  18
ATOM     15  C   LIG    1        6.979   5.097  -0.037  0.00  0.00    +0.000 A 
ATOM     16  C   LIG    1        6.278   5.077  -1.228  0.00  0.00    +0.000 A 
ATOM     17  C   LIG    1        4.896   5.024  -1.215  0.00  0.00    +0.007 A 
ATOM     18  C   LIG    1        4.217   4.992  -0.012  0.00  0.00    -0.008 A 
ATOM     19  C   LIG    1        4.918   5.018   1.179  0.00  0.00    +0.007 A 
ATOM     20  C   LIG    1        6.300   5.065   1.166  0.00  0.00    +0.000 A 
ENDBRANCH  14  18
ENDBRANCH  12  14
ENDBRANCH   1  12
TORSDOF 4
