REMARK  Name = ZINC00119988
REMARK                            x       y       z     vdW  Elec       q    Type
REMARK                         _______ _______ _______ _____ _____    ______ ____
ROOT
ATOM      1  C   LIG    1       -1.294  -0.774   0.010  0.00  0.00    +0.232 C 
ATOM      2  C   LIG    1       -1.822  -0.910  -1.423  0.00  0.00    +0.164 C 
ATOM      3  C   LIG    1       -3.076  -1.788  -1.391  0.00  0.00    +0.078 C 
ATOM      4  C   LIG    1       -4.004  -1.308  -0.304  0.00  0.00    +0.038 A 
ATOM      5  C   LIG    1       -5.336  -1.705  -0.341  0.00  0.00    +0.127 A 
ATOM      6  C   LIG    1       -6.217  -1.286   0.643  0.00  0.00    +0.091 A 
ATOM      7  C   LIG    1       -5.767  -0.469   1.670  0.00  0.00    +0.124 A 
ATOM      8  C   LIG    1       -4.441  -0.073   1.706  0.00  0.00    +0.091 A 
ATOM      9  C   LIG    1       -3.556  -0.490   0.717  0.00  0.00    +0.132 A 
ATOM     10  O   LIG    1       -2.266  -0.070   0.785  0.00  0.00    -0.481 OA
ENDROOT
BRANCH   1  16
ATOM     11  C   LIG    1       -0.017   1.378   0.010  0.00  0.00    +0.011 A 
ATOM     12  C   LIG    1        1.170   2.089   0.002  0.00  0.00    +0.049 A 
ATOM     13  C   LIG    1        2.380   1.415  -0.013  0.00  0.00    +0.158 A 
ATOM     14  C   LIG    1        2.399   0.024  -0.021  0.00  0.00    +0.159 A 
ATOM     15  C   LIG    1        1.207  -0.682  -0.013  0.00  0.00    +0.056 A 
ATOM     16  C   LIG    1        0.002  -0.004   0.002  0.00  0.00    -0.001 A 
BRANCH  13  17
ATOM     17  O   LIG    1        3.548   2.113  -0.021  0.00  0.00    -0.503 OA
ATOM     18  H   LIG    1        3.894   2.310   0.860  0.00  0.00    +0.292 HD
ENDBRANCH  13  17
BRANCH  14  19
ATOM     19  O   LIG    1        3.585  -0.642  -0.036  0.00  0.00    -0.503 OA
ATOM     20  H   LIG    1        3.937  -0.839   0.843  0.00  0.00    +0.292 HD
ENDBRANCH  14  19
ENDBRANCH   1  16
BRANCH   2  21
ATOM     21  O   LIG    1       -2.151   0.381  -1.941  0.00  0.00    -0.387 OA
ATOM     22  H   LIG    1       -2.492   0.367  -2.846  0.00  0.00    +0.210 HD
ENDBRANCH   2  21
BRANCH   5  23
ATOM     23  O   LIG    1       -5.777  -2.506  -1.346  0.00  0.00    -0.506 OA
ATOM     24  H   LIG    1       -5.705  -3.452  -1.156  0.00  0.00    +0.292 HD
ENDBRANCH   5  23
BRANCH   7  25
ATOM     25  O   LIG    1       -6.627  -0.057   2.638  0.00  0.00    -0.507 OA
ATOM     26  H   LIG    1       -6.677  -0.652   3.399  0.00  0.00    +0.292 HD
ENDBRANCH   7  25
TORSDOF 6
