REMARK  Name = ZINC00146421
REMARK                            x       y       z     vdW  Elec       q    Type
REMARK                         _______ _______ _______ _____ _____    ______ ____
ROOT
ATOM      1  C   LIG    1       -4.900   1.394  -0.465  0.00  0.00    +0.096 C 
ATOM      2  C   LIG    1       -3.665   1.760   0.360  0.00  0.00    +0.235 C 
ATOM      3  C   LIG    1       -3.926   1.467   1.839  0.00  0.00    +0.096 C 
ATOM      4  N   LIG    1       -3.357   3.184   0.185  0.00  0.00    -0.070 NA
ATOM      5  C   LIG    1       -2.119   3.599   0.204  0.00  0.00    +0.420 C 
ATOM      6  N   LIG    1       -1.086   2.751   0.344  0.00  0.00    -0.009 NA
ATOM      7  C   LIG    1       -1.254   1.449   0.204  0.00  0.00    +0.383 C 
ATOM      8  N   LIG    1       -2.509   0.977  -0.104  0.00  0.00    -0.154 N 
ENDROOT
BRANCH   8   9
ATOM      9  C   LIG    1       -2.680  -0.205  -0.832  0.00  0.00    +0.098 A 
ATOM     10  C   LIG    1       -3.208  -1.332  -0.215  0.00  0.00    +0.041 A 
ATOM     11  C   LIG    1       -3.381  -2.496  -0.939  0.00  0.00    +0.018 A 
ATOM     12  C   LIG    1       -3.018  -2.544  -2.273  0.00  0.00    +0.018 A 
ATOM     13 BR   LIG    1       -3.250  -4.141  -3.257  0.00  0.00    -0.050 Br
ATOM     14  C   LIG    1       -2.487  -1.424  -2.888  0.00  0.00    +0.018 A 
ATOM     15  C   LIG    1       -2.317  -0.256  -2.172  0.00  0.00    +0.041 A 
ENDBRANCH   8   9
BRANCH   5  16
ATOM     16  N   LIG    1       -1.864   4.951   0.083  0.00  0.00    -0.247 N 
ATOM     17  H   LIG    1       -0.950   5.275   0.095  0.00  0.00    +0.241 HD
ATOM     18  H   LIG    1       -2.599   5.576  -0.016  0.00  0.00    +0.241 HD
ENDBRANCH   5  16
BRANCH   7  19
ATOM     19  N   LIG    1       -0.205   0.588   0.368  0.00  0.00    -0.251 N 
ATOM     20  H   LIG    1        0.691   0.935   0.503  0.00  0.00    +0.241 HD
ATOM     21  H   LIG    1       -0.355  -0.370   0.345  0.00  0.00    +0.241 HD
ENDBRANCH   7  19
TORSDOF 3
