REMARK  Name = ZINC00078678
REMARK                            x       y       z     vdW  Elec       q    Type
REMARK                         _______ _______ _______ _____ _____    ______ ____
ROOT
ATOM      1  C   LIG    1        0.002  -0.004   0.002  0.00  0.00    +0.279 C 
ATOM      2  N   LIG    1       -1.150  -0.694   0.111  0.00  0.00    -0.201 N 
ATOM      3  C   LIG    1       -1.269  -2.047   0.213  0.00  0.00    +0.120 A 
ATOM      4  C   LIG    1       -2.586  -2.335   0.303  0.00  0.00    +0.074 A 
ATOM      5  C   LIG    1       -3.297  -1.128   0.255  0.00  0.00    +0.231 A 
ATOM      6  N   LIG    1       -2.440  -0.148   0.146  0.00  0.00    -0.139 NA
ATOM      7  O   LIG    1        1.057  -0.597  -0.102  0.00  0.00    -0.265 OA
ENDROOT
BRANCH   1  12
ATOM      8  C   LIG    1       -0.076   5.748   0.029  0.00  0.00    +0.044 C 
ATOM      9  C   LIG    1       -0.056   4.242   0.022  0.00  0.00    -0.050 A 
ATOM     10  C   LIG    1        1.153   3.569   0.041  0.00  0.00    +0.004 A 
ATOM     11  C   LIG    1        1.180   2.190   0.035  0.00  0.00    +0.013 A 
ATOM     12  C   LIG    1       -0.018   1.472   0.009  0.00  0.00    +0.041 A 
ATOM     13  C   LIG    1       -1.235   2.158  -0.016  0.00  0.00    +0.013 A 
ATOM     14  C   LIG    1       -1.246   3.537  -0.004  0.00  0.00    +0.004 A 
ENDBRANCH   1  12
BRANCH   5  15
ATOM     15  N   LIG    1       -4.769  -0.988   0.321  0.00  0.00    +0.027 N 
ATOM     16  O   LIG    1       -5.472  -1.977   0.427  0.00  0.00    -0.128 OA
BRANCH  15  17
ATOM     17  O   LIG    1       -5.278   0.118   0.269  0.00  0.00    -0.395 OA
ATOM     18  H   LIG    1       -4.738   0.879   0.188  0.00  0.00    +0.329 HD
ENDBRANCH  15  17
ENDBRANCH   5  15
TORSDOF 3
