REMARK  Name = ZINC00086067
REMARK                            x       y       z     vdW  Elec       q    Type
REMARK                         _______ _______ _______ _____ _____    ______ ____
ROOT
ATOM      1  C   LIG    1        2.916   3.661  -0.007  0.00  0.00    +0.159 C 
ATOM      2  C   LIG    1        1.504   3.546   0.006  0.00  0.00    +0.173 C 
ATOM      3  O   LIG    1        0.708   4.465   0.019  0.00  0.00    -0.292 OA
ATOM      4  C   LIG    1        1.172   2.095   0.002  0.00  0.00    +0.049 A 
ATOM      5  C   LIG    1       -0.017   1.392   0.010  0.00  0.00    +0.072 A 
ATOM      6 CL   LIG    1       -1.531   2.242   0.021  0.00  0.00    -0.081 Cl
ATOM      7  C   LIG    1        0.002  -0.004   0.002  0.00  0.00    +0.080 A 
ATOM      8 CL   LIG    1       -1.491  -0.889   0.011  0.00  0.00    -0.080 Cl
ATOM      9  C   LIG    1        1.202  -0.682  -0.013  0.00  0.00    +0.080 A 
ATOM     10 CL   LIG    1        1.214  -2.418  -0.024  0.00  0.00    -0.080 Cl
ATOM     11  C   LIG    1        2.408   0.020  -0.021  0.00  0.00    +0.072 A 
ATOM     12 CL   LIG    1        3.915  -0.840  -0.039  0.00  0.00    -0.081 Cl
ATOM     13  C   LIG    1        2.399   1.405  -0.013  0.00  0.00    +0.049 A 
ATOM     14  C   LIG    1        3.474   2.425  -0.017  0.00  0.00    +0.173 C 
ATOM     15  O   LIG    1        4.800   2.165  -0.030  0.00  0.00    -0.292 OA
ENDROOT
TORSDOF 0
