REMARK  Name = ZINC00235508
REMARK                            x       y       z     vdW  Elec       q    Type
REMARK                         _______ _______ _______ _____ _____    ______ ____
ROOT
ATOM      1  C   LIG    1        1.151   2.380   0.127  0.00  0.00    +0.028 C 
ATOM      2  C   LIG    1        0.358   1.292   0.855  0.00  0.00    +0.074 C 
ATOM      3  C   LIG    1       -0.228   0.314  -0.168  0.00  0.00    +0.022 C 
ATOM      4  C   LIG    1        0.912  -0.424  -0.873  0.00  0.00    +0.004 C 
ATOM      5  C   LIG    1        1.717  -1.224   0.154  0.00  0.00    +0.034 C 
ATOM      6  C   LIG    1        2.325  -0.262   1.180  0.00  0.00    +0.185 C 
ATOM      7  N   LIG    1        1.248   0.556   1.762  0.00  0.00    -0.285 N 
ATOM      8  C   LIG    1        1.079   0.627   3.097  0.00  0.00    +0.217 C 
ATOM      9  O   LIG    1        1.881   0.100   3.839  0.00  0.00    -0.276 OA
ENDROOT
BRANCH   6  10
ATOM     10  C   LIG    1        3.007  -1.051   2.269  0.00  0.00    +0.325 C 
ATOM     11  O   LIG    1        4.198  -0.896   2.479  0.00  0.00    -0.249 OA
BRANCH  10  12
ATOM     12  O   LIG    1        2.367  -1.843   2.940  0.00  0.00    -0.479 OA
ATOM     13  H   LIG    1        1.452  -1.962   2.778  0.00  0.00    +0.295 HD
ENDBRANCH  10  12
ENDBRANCH   6  10
BRANCH   8  14
ATOM     14  C   LIG    1       -0.106   1.362   3.669  0.00  0.00    +0.106 C 
BRANCH  14  15
ATOM     15  C   LIG    1        0.009   1.407   5.194  0.00  0.00    +0.075 C 
BRANCH  15  16
ATOM     16  S   LIG    1       -1.417   2.291   5.882  0.00  0.00    -0.178 S 
ATOM     17  H   LIG    1       -1.206   2.266   7.210  0.00  0.00    +0.102 HD
ENDBRANCH  15  16
ENDBRANCH  14  15
ENDBRANCH   8  14
TORSDOF 5
