REMARK  Name = ZINC00125245
REMARK                            x       y       z     vdW  Elec       q    Type
REMARK                         _______ _______ _______ _____ _____    ______ ____
ROOT
ATOM      1  C   LIG    1        4.963  -2.662   0.030  0.00  0.00    +0.034 A 
ATOM      2  C   LIG    1        6.122  -1.903   0.124  0.00  0.00    +0.025 A 
ATOM      3  C   LIG    1        7.352  -2.529   0.198  0.00  0.00    +0.030 A 
ATOM      4  C   LIG    1        7.429  -3.909   0.178  0.00  0.00    +0.105 A 
ATOM      5  C   LIG    1        6.277  -4.668   0.084  0.00  0.00    +0.030 A 
ATOM      6  C   LIG    1        5.044  -4.049   0.016  0.00  0.00    +0.025 A 
ENDROOT
BRANCH   1   8
ATOM      7  C   LIG    1        2.643  -2.590   0.548  0.00  0.00    +0.248 C 
ATOM      8  N   LIG    1        3.717  -2.032  -0.045  0.00  0.00    -0.282 N 
ATOM      9  H   LIG    1        3.626  -1.193  -0.523  0.00  0.00    +0.155 HD
ATOM     10  O   LIG    1        2.738  -3.682   1.075  0.00  0.00    -0.270 OA
BRANCH   7  14
ATOM     11  C   LIG    1       -1.074  -0.536   0.576  0.00  0.00    +0.000 A 
ATOM     12  C   LIG    1       -0.969  -1.778   1.177  0.00  0.00    +0.001 A 
ATOM     13  C   LIG    1        0.235  -2.451   1.171  0.00  0.00    +0.013 A 
ATOM     14  C   LIG    1        1.349  -1.875   0.558  0.00  0.00    +0.037 A 
ATOM     15  C   LIG    1        1.236  -0.622  -0.046  0.00  0.00    +0.013 A 
ATOM     16  C   LIG    1        0.026   0.040  -0.033  0.00  0.00    +0.001 A 
ENDBRANCH   7  14
ENDBRANCH   1   8
BRANCH   4  17
ATOM     17  S   LIG    1        8.999  -4.703   0.272  0.00  0.00    +0.056 S 
ATOM     18  O   LIG    1        9.957  -3.764  -0.197  0.00  0.00    -0.153 OA
ATOM     19  O   LIG    1        8.840  -5.987  -0.315  0.00  0.00    -0.153 OA
BRANCH  17  20
ATOM     20  N   LIG    1        9.326  -4.953   1.876  0.00  0.00    -0.204 NA
ATOM     21  H   LIG    1        8.976  -4.342   2.543  0.00  0.00    +0.144 HD
ATOM     22  H   LIG    1        9.868  -5.710   2.148  0.00  0.00    +0.144 HD
ENDBRANCH  17  20
ENDBRANCH   4  17
TORSDOF 4
