REMARK  Name = ZINC00338222
REMARK                            x       y       z     vdW  Elec       q    Type
REMARK                         _______ _______ _______ _____ _____    ______ ____
ROOT
ATOM      1  C   LIG    1       -0.013   1.086   0.008  0.00  0.00    +0.051 C 
ATOM      2  C   LIG    1       -0.718   1.572   1.248  0.00  0.00    +0.033 A 
ATOM      3  C   LIG    1        0.007   1.806   2.412  0.00  0.00    +0.130 A 
ATOM      4  C   LIG    1       -0.627   2.254   3.560  0.00  0.00    +0.093 A 
ATOM      5  C   LIG    1       -1.996   2.472   3.558  0.00  0.00    +0.146 A 
ATOM      6  C   LIG    1       -2.731   2.235   2.384  0.00  0.00    +0.106 A 
ATOM      7  C   LIG    1       -4.184   2.471   2.405  0.00  0.00    +0.197 A 
ATOM      8  C   LIG    1       -4.752   2.928   3.619  0.00  0.00    +0.098 A 
ATOM      9  C   LIG    1       -3.952   3.126   4.700  0.00  0.00    +0.139 A 
ATOM     10  O   LIG    1       -4.872   2.283   1.415  0.00  0.00    -0.287 OA
ATOM     11  O   LIG    1       -2.628   2.906   4.668  0.00  0.00    -0.454 OA
ATOM     12  C   LIG    1       -2.083   1.789   1.224  0.00  0.00    +0.138 A 
ENDROOT
BRANCH   9  13
ATOM     13  C   LIG    1       -4.563   3.602   5.957  0.00  0.00    +0.017 A 
ATOM     14  C   LIG    1       -5.937   3.846   6.022  0.00  0.00    +0.011 A 
ATOM     15  C   LIG    1       -6.501   4.286   7.201  0.00  0.00    +0.001 A 
ATOM     16  C   LIG    1       -5.708   4.495   8.316  0.00  0.00    +0.000 A 
ATOM     17  C   LIG    1       -4.346   4.261   8.257  0.00  0.00    +0.001 A 
ATOM     18  C   LIG    1       -3.769   3.816   7.086  0.00  0.00    +0.011 A 
ENDBRANCH   9  13
BRANCH   3  19
ATOM     19  O   LIG    1        1.348   1.596   2.422  0.00  0.00    -0.495 OA
ATOM     20  C   LIG    1        2.036   1.855   3.647  0.00  0.00    +0.277 C 
ENDBRANCH   3  19
BRANCH  12  21
ATOM     21  O   LIG    1       -2.792   1.566   0.088  0.00  0.00    -0.506 OA
ATOM     22  H   LIG    1       -3.134   0.665   0.009  0.00  0.00    +0.292 HD
ENDBRANCH  12  21
TORSDOF 3
