REMARK  Name = ZINC00346678
REMARK                            x       y       z     vdW  Elec       q    Type
REMARK                         _______ _______ _______ _____ _____    ______ ____
ROOT
ATOM      1  C   LIG    1       -2.499   1.013   0.020  0.00  0.00    +0.166 C 
ATOM      2  O   LIG    1       -2.487  -0.200   0.013  0.00  0.00    -0.292 OA
ENDROOT
BRANCH   1   8
ATOM      3  C   LIG    1       -7.907   2.494   1.010  0.00  0.00    -0.096 C 
ATOM      4  N   LIG    1       -6.563   1.888   0.908  0.00  0.00    +0.378 N 
ATOM      5  H   LIG    1       -6.554   1.007   1.436  0.00  0.00    -0.082 HD
ATOM      6  C   LIG    1       -5.552   2.801   1.481  0.00  0.00    -0.079 C 
ATOM      7  C   LIG    1       -4.190   2.105   1.472  0.00  0.00    -0.007 C 
ATOM      8  C   LIG    1       -3.811   1.754   0.030  0.00  0.00    +0.057 C 
ATOM      9  C   LIG    1       -4.903   0.868  -0.576  0.00  0.00    -0.007 C 
ATOM     10  C   LIG    1       -6.245   1.602  -0.507  0.00  0.00    -0.079 C 
ENDBRANCH   1   8
BRANCH   1  11
ATOM     11  C   LIG    1       -1.233   1.761   0.017  0.00  0.00    +0.018 A 
ATOM     12  C   LIG    1       -0.013   1.076   0.008  0.00  0.00    +0.014 A 
ATOM     13  C   LIG    1        1.170   1.782   0.001  0.00  0.00    +0.039 A 
ATOM     14  C   LIG    1        1.153   3.169   0.007  0.00  0.00    +0.123 A 
ATOM     15  F   LIG    1        2.316   3.856  -0.001  0.00  0.00    -0.205 F 
ATOM     16  C   LIG    1       -0.053   3.854   0.022  0.00  0.00    +0.039 A 
ATOM     17  C   LIG    1       -1.243   3.160   0.030  0.00  0.00    +0.014 A 
ENDBRANCH   1  11
TORSDOF 2
