REMARK  Name = ZINC00340351
REMARK                            x       y       z     vdW  Elec       q    Type
REMARK                         _______ _______ _______ _____ _____    ______ ____
ROOT
ATOM      1  C   LIG    1        5.569  -1.745   1.829  0.00  0.00    +0.048 A 
ATOM      2  C   LIG    1        6.386  -2.196   0.800  0.00  0.00    +0.026 A 
ATOM      3  C   LIG    1        7.564  -2.854   1.094  0.00  0.00    +0.030 A 
ATOM      4  C   LIG    1        7.931  -3.065   2.411  0.00  0.00    +0.105 A 
ATOM      5  C   LIG    1        7.120  -2.617   3.438  0.00  0.00    +0.030 A 
ATOM      6  C   LIG    1        5.943  -1.953   3.151  0.00  0.00    +0.026 A 
ENDROOT
BRANCH   4   7
ATOM      7  S   LIG    1        9.434  -3.906   2.782  0.00  0.00    +0.056 S 
ATOM      8  O   LIG    1        9.743  -4.704   1.647  0.00  0.00    -0.153 OA
ATOM      9  O   LIG    1        9.281  -4.457   4.082  0.00  0.00    -0.153 OA
BRANCH   7  10
ATOM     10  N   LIG    1       10.623  -2.759   2.891  0.00  0.00    -0.204 NA
ATOM     11  H   LIG    1       10.561  -1.945   2.367  0.00  0.00    +0.144 HD
ATOM     12  H   LIG    1       11.382  -2.900   3.479  0.00  0.00    +0.144 HD
ENDBRANCH   7  10
ENDBRANCH   4   7
BRANCH   1  13
ATOM     13  N   LIG    1        4.378  -1.079   1.536  0.00  0.00    -0.216 N 
ATOM     14  H   LIG    1        3.801  -0.756   2.266  0.00  0.00    +0.174 HD
BRANCH  13  15
ATOM     15  S   LIG    1        3.934  -0.832  -0.041  0.00  0.00    +0.072 S 
ATOM     16  O   LIG    1        4.890   0.060  -0.597  0.00  0.00    -0.150 OA
ATOM     17  O   LIG    1        3.674  -2.114  -0.595  0.00  0.00    -0.150 OA
BRANCH  15  21
ATOM     18  C   LIG    1       -0.017   1.378   0.010  0.00  0.00    +0.000 A 
ATOM     19  C   LIG    1        1.171   2.086   0.002  0.00  0.00    +0.002 A 
ATOM     20  C   LIG    1        2.377   1.411  -0.013  0.00  0.00    +0.029 A 
ATOM     21  C   LIG    1        2.396   0.029  -0.020  0.00  0.00    +0.108 A 
ATOM     22  C   LIG    1        1.208  -0.679  -0.012  0.00  0.00    +0.029 A 
ATOM     23  C   LIG    1        0.002  -0.004   0.002  0.00  0.00    +0.002 A 
ENDBRANCH  15  21
ENDBRANCH  13  15
ENDBRANCH   1  13
TORSDOF 5
