REMARK  Name = ZINC00131170
REMARK                            x       y       z     vdW  Elec       q    Type
REMARK                         _______ _______ _______ _____ _____    ______ ____
ROOT
ATOM      1  C   LIG    1        3.567  -1.942   2.398  0.00  0.00    +0.141 C 
ENDROOT
BRANCH   1   2
ATOM      2  C   LIG    1        4.353  -2.298   3.634  0.00  0.00    -0.032 A 
ATOM      3  C   LIG    1        5.155  -3.424   3.642  0.00  0.00    +0.007 A 
ATOM      4  C   LIG    1        5.876  -3.750   4.775  0.00  0.00    +0.029 A 
ATOM      5  C   LIG    1        5.796  -2.951   5.900  0.00  0.00    +0.105 A 
ATOM      6  C   LIG    1        4.995  -1.824   5.891  0.00  0.00    +0.029 A 
ATOM      7  C   LIG    1        4.277  -1.495   4.757  0.00  0.00    +0.007 A 
BRANCH   5   8
ATOM      8  S   LIG    1        6.714  -3.367   7.345  0.00  0.00    +0.056 S 
ATOM      9  O   LIG    1        6.960  -4.765   7.281  0.00  0.00    -0.153 OA
ATOM     10  O   LIG    1        6.043  -2.761   8.441  0.00  0.00    -0.153 OA
BRANCH   8  11
ATOM     11  N   LIG    1        8.187  -2.621   7.221  0.00  0.00    -0.204 NA
ATOM     12  H   LIG    1        8.577  -2.459   6.348  0.00  0.00    +0.144 HD
ATOM     13  H   LIG    1        8.661  -2.346   8.022  0.00  0.00    +0.144 HD
ENDBRANCH   8  11
ENDBRANCH   5   8
ENDBRANCH   1   2
BRANCH   1  14
ATOM     14  N   LIG    1        4.378  -1.079   1.536  0.00  0.00    -0.186 NA
ATOM     15  H   LIG    1        5.174  -0.651   1.888  0.00  0.00    +0.148 HD
BRANCH  14  16
ATOM     16  S   LIG    1        3.934  -0.832  -0.041  0.00  0.00    +0.059 S 
ATOM     17  O   LIG    1        4.890   0.060  -0.597  0.00  0.00    -0.153 OA
ATOM     18  O   LIG    1        3.674  -2.114  -0.595  0.00  0.00    -0.153 OA
BRANCH  16  22
ATOM     19  C   LIG    1       -0.017   1.378   0.010  0.00  0.00    +0.000 A 
ATOM     20  C   LIG    1        1.171   2.086   0.002  0.00  0.00    +0.002 A 
ATOM     21  C   LIG    1        2.377   1.411  -0.013  0.00  0.00    +0.028 A 
ATOM     22  C   LIG    1        2.396   0.029  -0.020  0.00  0.00    +0.105 A 
ATOM     23  C   LIG    1        1.208  -0.679  -0.012  0.00  0.00    +0.028 A 
ATOM     24  C   LIG    1        0.002  -0.004   0.002  0.00  0.00    +0.002 A 
ENDBRANCH  16  22
ENDBRANCH  14  16
ENDBRANCH   1  14
TORSDOF 6
