REMARK  Name = ZINC00156552
REMARK                            x       y       z     vdW  Elec       q    Type
REMARK                         _______ _______ _______ _____ _____    ______ ____
ROOT
ATOM      1  C   LIG    1        3.627   1.767  -0.023  0.00  0.00    +0.008 C 
ATOM      2  C   LIG    1        2.475   1.077  -0.015  0.00  0.00    +0.008 C 
ENDROOT
BRANCH   1   8
ATOM      3  C   LIG    1        4.940  -0.346  -0.040  0.00  0.00    +0.010 A 
ATOM      4  C   LIG    1        6.146  -1.012  -0.060  0.00  0.00    +0.023 A 
ATOM      5  C   LIG    1        7.338  -0.295  -0.068  0.00  0.00    +0.025 A 
ATOM      6  C   LIG    1        7.317   1.096  -0.061  0.00  0.00    +0.023 A 
ATOM      7  C   LIG    1        6.115   1.768  -0.046  0.00  0.00    +0.010 A 
ATOM      8  C   LIG    1        4.915   1.052  -0.038  0.00  0.00    -0.025 A 
BRANCH   5   9
ATOM      9  N   LIG    1        8.557  -0.973  -0.084  0.00  0.00    -0.358 N 
ATOM     10  H   LIG    1        8.573  -1.942  -0.089  0.00  0.00    +0.142 HD
ATOM     11  H   LIG    1        9.389  -0.474  -0.089  0.00  0.00    +0.142 HD
ENDBRANCH   5   9
ENDBRANCH   1   8
BRANCH   2  12
ATOM     12  C   LIG    1        1.188   1.792   0.000  0.00  0.00    -0.025 A 
ATOM     13  C   LIG    1       -0.013   1.076   0.008  0.00  0.00    +0.011 A 
ATOM     14  C   LIG    1       -1.215   1.750   0.017  0.00  0.00    +0.046 A 
ATOM     15  C   LIG    1       -1.235   3.138   0.031  0.00  0.00    +0.117 A 
ATOM     16  C   LIG    1       -0.045   3.855   0.023  0.00  0.00    +0.046 A 
ATOM     17  C   LIG    1        1.162   3.190   0.008  0.00  0.00    +0.011 A 
BRANCH  15  18
ATOM     18  O   LIG    1       -2.422   3.798   0.046  0.00  0.00    -0.507 OA
ATOM     19  H   LIG    1       -2.775   3.994  -0.833  0.00  0.00    +0.292 HD
ENDBRANCH  15  18
ENDBRANCH   2  12
TORSDOF 4
