REMARK  Name = ZINC00180705
REMARK                            x       y       z     vdW  Elec       q    Type
REMARK                         _______ _______ _______ _____ _____    ______ ____
ROOT
ATOM      1  C   LIG    1       -2.800  -2.432   0.236  0.00  0.00    +0.078 C 
ATOM      2  C   LIG    1       -2.985  -3.731  -0.085  0.00  0.00    +0.021 C 
ATOM      3  C   LIG    1       -1.789  -4.640  -0.210  0.00  0.00    +0.061 C 
ATOM      4  N   LIG    1       -4.236  -4.233  -0.297  0.00  0.00    -0.273 N 
ATOM      5  H   LIG    1       -4.320  -5.173  -0.525  0.00  0.00    +0.156 HD
ATOM      6  C   LIG    1       -5.355  -3.503  -0.209  0.00  0.00    +0.304 C 
ATOM      7  N   LIG    1       -5.332  -2.192   0.102  0.00  0.00    -0.288 N 
ATOM      8  H   LIG    1       -6.155  -1.681   0.160  0.00  0.00    +0.151 HD
ATOM      9  O   LIG    1       -6.426  -4.039  -0.417  0.00  0.00    -0.252 OA
ATOM     10  C   LIG    1       -4.029  -1.554   0.357  0.00  0.00    +0.143 C 
ENDROOT
BRANCH  10  11
ATOM     11  C   LIG    1       -3.880  -0.410  -0.612  0.00  0.00    -0.022 A 
ATOM     12  C   LIG    1       -4.170  -0.595  -1.951  0.00  0.00    +0.008 A 
ATOM     13  C   LIG    1       -4.033   0.455  -2.840  0.00  0.00    +0.033 A 
ATOM     14  C   LIG    1       -3.606   1.690  -2.390  0.00  0.00    +0.122 A 
ATOM     15  C   LIG    1       -3.317   1.876  -1.051  0.00  0.00    +0.033 A 
ATOM     16  C   LIG    1       -3.459   0.827  -0.161  0.00  0.00    +0.008 A 
BRANCH  14  17
ATOM     17  N   LIG    1       -3.459   2.814  -3.342  0.00  0.00    +0.006 N 
ATOM     18  O   LIG    1       -3.711   2.651  -4.513  0.00  0.00    -0.130 OA
BRANCH  17  19
ATOM     19  O   LIG    1       -3.086   3.894  -2.948  0.00  0.00    -0.396 OA
ATOM     20  H   LIG    1       -2.890   4.021  -2.041  0.00  0.00    +0.329 HD
ENDBRANCH  17  19
ENDBRANCH  14  17
ENDBRANCH  10  11
BRANCH   1  21
ATOM     21  C   LIG    1       -1.504  -1.910   0.457  0.00  0.00    +0.339 C 
ATOM     22  O   LIG    1       -0.542  -2.655   0.472  0.00  0.00    -0.245 OA
BRANCH  21  23
ATOM     23  O   LIG    1       -1.334  -0.586   0.652  0.00  0.00    -0.462 OA
BRANCH  23  25
ATOM     24  C   LIG    1       -0.005   1.389   1.069  0.00  0.00    +0.048 C 
ATOM     25  C   LIG    1        0.002  -0.128   0.870  0.00  0.00    +0.229 C 
ENDBRANCH  23  25
ENDBRANCH  21  23
ENDBRANCH   1  21
TORSDOF 6
