REMARK  Name = ZINC00309761
REMARK                            x       y       z     vdW  Elec       q    Type
REMARK                         _______ _______ _______ _____ _____    ______ ____
ROOT
ATOM      1  C   LIG    1        3.619   6.656  -0.212  0.00  0.00    +0.101 C 
ATOM      2  C   LIG    1        4.381   6.255  -1.496  0.00  0.00    +0.110 C 
ATOM      3  C   LIG    1        4.998   7.549  -1.980  0.00  0.00    +0.217 C 
ATOM      4  N   LIG    1        4.406   8.596  -1.381  0.00  0.00    -0.298 N 
ATOM      5  O   LIG    1        5.896   7.629  -2.791  0.00  0.00    -0.276 OA
ATOM      6  C   LIG    1        3.350   8.157  -0.461  0.00  0.00    +0.121 C 
ENDROOT
BRANCH   4   7
ATOM      7  C   LIG    1        4.768   9.996  -1.616  0.00  0.00    +0.076 C 
ATOM      8  C   LIG    1        4.567  10.334  -3.094  0.00  0.00    +0.022 C 
ATOM      9  C   LIG    1        4.946  11.796  -3.340  0.00  0.00    +0.002 C 
ATOM     10  C   LIG    1        6.412  12.014  -2.961  0.00  0.00    +0.000 C 
ATOM     11  C   LIG    1        6.613  11.676  -1.482  0.00  0.00    +0.002 C 
ATOM     12  C   LIG    1        6.234  10.214  -1.237  0.00  0.00    +0.022 C 
ENDBRANCH   4   7
BRANCH   1  15
ATOM     13  N   LIG    1        2.346   4.546   0.004  0.00  0.00    -0.285 N 
ATOM     14  H   LIG    1        3.193   4.076   0.062  0.00  0.00    +0.155 HD
ATOM     15  C   LIG    1        2.326   5.890  -0.091  0.00  0.00    +0.222 C 
ATOM     16  O   LIG    1        1.269   6.483  -0.078  0.00  0.00    -0.275 OA
BRANCH  13  19
ATOM     17  C   LIG    1       -1.160   3.649   0.656  0.00  0.00    +0.003 A 
ATOM     18  C   LIG    1        0.025   4.360   0.642  0.00  0.00    +0.023 A 
ATOM     19  C   LIG    1        1.146   3.828   0.019  0.00  0.00    +0.035 A 
ATOM     20  C   LIG    1        1.073   2.581  -0.589  0.00  0.00    +0.043 A 
ATOM     21  C   LIG    1       -0.115   1.874  -0.572  0.00  0.00    +0.043 A 
ATOM     22 CL   LIG    1       -0.207   0.316  -1.331  0.00  0.00    -0.083 Cl
ATOM     23  C   LIG    1       -1.232   2.410   0.046  0.00  0.00    +0.020 A 
ENDBRANCH  13  19
ENDBRANCH   1  15
TORSDOF 3
