REMARK  Name = ZINC00092950
REMARK                            x       y       z     vdW  Elec       q    Type
REMARK                         _______ _______ _______ _____ _____    ______ ____
ROOT
ATOM      1  C   LIG    1       -5.080   3.235   0.108  0.00  0.00    +0.351 C 
ATOM      2  O   LIG    1       -5.411   4.404   0.154  0.00  0.00    -0.244 OA
ENDROOT
BRANCH   1   9
ATOM      3  C   LIG    1        1.137   3.155   0.105  0.00  0.00    +0.001 A 
ATOM      4  C   LIG    1        1.169   1.766   0.050  0.00  0.00    +0.001 A 
ATOM      5  C   LIG    1       -0.016   1.059   0.022  0.00  0.00    +0.015 A 
ATOM      6  C   LIG    1       -1.214   1.740   0.043  0.00  0.00    +0.020 A 
ATOM      7  C   LIG    1       -1.278   3.153   0.104  0.00  0.00    -0.010 A 
ATOM      8  C   LIG    1       -2.574   3.698   0.126  0.00  0.00    +0.031 A 
ATOM      9  C   LIG    1       -3.656   2.875   0.093  0.00  0.00    +0.098 A 
ATOM     10  S   LIG    1       -2.921   1.251   0.029  0.00  0.00    -0.082 S 
ATOM     11  C   LIG    1       -0.036   3.839   0.132  0.00  0.00    +0.009 A 
ENDBRANCH   1   9
BRANCH   1  12
ATOM     12  O   LIG    1       -6.020   2.269   0.069  0.00  0.00    -0.420 OA
BRANCH  12  13
ATOM     13  C   LIG    1       -7.315   2.663   0.189  0.00  0.00    +0.151 A 
ATOM     14  C   LIG    1       -7.977   3.245  -0.887  0.00  0.00    +0.069 A 
ATOM     15  C   LIG    1       -9.300   3.626  -0.719  0.00  0.00    +0.063 A 
ATOM     16 CL   LIG    1      -10.179   4.351  -2.028  0.00  0.00    -0.082 Cl
ATOM     17  C   LIG    1       -9.909   3.426   0.508  0.00  0.00    +0.131 A 
ATOM     18  N   LIG    1       -9.250   2.876   1.509  0.00  0.00    -0.258 NA
ATOM     19  C   LIG    1       -7.993   2.496   1.387  0.00  0.00    +0.157 A 
ENDBRANCH  12  13
ENDBRANCH   1  12
TORSDOF 3
