REMARK  Name = ZINC00122268
REMARK                            x       y       z     vdW  Elec       q    Type
REMARK                         _______ _______ _______ _____ _____    ______ ____
ROOT
ATOM      1  C   LIG    1        0.803  -2.802   4.598  0.00  0.00    +0.132 A 
ATOM      2  C   LIG    1        1.803  -3.124   5.548  0.00  0.00    +0.041 A 
ATOM      3  C   LIG    1        3.098  -2.599   5.472  0.00  0.00    +0.028 A 
ATOM      4  C   LIG    1        4.020  -2.945   6.417  0.00  0.00    +0.019 A 
ATOM      5 BR   LIG    1        5.771  -2.237   6.315  0.00  0.00    -0.050 Br
ATOM      6  C   LIG    1        3.689  -3.813   7.455  0.00  0.00    +0.017 A 
ATOM      7  C   LIG    1        2.436  -4.340   7.557  0.00  0.00    +0.029 A 
ATOM      8  C   LIG    1        1.465  -4.006   6.604  0.00  0.00    +0.076 A 
ATOM      9  N   LIG    1        0.217  -4.496   6.658  0.00  0.00    -0.235 NA
ATOM     10  C   LIG    1       -0.669  -4.163   5.750  0.00  0.00    +0.223 A 
ATOM     11  N   LIG    1       -0.400  -3.339   4.749  0.00  0.00    -0.220 NA
ENDROOT
BRANCH   1  16
ATOM     12  N   LIG    1        0.686  -0.426   1.238  0.00  0.00    +0.382 N 
ATOM     13  H   LIG    1        1.632  -0.075   1.227  0.00  0.00    -0.082 HD
ATOM     14  C   LIG    1        0.031  -0.018   2.487  0.00  0.00    -0.060 C 
ATOM     15  C   LIG    1        0.864  -0.499   3.680  0.00  0.00    +0.088 C 
ATOM     16  N   LIG    1        1.071  -1.950   3.549  0.00  0.00    -0.318 N 
ATOM     17  C   LIG    1        1.573  -2.465   2.265  0.00  0.00    +0.088 C 
ATOM     18  C   LIG    1        0.707  -1.891   1.139  0.00  0.00    -0.060 C 
BRANCH  12  20
ATOM     19  C   LIG    1        0.029   1.656   0.129  0.00  0.00    -0.017 C 
ATOM     20  C   LIG    1       -0.053   0.129   0.096  0.00  0.00    -0.082 C 
ENDBRANCH  12  20
ENDBRANCH   1  16
TORSDOF 2
