REMARK  Name = ZINC00094783
REMARK                            x       y       z     vdW  Elec       q    Type
REMARK                         _______ _______ _______ _____ _____    ______ ____
ROOT
ATOM      1  C   LIG    1       -3.041   0.454  -1.095  0.00  0.00    +0.056 A 
ATOM      2  C   LIG    1       -4.011  -0.409  -0.676  0.00  0.00    +0.028 A 
ATOM      3  C   LIG    1       -3.995  -0.408   0.728  0.00  0.00    +0.023 A 
ATOM      4  C   LIG    1       -3.023   0.441   1.127  0.00  0.00    +0.020 A 
ATOM      5  N   LIG    1       -2.430   0.973   0.019  0.00  0.00    -0.333 N 
ENDROOT
BRANCH   1   8
ATOM      6  C   LIG    1       -2.833   0.795  -4.856  0.00  0.00    +0.008 A 
ATOM      7  C   LIG    1       -3.332   0.365  -3.646  0.00  0.00    +0.017 A 
ATOM      8  C   LIG    1       -2.707   0.771  -2.494  0.00  0.00    +0.036 A 
ATOM      9  S   LIG    1       -1.387   1.790  -3.133  0.00  0.00    -0.095 S 
ATOM     10  C   LIG    1       -1.743   1.604  -4.872  0.00  0.00    +0.046 A 
ENDBRANCH   1   8
BRANCH   4  11
ATOM     11  C   LIG    1       -2.657   0.749   2.556  0.00  0.00    +0.064 C 
BRANCH  11  12
ATOM     12  C   LIG    1       -1.673  -0.305   3.069  0.00  0.00    +0.126 C 
BRANCH  12  13
ATOM     13  C   LIG    1       -1.307   0.004   4.498  0.00  0.00    +0.305 C 
ATOM     14  O   LIG    1       -1.783   0.968   5.049  0.00  0.00    -0.251 OA
BRANCH  13  15
ATOM     15  O   LIG    1       -0.451  -0.792   5.158  0.00  0.00    -0.481 OA
ATOM     16  H   LIG    1       -0.082  -1.540   4.730  0.00  0.00    +0.295 HD
ENDBRANCH  13  15
ENDBRANCH  12  13
ENDBRANCH  11  12
ENDBRANCH   4  11
BRANCH   5  17
ATOM     17  C   LIG    1       -1.329   1.940   0.019  0.00  0.00    +0.242 C 
BRANCH  17  18
ATOM     18  C   LIG    1       -0.014   1.204   0.009  0.00  0.00    +0.325 C 
ATOM     19  O   LIG    1        0.002  -0.004   0.002  0.00  0.00    -0.249 OA
BRANCH  18  20
ATOM     20  O   LIG    1        1.139   1.891   0.001  0.00  0.00    -0.479 OA
ATOM     21  H   LIG    1        1.126   2.828   0.006  0.00  0.00    +0.295 HD
ENDBRANCH  18  20
ENDBRANCH  17  18
ENDBRANCH   5  17
TORSDOF 8
