REMARK  Name = ZINC00236110
REMARK                            x       y       z     vdW  Elec       q    Type
REMARK                         _______ _______ _______ _____ _____    ______ ____
ROOT
ATOM      1  N   LIG    1        3.586   2.134  -0.021  0.00  0.00    -0.216 N 
ATOM      2  H   LIG    1        3.712   2.865  -0.645  0.00  0.00    +0.174 HD
ENDROOT
BRANCH   1   5
ATOM      3  C   LIG    1       -0.001   1.327  -0.113  0.00  0.00    +0.024 A 
ATOM      4  C   LIG    1        1.173   2.054  -0.096  0.00  0.00    +0.026 A 
ATOM      5  C   LIG    1        2.395   1.397  -0.038  0.00  0.00    +0.048 A 
ATOM      6  C   LIG    1        2.436   0.009   0.004  0.00  0.00    +0.026 A 
ATOM      7  C   LIG    1        1.262  -0.717  -0.013  0.00  0.00    +0.024 A 
ATOM      8  C   LIG    1        0.040  -0.060  -0.071  0.00  0.00    +0.025 A 
BRANCH   8   9
ATOM      9  N   LIG    1       -1.150  -0.797  -0.088  0.00  0.00    -0.358 N 
ATOM     10  H   LIG    1       -1.121  -1.766  -0.059  0.00  0.00    +0.142 HD
ATOM     11  H   LIG    1       -2.004  -0.338  -0.128  0.00  0.00    +0.142 HD
ENDBRANCH   8   9
ENDBRANCH   1   5
BRANCH   1  12
ATOM     12  S   LIG    1        4.778   1.756   1.064  0.00  0.00    +0.072 S 
ATOM     13  O   LIG    1        5.796   2.734   0.905  0.00  0.00    -0.150 OA
ATOM     14  O   LIG    1        5.029   0.364   0.923  0.00  0.00    -0.150 OA
BRANCH  12  15
ATOM     15  C   LIG    1        4.106   1.986   2.677  0.00  0.00    +0.109 A 
ATOM     16  C   LIG    1        4.112   3.242   3.255  0.00  0.00    +0.030 A 
ATOM     17  C   LIG    1        3.585   3.423   4.520  0.00  0.00    +0.022 A 
ATOM     18  C   LIG    1        3.053   2.347   5.208  0.00  0.00    +0.041 A 
ATOM     19 CL   LIG    1        2.392   2.574   6.797  0.00  0.00    -0.084 Cl
ATOM     20  C   LIG    1        3.048   1.091   4.629  0.00  0.00    +0.022 A 
ATOM     21  C   LIG    1        3.570   0.912   3.361  0.00  0.00    +0.030 A 
ENDBRANCH  12  15
ENDBRANCH   1  12
TORSDOF 4
