REMARK  Name = ZINC00266073
REMARK                            x       y       z     vdW  Elec       q    Type
REMARK                         _______ _______ _______ _____ _____    ______ ____
ROOT
ATOM      1  C   LIG    1       -2.414   1.208   0.020  0.00  0.00    +0.053 C 
ATOM      2  C   LIG    1       -1.248   1.903   0.018  0.00  0.00    +0.095 C 
ENDROOT
BRANCH   1   5
ATOM      3  C   LIG    1       -5.827   2.378   0.042  0.00  0.00    +0.042 A 
ATOM      4  C   LIG    1       -4.903   1.323   0.027  0.00  0.00    +0.049 A 
ATOM      5  C   LIG    1       -3.649   1.899   0.030  0.00  0.00    +0.128 A 
ATOM      6  O   LIG    1       -3.811   3.239   0.037  0.00  0.00    -0.464 OA
ATOM      7  C   LIG    1       -5.119   3.530   0.045  0.00  0.00    +0.195 A 
ENDBRANCH   1   5
BRANCH   2   8
ATOM      8  C   LIG    1       -0.014   1.213   0.009  0.00  0.00    +0.330 C 
ATOM      9  O   LIG    1        0.002  -0.004   0.002  0.00  0.00    -0.246 OA
BRANCH   8  10
ATOM     10  O   LIG    1        1.145   1.904   0.001  0.00  0.00    -0.478 OA
ATOM     11  H   LIG    1        1.133   2.841   0.006  0.00  0.00    +0.295 HD
ENDBRANCH   8  10
ENDBRANCH   2   8
TORSDOF 3
