REMARK  Name = ZINC00307577
REMARK                            x       y       z     vdW  Elec       q    Type
REMARK                         _______ _______ _______ _____ _____    ______ ____
ROOT
ATOM      1  N   LIG    1        0.096  -2.777  -0.113  0.00  0.00    -0.291 N 
ATOM      2  H   LIG    1       -0.246  -2.352   0.689  0.00  0.00    +0.154 HD
ENDROOT
BRANCH   1   9
ATOM      3  C   LIG    1        1.102  -0.713  -0.879  0.00  0.00    +0.141 A 
ATOM      4  C   LIG    1        1.631   0.053  -1.903  0.00  0.00    +0.049 A 
ATOM      5  C   LIG    1        1.683  -0.451  -3.190  0.00  0.00    +0.024 A 
ATOM      6  C   LIG    1        1.206  -1.722  -3.458  0.00  0.00    +0.043 A 
ATOM      7 CL   LIG    1        1.272  -2.349  -5.076  0.00  0.00    -0.083 Cl
ATOM      8  C   LIG    1        0.675  -2.494  -2.440  0.00  0.00    +0.047 A 
ATOM      9  C   LIG    1        0.627  -1.995  -1.146  0.00  0.00    +0.076 A 
BRANCH   3  11
ATOM     10  C   LIG    1        1.557   1.103   0.587  0.00  0.00    +0.277 C 
ATOM     11  O   LIG    1        1.052  -0.218   0.387  0.00  0.00    -0.493 OA
ENDBRANCH   3  11
ENDBRANCH   1   9
BRANCH   1  12
ATOM     12  C   LIG    1        0.060  -4.157  -0.236  0.00  0.00    +0.163 A 
ATOM     13  N   LIG    1       -0.506  -5.051   0.553  0.00  0.00    -0.225 NA
ATOM     14  C   LIG    1       -0.442  -6.351   0.278  0.00  0.00    +0.082 A 
ATOM     15  C   LIG    1        0.223  -6.765  -0.842  0.00  0.00    +0.077 A 
ATOM     16  S   LIG    1        0.760  -5.196  -1.510  0.00  0.00    -0.060 S 
BRANCH  14  17
ATOM     17  C   LIG    1       -1.083  -7.341   1.177  0.00  0.00    +0.019 A 
ATOM     18  C   LIG    1       -1.857  -6.918   2.262  0.00  0.00    +0.013 A 
ATOM     19  C   LIG    1       -2.435  -7.881   3.071  0.00  0.00    +0.020 A 
ATOM     20  C   LIG    1       -2.231  -9.218   2.783  0.00  0.00    +0.111 A 
ATOM     21  N   LIG    1       -1.496  -9.587   1.752  0.00  0.00    -0.263 NA
ATOM     22  C   LIG    1       -0.930  -8.707   0.950  0.00  0.00    +0.120 A 
ENDBRANCH  14  17
ENDBRANCH   1  12
TORSDOF 4
