REMARK  Name = ZINC00303781
REMARK                            x       y       z     vdW  Elec       q    Type
REMARK                         _______ _______ _______ _____ _____    ______ ____
ROOT
ATOM      1  C   LIG    1       -8.746   0.507   4.449  0.00  0.00    +0.051 C 
ATOM      2  C   LIG    1       -8.011   0.038   3.220  0.00  0.00    +0.034 A 
ATOM      3  C   LIG    1       -8.656  -0.764   2.293  0.00  0.00    +0.123 A 
ATOM      4  C   LIG    1       -7.989  -1.203   1.155  0.00  0.00    +0.046 A 
ATOM      5  C   LIG    1       -6.677  -0.841   0.942  0.00  0.00    +0.016 A 
ATOM      6  C   LIG    1       -6.020  -0.033   1.869  0.00  0.00    +0.026 A 
ATOM      7  C   LIG    1       -4.614   0.365   1.657  0.00  0.00    -0.000 A 
ATOM      8  C   LIG    1       -3.895  -0.042   0.540  0.00  0.00    +0.013 A 
ATOM      9  C   LIG    1       -2.583   0.357   0.391  0.00  0.00    +0.046 A 
ATOM     10  C   LIG    1       -1.975   1.163   1.348  0.00  0.00    +0.121 A 
ATOM     11  C   LIG    1       -2.675   1.573   2.470  0.00  0.00    +0.061 A 
ATOM     12  C   LIG    1       -4.002   1.182   2.632  0.00  0.00    +0.071 A 
ATOM     13  C   LIG    1       -4.793   1.592   3.801  0.00  0.00    +0.345 A 
ATOM     14  O   LIG    1       -4.290   2.296   4.655  0.00  0.00    -0.245 OA
ATOM     15  O   LIG    1       -6.068   1.194   3.930  0.00  0.00    -0.421 OA
ATOM     16  C   LIG    1       -6.689   0.411   3.018  0.00  0.00    +0.146 A 
ENDROOT
BRANCH   3  17
ATOM     17  O   LIG    1       -9.950  -1.125   2.498  0.00  0.00    -0.506 OA
ATOM     18  H   LIG    1      -10.594  -0.509   2.122  0.00  0.00    +0.292 HD
ENDBRANCH   3  17
BRANCH  10  19
ATOM     19  O   LIG    1       -0.682   1.547   1.184  0.00  0.00    -0.495 OA
ATOM     20  C   LIG    1       -0.013   1.086   0.008  0.00  0.00    +0.277 C 
ENDBRANCH  10  19
TORSDOF 2
