REMARK  Name = ZINC00127708
REMARK                            x       y       z     vdW  Elec       q    Type
REMARK                         _______ _______ _______ _____ _____    ______ ____
ROOT
ATOM      1  C   LIG    1       -1.264  -0.763   0.011  0.00  0.00    +0.136 A 
ATOM      2  C   LIG    1       -1.377  -2.121   0.010  0.00  0.00    +0.050 A 
ATOM      3  C   LIG    1       -2.746  -2.421   0.020  0.00  0.00    +0.051 A 
ATOM      4  C   LIG    1       -3.416  -1.217   0.026  0.00  0.00    +0.148 A 
ATOM      5  O   LIG    1       -2.500  -0.228   0.026  0.00  0.00    -0.454 OA
ENDROOT
BRANCH   1  12
ATOM      6  C   LIG    1       -0.017   1.393   0.010  0.00  0.00    +0.012 A 
ATOM      7  C   LIG    1        1.170   2.095   0.002  0.00  0.00    +0.016 A 
ATOM      8  C   LIG    1        2.378   1.419  -0.013  0.00  0.00    +0.018 A 
ATOM      9 BR   LIG    1        4.000   2.391  -0.024  0.00  0.00    -0.050 Br
ATOM     10  C   LIG    1        2.404   0.035  -0.022  0.00  0.00    +0.016 A 
ATOM     11  C   LIG    1        1.225  -0.680  -0.014  0.00  0.00    +0.012 A 
ATOM     12  C   LIG    1        0.002  -0.004   0.002  0.00  0.00    +0.017 A 
ENDBRANCH   1  12
BRANCH   4  13
ATOM     13  C   LIG    1       -4.870  -1.043   0.036  0.00  0.00    +0.178 C 
ATOM     14  N   LIG    1       -5.382   0.154   0.042  0.00  0.00    -0.177 NA
BRANCH  14  15
ATOM     15  N   LIG    1       -6.773   0.320   0.052  0.00  0.00    -0.259 N 
ATOM     16  H   LIG    1       -7.354  -0.456   0.055  0.00  0.00    +0.191 HD
ATOM     17  C   LIG    1       -7.311   1.577   0.057  0.00  0.00    +0.142 C 
BRANCH  17  18
ATOM     18  N   LIG    1       -8.669   1.740   0.067  0.00  0.00    -0.338 N 
ATOM     19  H   LIG    1       -9.050   2.632   0.071  0.00  0.00    +0.144 HD
ATOM     20  H   LIG    1       -9.250   0.964   0.070  0.00  0.00    +0.144 HD
ENDBRANCH  17  18
BRANCH  17  21
ATOM     21  S   LIG    1       -6.316   2.906   0.052  0.00  0.00    -0.109 S 
ATOM     22  H   LIG    1       -5.018   2.500   0.042  0.00  0.00    +0.110 HD
ENDBRANCH  17  21
ENDBRANCH  14  15
ENDBRANCH   4  13
TORSDOF 5
