REMARK  Name = ZINC00280585
REMARK                            x       y       z     vdW  Elec       q    Type
REMARK                         _______ _______ _______ _____ _____    ______ ____
ROOT
ATOM      1  C   LIG    1        1.250  -2.159  -0.022  0.00  0.00    +0.137 A 
ATOM      2  C   LIG    1        0.552  -2.981   0.833  0.00  0.00    +0.051 A 
ATOM      3  C   LIG    1        0.863  -4.296   0.480  0.00  0.00    +0.057 A 
ATOM      4  C   LIG    1        1.744  -4.227  -0.582  0.00  0.00    +0.212 A 
ATOM      5  O   LIG    1        1.957  -2.925  -0.870  0.00  0.00    -0.448 OA
ENDROOT
BRANCH   1  11
ATOM      6  C   LIG    1       -0.017   1.375   0.010  0.00  0.00    +0.001 A 
ATOM      7  C   LIG    1        1.170   2.087   0.002  0.00  0.00    +0.001 A 
ATOM      8  C   LIG    1        2.383   1.423  -0.013  0.00  0.00    +0.021 A 
ATOM      9  C   LIG    1        2.418   0.042  -0.022  0.00  0.00    +0.052 A 
ATOM     10 CL   LIG    1        3.941  -0.791  -0.043  0.00  0.00    -0.083 Cl
ATOM     11  C   LIG    1        1.223  -0.683  -0.014  0.00  0.00    +0.036 A 
ATOM     12  C   LIG    1        0.002  -0.004   0.002  0.00  0.00    +0.013 A 
ENDBRANCH   1  11
BRANCH   4  13
ATOM     13  C   LIG    1        2.319  -5.331  -1.256  0.00  0.00    +0.372 C 
ATOM     14  O   LIG    1        2.045  -6.473  -0.907  0.00  0.00    -0.242 OA
BRANCH  13  15
ATOM     15  O   LIG    1        3.091  -5.145  -2.189  0.00  0.00    -0.475 OA
ATOM     16  H   LIG    1        3.301  -4.272  -2.456  0.00  0.00    +0.296 HD
ENDBRANCH  13  15
ENDBRANCH   4  13
TORSDOF 3
