REMARK  Name = ZINC00142380
REMARK                            x       y       z     vdW  Elec       q    Type
REMARK                         _______ _______ _______ _____ _____    ______ ____
ROOT
ATOM      1  C   LIG    1        3.579   0.799  -0.029  0.00  0.00    +0.149 C 
ATOM      2  N   LIG    1        2.115   0.748  -0.014  0.00  0.00    -0.338 N 
ATOM      3  C   LIG    1        1.355  -0.397  -0.013  0.00  0.00    +0.049 A 
ATOM      4  C   LIG    1        1.673  -1.752  -0.023  0.00  0.00    +0.026 A 
ATOM      5  C   LIG    1        0.667  -2.692  -0.018  0.00  0.00    +0.002 A 
ATOM      6  C   LIG    1       -0.666  -2.302  -0.004  0.00  0.00    +0.001 A 
ATOM      7  C   LIG    1       -1.003  -0.980   0.006  0.00  0.00    +0.010 A 
ATOM      8  C   LIG    1        0.002  -0.004   0.002  0.00  0.00    +0.001 A 
ATOM      9  C   LIG    1       -0.017   1.411   0.010  0.00  0.00    +0.043 A 
ATOM     10  C   LIG    1        1.272   1.843  -0.000  0.00  0.00    +0.128 A 
ENDROOT
BRANCH  10  11
ATOM     11  C   LIG    1        1.700   3.248   0.003  0.00  0.00    +0.353 C 
ATOM     12  O   LIG    1        0.870   4.136   0.015  0.00  0.00    -0.243 OA
BRANCH  11  13
ATOM     13  O   LIG    1        3.014   3.553  -0.009  0.00  0.00    -0.476 OA
ATOM     14  H   LIG    1        3.653   2.868  -0.018  0.00  0.00    +0.295 HD
ENDBRANCH  11  13
ENDBRANCH  10  11
TORSDOF 2
