REMARK  Name = ZINC00079582
REMARK                            x       y       z     vdW  Elec       q    Type
REMARK                         _______ _______ _______ _____ _____    ______ ____
ROOT
ATOM      1  C   LIG    1        0.002  -0.004   0.002  0.00  0.00    +0.161 C 
ATOM      2  O   LIG    1        1.060  -0.596  -0.011  0.00  0.00    -0.292 OA
ENDROOT
BRANCH   1   3
ATOM      3  C   LIG    1       -0.018   1.467   0.010  0.00  0.00    +0.017 A 
ATOM      4  C   LIG    1       -1.236   2.154   0.020  0.00  0.00    +0.011 A 
ATOM      5  C   LIG    1       -1.247   3.533   0.033  0.00  0.00    +0.001 A 
ATOM      6  C   LIG    1       -0.055   4.237   0.026  0.00  0.00    +0.000 A 
ATOM      7  C   LIG    1        1.154   3.565   0.010  0.00  0.00    +0.001 A 
ATOM      8  C   LIG    1        1.181   2.187   0.003  0.00  0.00    +0.011 A 
ENDBRANCH   1   3
BRANCH   1   9
ATOM      9  C   LIG    1       -1.293  -0.775   0.010  0.00  0.00    +0.061 C 
BRANCH   9  10
ATOM     10  C   LIG    1       -0.993  -2.276  -0.001  0.00  0.00    -0.072 C 
BRANCH  10  12
ATOM     11  C   LIG    1       -3.004  -2.812  -1.238  0.00  0.00    -0.097 C 
ATOM     12  N   LIG    1       -2.271  -3.018   0.029  0.00  0.00    +0.376 N 
ATOM     13  H   LIG    1       -2.842  -2.666   0.806  0.00  0.00    -0.083 HD
ATOM     14  C   LIG    1       -2.014  -4.458   0.235  0.00  0.00    -0.097 C 
ENDBRANCH  10  12
ENDBRANCH   9  10
ENDBRANCH   1   9
TORSDOF 4
