REMARK  Name = ZINC00288493
REMARK                            x       y       z     vdW  Elec       q    Type
REMARK                         _______ _______ _______ _____ _____    ______ ____
ROOT
ATOM      1  C   LIG    1        4.809   4.168  -0.023  0.00  0.00    +0.064 A 
ATOM      2  C   LIG    1        5.860   3.786   0.815  0.00  0.00    +0.029 A 
ATOM      3  C   LIG    1        7.042   4.497   0.801  0.00  0.00    +0.030 A 
ATOM      4  C   LIG    1        7.188   5.586  -0.039  0.00  0.00    +0.105 A 
ATOM      5  C   LIG    1        6.152   5.970  -0.872  0.00  0.00    +0.030 A 
ATOM      6  C   LIG    1        4.966   5.265  -0.873  0.00  0.00    +0.029 A 
ENDROOT
BRANCH   4   7
ATOM      7  S   LIG    1        8.701   6.489  -0.049  0.00  0.00    +0.056 S 
ATOM      8  O   LIG    1        9.317   6.264   1.212  0.00  0.00    -0.153 OA
ATOM      9  O   LIG    1        8.394   7.793  -0.525  0.00  0.00    -0.153 OA
BRANCH   7  10
ATOM     10  N   LIG    1        9.682   5.790  -1.186  0.00  0.00    -0.204 NA
ATOM     11  H   LIG    1        9.604   4.842  -1.376  0.00  0.00    +0.144 HD
ATOM     12  H   LIG    1       10.334   6.328  -1.661  0.00  0.00    +0.144 HD
ENDBRANCH   7  10
ENDBRANCH   4   7
BRANCH   1  14
ATOM     13  C   LIG    1        3.652   2.165  -0.022  0.00  0.00    +0.119 C 
ATOM     14  N   LIG    1        3.634   3.467  -0.015  0.00  0.00    -0.255 NA
BRANCH  13  17
ATOM     15  C   LIG    1       -0.017   1.379   0.010  0.00  0.00    +0.004 A 
ATOM     16  C   LIG    1        1.166   2.089   0.002  0.00  0.00    +0.009 A 
ATOM     17  C   LIG    1        2.388   1.411  -0.013  0.00  0.00    -0.003 A 
ATOM     18  C   LIG    1        2.404   0.013  -0.021  0.00  0.00    +0.054 A 
ATOM     19  C   LIG    1        1.211  -0.688  -0.013  0.00  0.00    +0.117 A 
ATOM     20  C   LIG    1        0.002  -0.004   0.002  0.00  0.00    +0.045 A 
BRANCH  19  21
ATOM     21  O   LIG    1        1.222  -2.047  -0.021  0.00  0.00    -0.507 OA
ATOM     22  H   LIG    1        1.234  -2.445   0.860  0.00  0.00    +0.292 HD
ENDBRANCH  19  21
ENDBRANCH  13  17
ENDBRANCH   1  14
TORSDOF 5
