REMARK  Name = ZINC00116945
REMARK                            x       y       z     vdW  Elec       q    Type
REMARK                         _______ _______ _______ _____ _____    ______ ____
ROOT
ATOM      1  C   LIG    1       -1.282   3.012   0.192  0.00  0.00    +0.134 A 
ATOM      2  C   LIG    1       -0.073   3.748   0.176  0.00  0.00    +0.044 A 
ATOM      3  C   LIG    1       -0.054   5.138   0.013  0.00  0.00    +0.062 A 
ATOM      4  C   LIG    1        1.139   5.803   0.005  0.00  0.00    +0.162 A 
ATOM      5  C   LIG    1        2.347   5.108   0.160  0.00  0.00    +0.164 A 
ATOM      6  C   LIG    1        2.356   3.740   0.322  0.00  0.00    +0.078 A 
ATOM      7  C   LIG    1        1.144   3.039   0.332  0.00  0.00    +0.080 A 
ATOM      8  N   LIG    1        1.098   1.706   0.488  0.00  0.00    -0.235 NA
ATOM      9  C   LIG    1       -0.053   1.077   0.494  0.00  0.00    +0.223 A 
ATOM     10  N   LIG    1       -1.213   1.696   0.347  0.00  0.00    -0.220 NA
ENDROOT
BRANCH   1  11
ATOM     11  N   LIG    1       -2.499   3.646   0.044  0.00  0.00    -0.299 N 
ATOM     12  H   LIG    1       -2.541   4.614   0.008  0.00  0.00    +0.154 HD
BRANCH  11  17
ATOM     13  C   LIG    1       -4.813   0.902  -0.763  0.00  0.00    +0.122 A 
ATOM     14  C   LIG    1       -6.000   1.402  -0.246  0.00  0.00    +0.046 A 
ATOM     15  C   LIG    1       -6.022   2.642   0.363  0.00  0.00    +0.005 A 
ATOM     16  C   LIG    1       -4.863   3.388   0.460  0.00  0.00    +0.023 A 
ATOM     17  C   LIG    1       -3.672   2.892  -0.055  0.00  0.00    +0.036 A 
ATOM     18  C   LIG    1       -3.649   1.648  -0.672  0.00  0.00    +0.069 A 
BRANCH  13  20
ATOM     19  C   LIG    1       -6.031  -1.030  -1.426  0.00  0.00    +0.277 C 
ATOM     20  O   LIG    1       -4.794  -0.318  -1.363  0.00  0.00    -0.495 OA
ENDBRANCH  13  20
ENDBRANCH  11  17
ENDBRANCH   1  11
BRANCH   4  21
ATOM     21  O   LIG    1        1.155   7.153  -0.154  0.00  0.00    -0.491 OA
ATOM     22  C   LIG    1       -0.107   7.804  -0.306  0.00  0.00    +0.277 C 
ENDBRANCH   4  21
BRANCH   5  23
ATOM     23  O   LIG    1        3.521   5.791   0.149  0.00  0.00    -0.491 OA
ATOM     24  C   LIG    1        4.718   5.027   0.311  0.00  0.00    +0.277 C 
ENDBRANCH   5  23
TORSDOF 5
