REMARK  Name = ZINC00170852
REMARK                            x       y       z     vdW  Elec       q    Type
REMARK                         _______ _______ _______ _____ _____    ______ ____
ROOT
ATOM      1  S   LIG    1        2.707  -2.662   4.511  0.00  0.00    +0.059 S 
ATOM      2  O   LIG    1        3.634  -1.723   5.037  0.00  0.00    -0.153 OA
ATOM      3  O   LIG    1        3.103  -3.947   4.049  0.00  0.00    -0.153 OA
ENDROOT
BRANCH   1   7
ATOM      4  C   LIG    1        0.626  -0.619   1.042  0.00  0.00    +0.162 A 
ATOM      5  C   LIG    1        1.202   0.137   2.051  0.00  0.00    +0.051 A 
ATOM      6  C   LIG    1        1.836  -0.490   3.108  0.00  0.00    +0.032 A 
ATOM      7  C   LIG    1        1.897  -1.870   3.161  0.00  0.00    +0.109 A 
ATOM      8  C   LIG    1        1.325  -2.630   2.158  0.00  0.00    +0.078 A 
ATOM      9  C   LIG    1        0.683  -2.008   1.099  0.00  0.00    +0.163 A 
BRANCH   4  11
ATOM     10  C   LIG    1       -0.017   1.425   0.010  0.00  0.00    +0.277 C 
ATOM     11  O   LIG    1        0.002  -0.004   0.002  0.00  0.00    -0.491 OA
ENDBRANCH   4  11
BRANCH   9  12
ATOM     12  O   LIG    1        0.115  -2.754   0.114  0.00  0.00    -0.491 OA
ATOM     13  C   LIG    1        0.211  -4.174   0.238  0.00  0.00    +0.277 C 
ENDBRANCH   9  12
ENDBRANCH   1   7
BRANCH   1  14
ATOM     14  N   LIG    1        1.568  -2.912   5.687  0.00  0.00    -0.183 NA
ATOM     15  H   LIG    1        1.643  -2.456   6.539  0.00  0.00    +0.149 HD
BRANCH  14  16
ATOM     16  C   LIG    1        0.447  -3.822   5.439  0.00  0.00    +0.107 C 
ATOM     17  C   LIG    1       -0.820  -3.322   6.166  0.00  0.00    +0.030 C 
ATOM     18  C   LIG    1       -0.745  -4.069   7.514  0.00  0.00    +0.037 C 
ATOM     19  C   LIG    1        0.049  -5.325   7.228  0.00  0.00    -0.043 A 
ATOM     20  C   LIG    1        0.163  -6.500   7.952  0.00  0.00    +0.004 A 
ATOM     21  C   LIG    1        0.962  -7.532   7.482  0.00  0.00    +0.000 A 
ATOM     22  C   LIG    1        1.645  -7.388   6.289  0.00  0.00    +0.000 A 
ATOM     23  C   LIG    1        1.532  -6.216   5.566  0.00  0.00    +0.005 A 
ATOM     24  C   LIG    1        0.735  -5.184   6.032  0.00  0.00    -0.026 A 
ENDBRANCH  14  16
ENDBRANCH   1  14
TORSDOF 5
