REMARK  Name = ZINC00196130
REMARK                            x       y       z     vdW  Elec       q    Type
REMARK                         _______ _______ _______ _____ _____    ______ ____
ROOT
ATOM      1  C   LIG    1        1.250  -2.160  -0.021  0.00  0.00    +0.247 C 
ATOM      2  N   LIG    1        2.424  -2.812  -0.137  0.00  0.00    -0.295 N 
ATOM      3  C   LIG    1        3.697  -2.076  -0.154  0.00  0.00    +0.127 C 
ATOM      4  C   LIG    1        4.633  -2.709   0.887  0.00  0.00    +0.124 C 
ATOM      5  N   LIG    1        4.746  -4.150   0.626  0.00  0.00    -0.327 N 
ATOM      6  C   LIG    1        3.450  -4.823   0.783  0.00  0.00    +0.124 C 
ATOM      7  C   LIG    1        2.465  -4.277  -0.257  0.00  0.00    +0.127 C 
ATOM      8  O   LIG    1        0.215  -2.788   0.092  0.00  0.00    -0.270 OA
ENDROOT
BRANCH   1  13
ATOM      9  C   LIG    1        1.136   3.593  -0.059  0.00  0.00    +0.044 C 
ATOM     10  C   LIG    1        1.166   2.086  -0.049  0.00  0.00    -0.050 A 
ATOM     11  C   LIG    1        0.340   1.387   0.814  0.00  0.00    +0.004 A 
ATOM     12  C   LIG    1        0.362   0.007   0.828  0.00  0.00    +0.013 A 
ATOM     13  C   LIG    1        1.220  -0.682  -0.031  0.00  0.00    +0.037 A 
ATOM     14  C   LIG    1        2.050   0.029  -0.898  0.00  0.00    +0.013 A 
ATOM     15  C   LIG    1        2.018   1.409  -0.902  0.00  0.00    +0.004 A 
ENDBRANCH   1  13
BRANCH   5  16
ATOM     16  C   LIG    1        5.715  -4.733   1.445  0.00  0.00    +0.031 A 
ATOM     17  C   LIG    1        5.381  -5.803   2.266  0.00  0.00    +0.023 A 
ATOM     18  C   LIG    1        6.342  -6.381   3.071  0.00  0.00    +0.003 A 
ATOM     19  C   LIG    1        7.635  -5.889   3.069  0.00  0.00    +0.020 A 
ATOM     20  C   LIG    1        7.971  -4.821   2.257  0.00  0.00    +0.043 A 
ATOM     21 CL   LIG    1        9.595  -4.207   2.258  0.00  0.00    -0.083 Cl
ATOM     22  C   LIG    1        7.014  -4.241   1.445  0.00  0.00    +0.043 A 
ENDBRANCH   5  16
TORSDOF 2
