REMARK  Name = ZINC00157085
REMARK                            x       y       z     vdW  Elec       q    Type
REMARK                         _______ _______ _______ _____ _____    ______ ____
ROOT
ATOM      1  C   LIG    1        0.002  -0.004   0.002  0.00  0.00    +0.007 A 
ATOM      2  C   LIG    1       -0.017   1.377   0.010  0.00  0.00    +0.045 A 
ATOM      3  C   LIG    1        1.176   2.086   0.002  0.00  0.00    +0.117 A 
ATOM      4  C   LIG    1        2.385   1.405  -0.013  0.00  0.00    +0.045 A 
ATOM      5  C   LIG    1        2.398   0.024  -0.021  0.00  0.00    +0.007 A 
ATOM      6  C   LIG    1        1.208  -0.680  -0.013  0.00  0.00    -0.038 A 
ENDROOT
BRANCH   3   7
ATOM      7  O   LIG    1        1.160   3.445   0.009  0.00  0.00    -0.507 OA
ATOM      8  H   LIG    1        1.164   3.834   0.894  0.00  0.00    +0.292 HD
ENDBRANCH   3   7
BRANCH   6   9
ATOM      9  C   LIG    1        1.226  -2.187  -0.021  0.00  0.00    +0.130 C 
BRANCH   9  10
ATOM     10  C   LIG    1        1.218  -2.682  -1.444  0.00  0.00    +0.215 C 
ATOM     11  N   LIG    1        1.231  -4.006  -1.697  0.00  0.00    -0.329 N 
ATOM     12  H   LIG    1        1.225  -4.325  -2.613  0.00  0.00    +0.145 HD
ATOM     13  H   LIG    1        1.245  -4.640  -0.963  0.00  0.00    +0.145 HD
ATOM     14  O   LIG    1        1.199  -1.889  -2.362  0.00  0.00    -0.276 OA
ENDBRANCH   9  10
ENDBRANCH   6   9
TORSDOF 3
