REMARK  Name = ZINC00117115
REMARK                            x       y       z     vdW  Elec       q    Type
REMARK                         _______ _______ _______ _____ _____    ______ ____
ROOT
ATOM      1  C   LIG    1        0.000   1.080   2.488  0.00  0.00    -0.002 A 
ATOM      2  C   LIG    1        1.274   1.312   2.858  0.00  0.00    +0.040 A 
ATOM      3  C   LIG    1        1.778   0.753   4.045  0.00  0.00    +0.083 A 
ATOM      4  C   LIG    1        0.865  -0.038   4.776  0.00  0.00    +0.079 A 
ATOM      5  C   LIG    1        1.234  -0.645   5.963  0.00  0.00    +0.153 A 
ATOM      6  N   LIG    1        2.481  -0.466   6.403  0.00  0.00    -0.218 NA
ATOM      7  C   LIG    1        3.326   0.276   5.710  0.00  0.00    +0.224 A 
ATOM      8  N   LIG    1        3.017   0.867   4.585  0.00  0.00    -0.235 NA
ATOM      9  S   LIG    1       -0.615   0.042   3.803  0.00  0.00    -0.088 S 
ENDROOT
BRANCH   1  11
ATOM     10  C   LIG    1       -0.013   1.086   0.008  0.00  0.00    +0.016 C 
ATOM     11  C   LIG    1       -0.729   1.579   1.267  0.00  0.00    -0.006 C 
ATOM     12  C   LIG    1       -2.164   1.050   1.278  0.00  0.00    +0.016 C 
ATOM     13  C   LIG    1       -0.750   3.109   1.275  0.00  0.00    +0.016 C 
ENDBRANCH   1  11
BRANCH   5  14
ATOM     14  N   LIG    1        0.334  -1.420   6.676  0.00  0.00    -0.247 N 
ATOM     15  H   LIG    1       -0.570  -1.542   6.344  0.00  0.00    +0.172 HD
BRANCH  14  16
ATOM     16  N   LIG    1        0.727  -2.027   7.876  0.00  0.00    -0.231 N 
ATOM     17  H   LIG    1        1.631  -1.905   8.207  0.00  0.00    +0.173 HD
ATOM     18  C   LIG    1       -0.149  -2.780   8.569  0.00  0.00    +0.267 C 
ATOM     19  O   LIG    1       -1.282  -2.933   8.153  0.00  0.00    -0.268 OA
BRANCH  18  20
ATOM     20  C   LIG    1        0.263  -3.415   9.824  0.00  0.00    +0.075 A 
ATOM     21  C   LIG    1       -0.476  -4.215  10.682  0.00  0.00    +0.021 A 
ATOM     22  C   LIG    1        0.164  -4.689  11.801  0.00  0.00    +0.008 A 
ATOM     23  C   LIG    1        1.462  -4.349  12.017  0.00  0.00    +0.046 A 
ATOM     24  S   LIG    1        1.843  -3.354  10.650  0.00  0.00    -0.092 S 
ENDBRANCH  18  20
ENDBRANCH  14  16
ENDBRANCH   5  14
TORSDOF 4
