REMARK  Name = ZINC00193791
REMARK                            x       y       z     vdW  Elec       q    Type
REMARK                         _______ _______ _______ _____ _____    ______ ____
ROOT
ATOM      1  N   LIG    1        1.651  -4.999  -0.034  0.00  0.00    -0.194 N 
ATOM      2  H   LIG    1        2.365  -4.321  -0.035  0.00  0.00    +0.176 HD
ENDROOT
BRANCH   1   3
ATOM      3  C   LIG    1        1.975  -6.346  -0.043  0.00  0.00    +0.178 A 
ATOM      4  N   LIG    1        3.165  -6.918  -0.048  0.00  0.00    -0.224 NA
ATOM      5  C   LIG    1        3.292  -8.244  -0.056  0.00  0.00    +0.080 A 
ATOM      6  C   LIG    1        2.169  -9.022  -0.060  0.00  0.00    +0.077 A 
ATOM      7  S   LIG    1        0.894  -7.769  -0.044  0.00  0.00    -0.059 S 
BRANCH   5   8
ATOM      8  C   LIG    1        4.637  -8.868  -0.061  0.00  0.00    +0.001 A 
ATOM      9  C   LIG    1        4.763 -10.256  -0.076  0.00  0.00    +0.010 A 
ATOM     10  C   LIG    1        6.018 -10.832  -0.081  0.00  0.00    +0.001 A 
ATOM     11  C   LIG    1        7.148 -10.034  -0.072  0.00  0.00    +0.000 A 
ATOM     12  C   LIG    1        7.028  -8.656  -0.056  0.00  0.00    +0.001 A 
ATOM     13  C   LIG    1        5.779  -8.069  -0.057  0.00  0.00    +0.010 A 
ENDBRANCH   5   8
ENDBRANCH   1   3
BRANCH   1  14
ATOM     14  S   LIG    1        0.063  -4.530  -0.023  0.00  0.00    +0.074 S 
ATOM     15  O   LIG    1       -0.490  -4.937  -1.267  0.00  0.00    -0.150 OA
ATOM     16  O   LIG    1       -0.476  -4.950   1.223  0.00  0.00    -0.150 OA
BRANCH  14  21
ATOM     17  C   LIG    1       -0.018   1.503   0.010  0.00  0.00    +0.044 C 
ATOM     18  C   LIG    1        0.002  -0.004   0.002  0.00  0.00    -0.050 A 
ATOM     19  C   LIG    1        0.006  -0.689  -1.199  0.00  0.00    +0.005 A 
ATOM     20  C   LIG    1        0.025  -2.071  -1.206  0.00  0.00    +0.029 A 
ATOM     21  C   LIG    1        0.040  -2.768  -0.013  0.00  0.00    +0.109 A 
ATOM     22  C   LIG    1        0.037  -2.084   1.188  0.00  0.00    +0.029 A 
ATOM     23  C   LIG    1        0.023  -0.702   1.195  0.00  0.00    +0.005 A 
ENDBRANCH  14  21
ENDBRANCH   1  14
TORSDOF 4
