REMARK  Name = ZINC00093985
REMARK                            x       y       z     vdW  Elec       q    Type
REMARK                         _______ _______ _______ _____ _____    ______ ____
ROOT
ATOM      1  C   LIG    1        1.156   3.172   0.008  0.00  0.00    +0.022 A 
ATOM      2  C   LIG    1       -0.036   3.863   0.022  0.00  0.00    +0.027 A 
ATOM      3  C   LIG    1       -1.241   3.169   0.029  0.00  0.00    +0.047 A 
ATOM      4  C   LIG    1       -1.230   1.761   0.017  0.00  0.00    +0.004 A 
ATOM      5  C   LIG    1       -2.630   1.350   0.036  0.00  0.00    -0.018 A 
ATOM      6  C   LIG    1       -3.377   2.471   0.048  0.00  0.00    +0.032 A 
ATOM      7  C   LIG    1       -4.889   2.469   0.063  0.00  0.00    +0.121 C 
ATOM      8  C   LIG    1       -5.379   1.080  -0.359  0.00  0.00    +0.019 C 
ATOM      9  C   LIG    1       -4.657   0.011   0.466  0.00  0.00    +0.006 C 
ATOM     10  C   LIG    1       -3.185  -0.051   0.039  0.00  0.00    +0.037 C 
ATOM     11  C   LIG    1       -0.013   1.076   0.008  0.00  0.00    +0.030 A 
ATOM     12  N   LIG    1       -2.561   3.566   0.043  0.00  0.00    -0.357 N 
ATOM     13  H   LIG    1       -2.865   4.487   0.048  0.00  0.00    +0.166 HD
ATOM     14  C   LIG    1        1.169   1.783   0.001  0.00  0.00    +0.042 A 
ATOM     15 CL   LIG    1        2.683   0.935  -0.018  0.00  0.00    -0.084 Cl
ENDROOT
BRANCH   7  16
ATOM     16  C   LIG    1       -5.406   3.503  -0.904  0.00  0.00    +0.219 C 
ATOM     17  N   LIG    1       -6.733   3.679  -1.057  0.00  0.00    -0.329 N 
ATOM     18  H   LIG    1       -7.066   4.344  -1.680  0.00  0.00    +0.145 HD
ATOM     19  H   LIG    1       -7.356   3.140  -0.545  0.00  0.00    +0.145 HD
ATOM     20  O   LIG    1       -4.627   4.177  -1.545  0.00  0.00    -0.275 OA
ENDBRANCH   7  16
TORSDOF 1
