REMARK  Name = ZINC00157545
REMARK                            x       y       z     vdW  Elec       q    Type
REMARK                         _______ _______ _______ _____ _____    ______ ____
ROOT
ATOM      1  C   LIG    1        0.718  -0.497  -1.257  0.00  0.00    +0.130 C 
ENDROOT
BRANCH   1   2
ATOM      2  C   LIG    1       -0.077  -0.103  -2.474  0.00  0.00    -0.021 A 
ATOM      3  C   LIG    1        0.093   1.149  -3.035  0.00  0.00    +0.006 A 
ATOM      4  C   LIG    1       -0.636   1.511  -4.152  0.00  0.00    +0.000 A 
ATOM      5  C   LIG    1       -1.536   0.621  -4.709  0.00  0.00    +0.000 A 
ATOM      6  C   LIG    1       -1.705  -0.631  -4.148  0.00  0.00    +0.000 A 
ATOM      7  C   LIG    1       -0.973  -0.995  -3.034  0.00  0.00    +0.006 A 
ENDBRANCH   1   2
BRANCH   1   9
ATOM      8  C   LIG    1       -0.019   1.526   0.010  0.00  0.00    -0.011 C 
ATOM      9  C   LIG    1        0.002  -0.004   0.002  0.00  0.00    -0.045 C 
BRANCH   9  10
ATOM     10  N   LIG    1        0.713  -0.491   1.192  0.00  0.00    +0.382 N 
ATOM     11  H   LIG    1        1.659  -0.141   1.185  0.00  0.00    -0.090 HD
ATOM     12  H   LIG    1        0.726  -1.500   1.187  0.00  0.00    -0.090 HD
ATOM     13  H   LIG    1        0.240  -0.165   2.022  0.00  0.00    -0.090 HD
ENDBRANCH   9  10
ENDBRANCH   1   9
BRANCH   1  14
ATOM     14  O   LIG    1        2.019   0.090  -1.326  0.00  0.00    -0.389 OA
ATOM     15  H   LIG    1        2.012   1.057  -1.362  0.00  0.00    +0.210 HD
ENDBRANCH   1  14
TORSDOF 4
