REMARK  Name = ZINC00081218
REMARK                            x       y       z     vdW  Elec       q    Type
REMARK                         _______ _______ _______ _____ _____    ______ ____
ROOT
ATOM      1  C   LIG    1        1.136   3.029   0.007  0.00  0.00    +0.124 C 
ATOM      2  N   LIG    1        1.144   1.727   0.000  0.00  0.00    -0.178 NA
ATOM      3  N   LIG    1       -0.011   0.966   0.007  0.00  0.00    -0.239 N 
ATOM      4  H   LIG    1        0.002  -0.004   0.002  0.00  0.00    +0.170 HD
ATOM      5  C   LIG    1       -1.254   1.737   0.017  0.00  0.00    +0.203 C 
ATOM      6  C   LIG    1       -2.124   1.486  -1.173  0.00  0.00    +0.018 A 
ATOM      7  C   LIG    1       -1.929   1.555  -2.534  0.00  0.00    +0.012 A 
ATOM      8  C   LIG    1       -2.964   1.251  -3.400  0.00  0.00    -0.050 A 
ATOM      9  C   LIG    1       -2.749   1.327  -4.890  0.00  0.00    +0.044 C 
ATOM     10  C   LIG    1       -4.196   0.876  -2.896  0.00  0.00    +0.005 A 
ATOM     11  C   LIG    1       -4.398   0.805  -1.533  0.00  0.00    +0.024 A 
ATOM     12  C   LIG    1       -3.362   1.110  -0.653  0.00  0.00    +0.040 A 
ATOM     13  N   LIG    1       -3.322   1.113   0.744  0.00  0.00    -0.282 N 
ATOM     14  H   LIG    1       -4.077   0.882   1.308  0.00  0.00    +0.155 HD
ATOM     15  C   LIG    1       -2.110   1.473   1.216  0.00  0.00    +0.257 C 
ATOM     16  O   LIG    1       -1.781   1.564   2.380  0.00  0.00    -0.272 OA
ATOM     17  S   LIG    1       -0.603   3.447   0.026  0.00  0.00    -0.063 S 
ENDROOT
BRANCH   1  22
ATOM     18  C   LIG    1        5.644   6.605  -0.016  0.00  0.00    +0.044 C 
ATOM     19  C   LIG    1        4.464   5.669  -0.010  0.00  0.00    -0.050 A 
ATOM     20  C   LIG    1        4.670   4.301  -0.020  0.00  0.00    +0.004 A 
ATOM     21  C   LIG    1        3.593   3.438  -0.014  0.00  0.00    +0.011 A 
ATOM     22  C   LIG    1        2.294   3.948   0.001  0.00  0.00    +0.008 A 
ATOM     23  C   LIG    1        2.093   5.329   0.004  0.00  0.00    +0.011 A 
ATOM     24  C   LIG    1        3.179   6.181   0.005  0.00  0.00    +0.004 A 
ENDBRANCH   1  22
TORSDOF 1
