REMARK  Name = ZINC00149918
REMARK                            x       y       z     vdW  Elec       q    Type
REMARK                         _______ _______ _______ _____ _____    ______ ____
ROOT
ATOM      1  C   LIG    1       -3.017   3.203   1.714  0.00  0.00    +0.044 C 
ATOM      2  C   LIG    1       -1.660   2.569   1.544  0.00  0.00    -0.037 A 
ATOM      3  C   LIG    1       -1.508   1.206   1.649  0.00  0.00    +0.027 A 
ATOM      4  C   LIG    1       -0.257   0.626   1.499  0.00  0.00    +0.040 A 
ATOM      5  C   LIG    1       -0.105  -0.868   1.623  0.00  0.00    +0.065 C 
ATOM      6  N   LIG    1        0.799   1.373   1.242  0.00  0.00    -0.245 NA
ATOM      7  C   LIG    1        0.704   2.680   1.126  0.00  0.00    +0.111 A 
ATOM      8  S   LIG    1        1.880   3.969   0.794  0.00  0.00    -0.062 S 
ATOM      9  C   LIG    1        0.785   5.374   0.841  0.00  0.00    +0.097 A 
ATOM     10  C   LIG    1       -0.444   4.812   1.109  0.00  0.00    +0.054 A 
ATOM     11  C   LIG    1       -0.523   3.368   1.268  0.00  0.00    +0.032 A 
ENDROOT
BRANCH   9  12
ATOM     12  C   LIG    1        1.102   6.742   0.649  0.00  0.00    +0.253 C 
ATOM     13  N   LIG    1        2.374   7.109   0.394  0.00  0.00    -0.307 N 
ATOM     14  H   LIG    1        3.071   6.437   0.341  0.00  0.00    +0.149 HD
ATOM     15  O   LIG    1        0.226   7.585   0.714  0.00  0.00    -0.270 OA
BRANCH  13  16
ATOM     16  C   LIG    1        2.702   8.523   0.195  0.00  0.00    +0.139 C 
BRANCH  16  17
ATOM     17  C   LIG    1        4.178   8.663  -0.073  0.00  0.00    -0.030 A 
ATOM     18  C   LIG    1        5.056   8.852   0.978  0.00  0.00    +0.005 A 
ATOM     19  C   LIG    1        6.411   8.975   0.733  0.00  0.00    +0.000 A 
ATOM     20  C   LIG    1        6.886   8.921  -0.564  0.00  0.00    +0.000 A 
ATOM     21  C   LIG    1        6.008   8.738  -1.615  0.00  0.00    +0.000 A 
ATOM     22  C   LIG    1        4.654   8.609  -1.370  0.00  0.00    +0.005 A 
ENDBRANCH  16  17
ENDBRANCH  13  16
ENDBRANCH   9  12
BRANCH  10  23
ATOM     23  N   LIG    1       -1.578   5.604   1.225  0.00  0.00    -0.356 N 
ATOM     24  H   LIG    1       -1.508   6.500   1.588  0.00  0.00    +0.142 HD
ATOM     25  H   LIG    1       -2.440   5.260   0.942  0.00  0.00    +0.142 HD
ENDBRANCH  10  23
TORSDOF 4
