REMARK  Name = ZINC00164635
REMARK                            x       y       z     vdW  Elec       q    Type
REMARK                         _______ _______ _______ _____ _____    ______ ____
ROOT
ATOM      1  C   LIG    1       -0.017   1.379   0.010  0.00  0.00    +0.000 A 
ATOM      2  C   LIG    1        1.170   2.089   0.002  0.00  0.00    +0.002 A 
ATOM      3  C   LIG    1        2.378   1.420  -0.013  0.00  0.00    +0.023 A 
ATOM      4  C   LIG    1        2.400   0.032  -0.021  0.00  0.00    +0.037 A 
ATOM      5  C   LIG    1        1.207  -0.679  -0.013  0.00  0.00    -0.026 A 
ATOM      6  C   LIG    1        1.231  -2.185  -0.021  0.00  0.00    +0.046 C 
ATOM      7  C   LIG    1        2.428  -2.673  -0.839  0.00  0.00    +0.101 C 
ATOM      8  C   LIG    1        3.672  -1.943  -0.411  0.00  0.00    +0.218 C 
ATOM      9  O   LIG    1        4.736  -2.526  -0.405  0.00  0.00    -0.275 OA
ATOM     10  N   LIG    1        3.619  -0.652  -0.036  0.00  0.00    -0.285 N 
ATOM     11  H   LIG    1        4.433  -0.192   0.225  0.00  0.00    +0.155 HD
ATOM     12  C   LIG    1        0.002  -0.004   0.002  0.00  0.00    +0.005 A 
ENDROOT
TORSDOF 0
