REMARK  Name = ZINC00082237
REMARK                            x       y       z     vdW  Elec       q    Type
REMARK                         _______ _______ _______ _____ _____    ______ ____
ROOT
ATOM      1  C   LIG    1        1.356  -0.641  -0.014  0.00  0.00    +0.060 A 
ATOM      2  C   LIG    1        0.086  -0.091  -0.242  0.00  0.00    +0.098 A 
ATOM      3  C   LIG    1       -0.046   1.304  -0.222  0.00  0.00    +0.131 A 
ATOM      4  N   LIG    1        1.021   2.045   0.009  0.00  0.00    -0.222 NA
ATOM      5  C   LIG    1        2.205   1.486   0.220  0.00  0.00    +0.213 A 
ATOM      6  N   LIG    1        2.373   0.170   0.209  0.00  0.00    -0.219 NA
ENDROOT
BRANCH   5   7
ATOM      7  N   LIG    1        3.295   2.298   0.457  0.00  0.00    -0.327 N 
ATOM      8  H   LIG    1        3.188   3.262   0.468  0.00  0.00    +0.145 HD
ATOM      9  H   LIG    1        4.168   1.904   0.613  0.00  0.00    +0.145 HD
ENDBRANCH   5   7
BRANCH   2  10
ATOM     10  C   LIG    1       -1.079  -0.959  -0.496  0.00  0.00    +0.342 C 
ATOM     11  O   LIG    1       -0.928  -2.159  -0.614  0.00  0.00    -0.245 OA
BRANCH  10  12
ATOM     12  O   LIG    1       -2.310  -0.421  -0.597  0.00  0.00    -0.461 OA
BRANCH  12  13
ATOM     13  C   LIG    1       -3.410  -1.335  -0.847  0.00  0.00    +0.229 C 
ATOM     14  C   LIG    1       -4.719  -0.547  -0.929  0.00  0.00    +0.048 C 
ENDBRANCH  12  13
ENDBRANCH  10  12
ENDBRANCH   2  10
BRANCH   1  15
ATOM     15  C   LIG    1        1.556  -2.134  -0.025  0.00  0.00    +0.056 C 
BRANCH  15  17
ATOM     16  C   LIG    1        1.954  -4.129  -1.476  0.00  0.00    +0.004 C 
ATOM     17  C   LIG    1        1.751  -2.612  -1.465  0.00  0.00    +0.003 C 
ENDBRANCH  15  17
ENDBRANCH   1  15
TORSDOF 6
