REMARK  Name = ZINC00109304
REMARK                            x       y       z     vdW  Elec       q    Type
REMARK                         _______ _______ _______ _____ _____    ______ ____
ROOT
ATOM      1  C   LIG    1        2.366   0.118  -0.020  0.00  0.00    +0.046 A 
ATOM      2  C   LIG    1        1.209  -0.642  -0.013  0.00  0.00    +0.023 A 
ATOM      3  C   LIG    1        0.002  -0.004   0.002  0.00  0.00    +0.024 A 
ATOM      4  C   LIG    1       -0.017   1.385   0.010  0.00  0.00    +0.097 A 
ATOM      5  S   LIG    1        1.724   1.783  -0.005  0.00  0.00    -0.076 S 
ENDROOT
BRANCH   1   7
ATOM      6  C   LIG    1        4.888   1.181  -0.038  0.00  0.00    +0.090 C 
ATOM      7  S   LIG    1        4.044  -0.420  -0.038  0.00  0.00    -0.122 S 
ENDBRANCH   1   7
BRANCH   4   8
ATOM      8  C   LIG    1       -1.128   2.259   0.020  0.00  0.00    +0.344 C 
ATOM      9  O   LIG    1       -2.258   1.806   0.023  0.00  0.00    -0.245 OA
BRANCH   8  10
ATOM     10  O   LIG    1       -0.936   3.595   0.026  0.00  0.00    -0.477 OA
ATOM     11  H   LIG    1       -0.067   3.944   0.024  0.00  0.00    +0.295 HD
ENDBRANCH   8  10
ENDBRANCH   4   8
TORSDOF 3
