REMARK  Name = ZINC00230033
REMARK                            x       y       z     vdW  Elec       q    Type
REMARK                         _______ _______ _______ _____ _____    ______ ____
ROOT
ATOM      1  C   LIG    1       -0.017   1.375   0.010  0.00  0.00    +0.001 A 
ATOM      2  C   LIG    1        1.166   2.093   0.002  0.00  0.00    +0.002 A 
ATOM      3  C   LIG    1        2.381   1.428  -0.019  0.00  0.00    +0.029 A 
ATOM      4  C   LIG    1        2.405   0.053  -0.028  0.00  0.00    +0.116 A 
ATOM      5  C   LIG    1        1.223  -0.683  -0.011  0.00  0.00    +0.011 A 
ATOM      6  C   LIG    1        1.235  -2.166   0.007  0.00  0.00    +0.008 A 
ATOM      7  C   LIG    1        0.020  -2.831  -0.268  0.00  0.00    +0.011 A 
ATOM      8  C   LIG    1       -0.054  -4.184  -0.296  0.00  0.00    +0.011 A 
ATOM      9  C   LIG    1        1.093  -4.959  -0.049  0.00  0.00    +0.002 A 
ATOM     10  C   LIG    1        1.049  -6.365  -0.086  0.00  0.00    +0.011 A 
ATOM     11  C   LIG    1        2.203  -7.052   0.165  0.00  0.00    +0.020 A 
ATOM     12  C   LIG    1        3.378  -6.358   0.446  0.00  0.00    +0.111 A 
ATOM     13  N   LIG    1        3.414  -5.048   0.479  0.00  0.00    -0.253 NA
ATOM     14  C   LIG    1        2.320  -4.318   0.242  0.00  0.00    +0.094 A 
ATOM     15  C   LIG    1        2.374  -2.905   0.278  0.00  0.00    +0.082 A 
ATOM     16  N   LIG    1        3.589  -2.301   0.614  0.00  0.00    -0.214 N 
ATOM     17  H   LIG    1        4.217  -2.736   1.234  0.00  0.00    +0.174 HD
ATOM     18  S   LIG    1        3.939  -0.824  -0.068  0.00  0.00    +0.073 S 
ATOM     19  O   LIG    1        4.249  -1.059  -1.435  0.00  0.00    -0.150 OA
ATOM     20  O   LIG    1        4.825  -0.154   0.819  0.00  0.00    -0.150 OA
ATOM     21  C   LIG    1        0.002  -0.004   0.002  0.00  0.00    +0.010 A 
ENDROOT
TORSDOF 0
