REMARK  Name = ZINC00119988
REMARK                            x       y       z     vdW  Elec       q    Type
REMARK                         _______ _______ _______ _____ _____    ______ ____
ROOT
ATOM      1  C   LIG    1       -0.011   1.387   0.019  0.00  0.00    +0.091 A 
ATOM      2  C   LIG    1        1.183   2.093   0.018  0.00  0.00    +0.124 A 
ATOM      3  C   LIG    1        2.388   1.410  -0.000  0.00  0.00    +0.091 A 
ATOM      4  C   LIG    1        2.406   0.019  -0.016  0.00  0.00    +0.131 A 
ATOM      5  C   LIG    1        1.215  -0.684  -0.012  0.00  0.00    +0.038 A 
ATOM      6  C   LIG    1        1.192  -2.191  -0.017  0.00  0.00    +0.077 C 
ATOM      7  C   LIG    1        2.553  -2.726  -0.471  0.00  0.00    +0.160 C 
ATOM      8  C   LIG    1        3.645  -1.994   0.318  0.00  0.00    +0.209 C 
ATOM      9  O   LIG    1        3.609  -0.611  -0.040  0.00  0.00    -0.485 OA
ATOM     10  C   LIG    1        0.005   0.003   0.004  0.00  0.00    +0.127 A 
ENDROOT
BRANCH   8  11
ATOM     11  C   LIG    1        5.014  -2.581  -0.031  0.00  0.00    +0.063 C 
ATOM     12  C   LIG    1        5.050  -4.047   0.401  0.00  0.00    +0.094 C 
ATOM     13  C   LIG    1        6.488  -4.532   0.312  0.00  0.00    +0.203 C 
ATOM     14  C   LIG    1        7.484  -3.707   1.082  0.00  0.00    +0.221 C 
ATOM     15  C   LIG    1        7.205  -2.261   1.143  0.00  0.00    +0.050 C 
ATOM     16  O   LIG    1        8.456  -4.200   1.617  0.00  0.00    -0.284 OA
ATOM     17  O   LIG    1        6.807  -5.505  -0.328  0.00  0.00    -0.289 OA
ATOM     18  C   LIG    1        6.077  -1.773   0.645  0.00  0.00    -0.015 C 
ENDBRANCH   8  11
BRANCH   2  19
ATOM     19  O   LIG    1        1.171   3.451   0.034  0.00  0.00    -0.507 OA
ATOM     20  H   LIG    1        1.174   3.834   0.922  0.00  0.00    +0.292 HD
ENDBRANCH   2  19
BRANCH   7  21
ATOM     21  O   LIG    1        2.723  -2.485  -1.869  0.00  0.00    -0.388 OA
ATOM     22  H   LIG    1        2.054  -2.905  -2.426  0.00  0.00    +0.210 HD
ENDBRANCH   7  21
BRANCH  10  23
ATOM     23  O   LIG    1       -1.165  -0.689   0.005  0.00  0.00    -0.506 OA
ATOM     24  H   LIG    1       -1.509  -0.879  -0.878  0.00  0.00    +0.292 HD
ENDBRANCH  10  23
TORSDOF 4
