REMARK  Name = ZINC00113426
REMARK                            x       y       z     vdW  Elec       q    Type
REMARK                         _______ _______ _______ _____ _____    ______ ____
ROOT
ATOM      1  C   LIG    1       -0.017   1.375   0.010  0.00  0.00    +0.000 A 
ATOM      2  C   LIG    1        1.174   2.078   0.002  0.00  0.00    +0.000 A 
ATOM      3  C   LIG    1        2.372   1.395  -0.010  0.00  0.00    +0.005 A 
ATOM      4  C   LIG    1        2.393   0.006  -0.017  0.00  0.00    -0.030 A 
ATOM      5  C   LIG    1        1.208  -0.694  -0.015  0.00  0.00    -0.043 A 
ATOM      6  C   LIG    1        1.155  -2.199  -0.038  0.00  0.00    +0.035 C 
ATOM      7  C   LIG    1        2.501  -2.790   0.375  0.00  0.00    +0.006 C 
ATOM      8  C   LIG    1        3.599  -2.130  -0.467  0.00  0.00    +0.020 C 
ATOM      9  C   LIG    1        3.737  -0.675  -0.023  0.00  0.00    +0.130 C 
ATOM     10  C   LIG    1        0.002  -0.004   0.002  0.00  0.00    +0.004 A 
ENDROOT
BRANCH   9  11
ATOM     11  C   LIG    1        4.657   0.049  -0.973  0.00  0.00    +0.246 C 
ATOM     12  N   LIG    1        4.746  -0.265  -2.244  0.00  0.00    -0.275 N 
ATOM     13  H   LIG    1        4.247  -0.971  -2.684  0.00  0.00    +0.304 HD
ATOM     14  C   LIG    1        5.723   0.621  -2.896  0.00  0.00    +0.276 C 
ATOM     15  C   LIG    1        6.198   1.530  -1.743  0.00  0.00    +0.268 C 
ATOM     16  N   LIG    1        5.423   1.043  -0.590  0.00  0.00    -0.236 N 
ATOM     17  H   LIG    1        5.472   1.399   0.310  0.00  0.00    +0.291 HD
ENDBRANCH   9  11
TORSDOF 1
