REMARK  Name = ZINC00110550
REMARK                            x       y       z     vdW  Elec       q    Type
REMARK                         _______ _______ _______ _____ _____    ______ ____
ROOT
ATOM      1  C   LIG    1       -4.369  -0.481   0.290  0.00  0.00    +0.001 A 
ATOM      2  C   LIG    1       -5.285   0.556   0.229  0.00  0.00    +0.002 A 
ATOM      3  C   LIG    1       -4.859   1.864   0.107  0.00  0.00    +0.024 A 
ATOM      4  C   LIG    1       -3.502   2.149   0.032  0.00  0.00    +0.042 A 
ATOM      5  C   LIG    1       -2.577   1.097   0.092  0.00  0.00    +0.008 A 
ATOM      6  C   LIG    1       -1.240   1.720  -0.008  0.00  0.00    +0.047 C 
ATOM      7  C   LIG    1       -1.475   3.117  -0.129  0.00  0.00    +0.249 C 
ATOM      8  O   LIG    1       -0.615   3.973  -0.239  0.00  0.00    -0.270 OA
ATOM      9  C   LIG    1       -0.013   1.076   0.008  0.00  0.00    +0.028 C 
ATOM     10  N   LIG    1       -2.800   3.340  -0.103  0.00  0.00    -0.281 N 
ATOM     11  H   LIG    1       -3.211   4.216  -0.170  0.00  0.00    +0.155 HD
ATOM     12  C   LIG    1       -3.016  -0.217   0.222  0.00  0.00    +0.010 A 
ENDROOT
BRANCH   9  13
ATOM     13  C   LIG    1        1.160   1.792  -0.282  0.00  0.00    +0.014 A 
ATOM     14  C   LIG    1        2.446   1.615   0.232  0.00  0.00    +0.016 A 
ATOM     15  C   LIG    1        3.440   2.437  -0.202  0.00  0.00    +0.017 A 
ATOM     16  C   LIG    1        3.135   3.420  -1.139  0.00  0.00    +0.026 A 
ATOM     17  S   LIG    1        1.390   3.157  -1.410  0.00  0.00    -0.088 S 
BRANCH  16  18
ATOM     18  C   LIG    1        4.022   4.415  -1.753  0.00  0.00    +0.026 A 
ATOM     19  C   LIG    1        3.724   5.391  -2.690  0.00  0.00    +0.016 A 
ATOM     20  C   LIG    1        4.736   6.218  -3.116  0.00  0.00    +0.008 A 
ATOM     21  C   LIG    1        5.990   6.047  -2.618  0.00  0.00    +0.046 A 
ATOM     22  S   LIG    1        5.769   4.678  -1.494  0.00  0.00    -0.096 S 
ENDBRANCH  16  18
ENDBRANCH   9  13
TORSDOF 2
