REMARK  Name = ZINC00175335
REMARK                            x       y       z     vdW  Elec       q    Type
REMARK                         _______ _______ _______ _____ _____    ______ ____
ROOT
ATOM      1  N   LIG    1       -3.495   4.665   6.106  0.00  0.00    -0.203 N 
ATOM      2  H   LIG    1       -3.849   4.027   6.744  0.00  0.00    +0.178 HD
ATOM      3  C   LIG    1       -3.634   5.988   6.327  0.00  0.00    +0.263 C 
ATOM      4  O   LIG    1       -3.190   6.788   5.527  0.00  0.00    -0.268 OA
ENDROOT
BRANCH   3   5
ATOM      5  C   LIG    1       -4.325   6.463   7.541  0.00  0.00    +0.039 A 
ATOM      6  C   LIG    1       -4.841   5.545   8.459  0.00  0.00    +0.016 A 
ATOM      7  C   LIG    1       -5.482   5.993   9.593  0.00  0.00    +0.046 A 
ATOM      8  C   LIG    1       -5.624   7.357   9.819  0.00  0.00    +0.117 A 
ATOM      9  C   LIG    1       -5.117   8.274   8.906  0.00  0.00    +0.046 A 
ATOM     10  C   LIG    1       -4.471   7.834   7.773  0.00  0.00    +0.016 A 
BRANCH   8  11
ATOM     11  O   LIG    1       -6.260   7.795  10.936  0.00  0.00    -0.507 OA
ATOM     12  H   LIG    1       -7.213   7.914  10.824  0.00  0.00    +0.292 HD
ENDBRANCH   8  11
ENDBRANCH   3   5
BRANCH   1  14
ATOM     13  C   LIG    1       -2.705   2.941   4.740  0.00  0.00    +0.138 C 
ATOM     14  N   LIG    1       -2.839   4.214   4.953  0.00  0.00    -0.187 NA
BRANCH  13  18
ATOM     15  C   LIG    1       -0.718   1.572   1.248  0.00  0.00    -0.045 A 
ATOM     16  C   LIG    1       -0.854   2.930   1.475  0.00  0.00    +0.004 A 
ATOM     17  C   LIG    1       -1.503   3.382   2.605  0.00  0.00    +0.010 A 
ATOM     18  C   LIG    1       -2.014   2.465   3.527  0.00  0.00    -0.005 A 
ATOM     19  C   LIG    1       -1.869   1.095   3.293  0.00  0.00    +0.010 A 
ATOM     20  C   LIG    1       -1.222   0.658   2.156  0.00  0.00    +0.004 A 
BRANCH  15  22
ATOM     21  C   LIG    1        1.423   1.615  -0.003  0.00  0.00    +0.012 C 
ATOM     22  C   LIG    1       -0.013   1.086   0.008  0.00  0.00    +0.013 C 
ATOM     23  C   LIG    1       -0.753   1.593  -1.232  0.00  0.00    +0.012 C 
ENDBRANCH  15  22
ENDBRANCH  13  18
ENDBRANCH   1  14
TORSDOF 5
