REMARK  Name = ZINC00118483
REMARK                            x       y       z     vdW  Elec       q    Type
REMARK                         _______ _______ _______ _____ _____    ______ ____
ROOT
ATOM      1  C   LIG    1        0.606  -0.608  -1.056  0.00  0.00    +0.162 A 
ATOM      2  C   LIG    1        1.171   0.161  -2.060  0.00  0.00    +0.050 A 
ATOM      3  C   LIG    1        1.790  -0.446  -3.142  0.00  0.00    +0.012 A 
ATOM      4  C   LIG    1        1.845  -1.815  -3.226  0.00  0.00    +0.011 A 
ATOM      5  C   LIG    1        1.279  -2.610  -2.221  0.00  0.00    +0.111 A 
ATOM      6  C   LIG    1        1.497  -4.017  -2.589  0.00  0.00    +0.344 C 
ATOM      7  O   LIG    1        2.160  -4.091  -3.755  0.00  0.00    -0.453 OA
ATOM      8  O   LIG    1        1.131  -4.973  -1.935  0.00  0.00    -0.245 OA
ATOM      9  C   LIG    1        2.426  -2.771  -4.237  0.00  0.00    +0.215 C 
ATOM     10  C   LIG    1        0.660  -1.997  -1.126  0.00  0.00    +0.176 A 
ENDROOT
BRANCH   1  12
ATOM     11  C   LIG    1       -0.017   1.425   0.010  0.00  0.00    +0.277 C 
ATOM     12  O   LIG    1        0.002  -0.004   0.002  0.00  0.00    -0.491 OA
ENDBRANCH   1  12
BRANCH  10  13
ATOM     13  O   LIG    1        0.111  -2.752  -0.141  0.00  0.00    -0.491 OA
ATOM     14  C   LIG    1       -1.259  -3.124  -0.296  0.00  0.00    +0.277 C 
ENDBRANCH  10  13
BRANCH   9  15
ATOM     15  C   LIG    1        1.756  -2.565  -5.597  0.00  0.00    +0.129 C 
BRANCH  15  16
ATOM     16  C   LIG    1        2.427  -3.438  -6.626  0.00  0.00    +0.167 C 
ATOM     17  O   LIG    1        3.352  -4.154  -6.303  0.00  0.00    -0.292 OA
BRANCH  16  18
ATOM     18  C   LIG    1        1.963  -3.422  -8.019  0.00  0.00    +0.021 A 
ATOM     19  C   LIG    1        0.900  -2.591  -8.395  0.00  0.00    +0.015 A 
ATOM     20  C   LIG    1        0.467  -2.578  -9.702  0.00  0.00    +0.050 A 
ATOM     21  C   LIG    1        1.082  -3.386 -10.650  0.00  0.00    +0.158 A 
ATOM     22  C   LIG    1        2.142  -4.215 -10.283  0.00  0.00    +0.159 A 
ATOM     23  C   LIG    1        2.586  -4.232  -8.976  0.00  0.00    +0.060 A 
BRANCH  21  24
ATOM     24  O   LIG    1        0.650  -3.368 -11.937  0.00  0.00    -0.503 OA
ATOM     25  H   LIG    1        1.096  -2.714 -12.492  0.00  0.00    +0.292 HD
ENDBRANCH  21  24
BRANCH  22  26
ATOM     26  O   LIG    1        2.740  -5.005 -11.214  0.00  0.00    -0.503 OA
ATOM     27  H   LIG    1        3.485  -4.585 -11.667  0.00  0.00    +0.292 HD
ENDBRANCH  22  26
ENDBRANCH  16  18
ENDBRANCH  15  16
ENDBRANCH   9  15
TORSDOF 7
