REMARK  Name = ZINC00114124
REMARK                            x       y       z     vdW  Elec       q    Type
REMARK                         _______ _______ _______ _____ _____    ______ ____
ROOT
ATOM      1  CA  LIG    1       -1.433  -0.534   0.013  0.00  0.00    +0.051 C 
ENDROOT
BRANCH   1   2
ATOM      2  N   LIG    1       -2.144  -0.047  -1.177  0.00  0.00    +0.388 N 
ATOM      3  H1  LIG    1       -2.158   0.962  -1.172  0.00  0.00    -0.089 HD
ATOM      4  H2  LIG    1       -3.090  -0.396  -1.170  0.00  0.00    -0.089 HD
ATOM      5  H3  LIG    1       -1.671  -0.372  -2.007  0.00  0.00    -0.089 HD
ENDBRANCH   1   2
BRANCH   1   7
ATOM      6  C   LIG    1       -0.019   1.526   0.010  0.00  0.00    +0.021 C 
ATOM      7  C   LIG    1        0.002  -0.004   0.002  0.00  0.00    +0.005 C 
ATOM      8  C   LIG    1        0.742  -0.511   1.242  0.00  0.00    +0.021 C 
BRANCH   7   9
ATOM      9  S   LIG    1        0.851  -0.589  -1.490  0.00  0.00    -0.173 S 
ATOM     10  H   LIG    1        2.086  -0.066  -1.388  0.00  0.00    +0.102 HD
ENDBRANCH   7   9
ENDBRANCH   1   7
BRANCH   1  11
ATOM     11  C   LIG    1       -2.139  -0.048   1.253  0.00  0.00    +0.291 C 
ATOM     12  O   LIG    1       -2.745   1.010   1.234  0.00  0.00    -0.253 OA
BRANCH  11  13
ATOM     13  OXT LIG    1       -2.103  -0.712   2.275  0.00  0.00    -0.482 OA
ATOM     14  HXT LIG    1       -1.636  -1.524   2.289  0.00  0.00    +0.295 HD
ENDBRANCH  11  13
ENDBRANCH   1  11
TORSDOF 5
