REMARK  Name = ZINC00113415
REMARK                            x       y       z     vdW  Elec       q    Type
REMARK                         _______ _______ _______ _____ _____    ______ ____
ROOT
ATOM      1  O   LIG    1       -5.560  -0.646  -2.463  0.00  0.00    -0.489 OA
ENDROOT
BRANCH   1   2
ATOM      2  C   LIG    1       -6.331  -0.360  -3.545  0.00  0.00    +0.121 A 
ATOM      3  C   LIG    1       -5.776   0.280  -4.644  0.00  0.00    +0.046 A 
ATOM      4  C   LIG    1       -6.561   0.569  -5.743  0.00  0.00    +0.007 A 
ATOM      5  C   LIG    1       -7.899   0.222  -5.748  0.00  0.00    -0.038 A 
ATOM      6  C   LIG    1       -8.455  -0.416  -4.655  0.00  0.00    +0.007 A 
ATOM      7  C   LIG    1       -7.672  -0.713  -3.556  0.00  0.00    +0.046 A 
BRANCH   5   8
ATOM      8  C   LIG    1       -8.754   0.538  -6.949  0.00  0.00    +0.130 C 
BRANCH   8   9
ATOM      9  C   LIG    1       -8.709  -0.616  -7.916  0.00  0.00    +0.215 C 
ATOM     10  N   LIG    1       -9.403  -0.556  -9.070  0.00  0.00    -0.329 N 
ATOM     11  H   LIG    1       -9.374  -1.299  -9.693  0.00  0.00    +0.145 HD
ATOM     12  H   LIG    1       -9.932   0.231  -9.277  0.00  0.00    +0.145 HD
ATOM     13  O   LIG    1       -8.048  -1.599  -7.657  0.00  0.00    -0.276 OA
ENDBRANCH   8   9
ENDBRANCH   5   8
ENDBRANCH   1   2
BRANCH   1  14
ATOM     14  C   LIG    1       -4.187  -0.253  -2.522  0.00  0.00    +0.258 C 
BRANCH  14  15
ATOM     15  C   LIG    1       -3.485  -0.656  -1.224  0.00  0.00    +0.135 C 
BRANCH  15  16
ATOM     16  O   LIG    1       -3.467  -2.080  -1.114  0.00  0.00    -0.390 OA
ATOM     17  H   LIG    1       -3.004  -2.525  -1.838  0.00  0.00    +0.210 HD
ENDBRANCH  15  16
BRANCH  15  18
ATOM     18  C   LIG    1       -2.050  -0.126  -1.234  0.00  0.00    -0.047 C 
BRANCH  18  19
ATOM     19  N   LIG    1       -1.376  -0.512   0.012  0.00  0.00    +0.382 N 
ATOM     20  H   LIG    1       -1.873  -0.121   0.799  0.00  0.00    -0.085 HD
ATOM     21  H   LIG    1       -1.363  -1.518   0.090  0.00  0.00    -0.085 HD
BRANCH  19  23
ATOM     22  C   LIG    1       -0.019   1.526   0.010  0.00  0.00    -0.014 C 
ATOM     23  C   LIG    1        0.002  -0.004   0.002  0.00  0.00    -0.078 C 
ATOM     24  C   LIG    1        0.742  -0.511   1.242  0.00  0.00    -0.014 C 
ENDBRANCH  19  23
ENDBRANCH  18  19
ENDBRANCH  15  18
ENDBRANCH  14  15
ENDBRANCH   1  14
TORSDOF 9
