REMARK  Name = ZINC00127661
REMARK                            x       y       z     vdW  Elec       q    Type
REMARK                         _______ _______ _______ _____ _____    ______ ____
ROOT
ATOM      1  C   LIG    1        2.480   1.104  -0.016  0.00  0.00    -0.020 A 
ATOM      2  C   LIG    1        3.610   1.857  -0.025  0.00  0.00    +0.097 A 
ATOM      3  C   LIG    1        3.515   3.264  -0.016  0.00  0.00    +0.338 A 
ATOM      4  O   LIG    1        2.329   3.891  -0.000  0.00  0.00    -0.422 OA
ATOM      5  C   LIG    1        1.167   3.201   0.008  0.00  0.00    +0.143 A 
ATOM      6  C   LIG    1       -0.050   3.864   0.024  0.00  0.00    +0.092 A 
ATOM      7  C   LIG    1       -1.230   3.137   0.032  0.00  0.00    +0.120 A 
ATOM      8  C   LIG    1       -1.203   1.744   0.017  0.00  0.00    +0.046 A 
ATOM      9  C   LIG    1       -0.013   1.076   0.008  0.00  0.00    +0.015 A 
ATOM     10  O   LIG    1        4.537   3.928  -0.023  0.00  0.00    -0.245 OA
ATOM     11  C   LIG    1        1.188   1.794   0.000  0.00  0.00    +0.022 A 
ENDROOT
BRANCH   7  12
ATOM     12  O   LIG    1       -2.421   3.788   0.046  0.00  0.00    -0.507 OA
ATOM     13  H   LIG    1       -2.775   3.980  -0.833  0.00  0.00    +0.292 HD
ENDBRANCH   7  12
BRANCH   1  14
ATOM     14  C   LIG    1        2.553  -0.401  -0.025  0.00  0.00    +0.110 C 
BRANCH  14  15
ATOM     15  S   LIG    1        2.565  -0.997  -1.738  0.00  0.00    -0.120 S 
BRANCH  15  19
ATOM     16  C   LIG    1        2.787  -5.502  -1.331  0.00  0.00    +0.000 A 
ATOM     17  C   LIG    1        2.747  -4.924  -2.587  0.00  0.00    +0.001 A 
ATOM     18  C   LIG    1        2.679  -3.551  -2.715  0.00  0.00    +0.015 A 
ATOM     19  C   LIG    1        2.652  -2.749  -1.580  0.00  0.00    +0.008 A 
ATOM     20  C   LIG    1        2.698  -3.333  -0.320  0.00  0.00    +0.015 A 
ATOM     21  C   LIG    1        2.759  -4.708  -0.200  0.00  0.00    +0.001 A 
ENDBRANCH  15  19
ENDBRANCH  14  15
ENDBRANCH   1  14
TORSDOF 4
