REMARK  Name = ZINC00133912
REMARK                            x       y       z     vdW  Elec       q    Type
REMARK                         _______ _______ _______ _____ _____    ______ ____
ROOT
ATOM      1  C   LIG    1       -1.412  -0.526   0.013  0.00  0.00    -0.047 A 
ATOM      2  C   LIG    1       -2.053  -0.767   1.214  0.00  0.00    +0.005 A 
ATOM      3  C   LIG    1       -3.347  -1.243   1.230  0.00  0.00    +0.024 A 
ATOM      4  C   LIG    1       -4.020  -1.485   0.035  0.00  0.00    +0.040 A 
ATOM      5  C   LIG    1       -3.364  -1.240  -1.171  0.00  0.00    +0.018 A 
ATOM      6  C   LIG    1       -4.347  -1.601  -2.239  0.00  0.00    +0.203 C 
ATOM      7  N   LIG    1       -4.589  -0.526  -3.200  0.00  0.00    -0.239 N 
ATOM      8  H   LIG    1       -4.947   0.338  -2.940  0.00  0.00    +0.170 HD
ATOM      9  N   LIG    1       -4.268  -0.835  -4.509  0.00  0.00    -0.178 NA
ATOM     10  C   LIG    1       -3.787  -1.991  -4.868  0.00  0.00    +0.124 C 
ATOM     11  C   LIG    1       -5.582  -2.054  -1.524  0.00  0.00    +0.257 C 
ATOM     12  O   LIG    1       -6.618  -2.432  -2.030  0.00  0.00    -0.272 OA
ATOM     13  S   LIG    1       -3.692  -2.910  -3.337  0.00  0.00    -0.063 S 
ATOM     14  N   LIG    1       -5.313  -1.958  -0.205  0.00  0.00    -0.282 N 
ATOM     15  H   LIG    1       -5.943  -2.191   0.494  0.00  0.00    +0.155 HD
ATOM     16  C   LIG    1       -2.074  -0.759  -1.179  0.00  0.00    +0.012 A 
ENDROOT
BRANCH  10  17
ATOM     17  C   LIG    1       -3.407  -2.439  -6.225  0.00  0.00    +0.008 A 
ATOM     18  C   LIG    1       -2.910  -3.727  -6.424  0.00  0.00    +0.011 A 
ATOM     19  C   LIG    1       -2.558  -4.139  -7.693  0.00  0.00    +0.004 A 
ATOM     20  C   LIG    1       -2.698  -3.278  -8.767  0.00  0.00    -0.050 A 
ATOM     21  C   LIG    1       -2.311  -3.735 -10.150  0.00  0.00    +0.044 C 
ATOM     22  C   LIG    1       -3.190  -1.999  -8.576  0.00  0.00    +0.004 A 
ATOM     23  C   LIG    1       -3.551  -1.577  -7.314  0.00  0.00    +0.011 A 
ENDBRANCH  10  17
BRANCH   1  25
ATOM     24  C   LIG    1       -0.019   1.526   0.010  0.00  0.00    +0.009 C 
ATOM     25  C   LIG    1        0.002  -0.004   0.002  0.00  0.00    +0.032 C 
ENDBRANCH   1  25
TORSDOF 2
