REMARK  Name = ZINC00289991
REMARK                            x       y       z     vdW  Elec       q    Type
REMARK                         _______ _______ _______ _____ _____    ______ ____
ROOT
ATOM      1  N   LIG    1       -2.142  -3.006  -0.100  0.00  0.00    -0.247 N 
ENDROOT
BRANCH   1   2
ATOM      2  N   LIG    1       -1.063  -2.167   0.206  0.00  0.00    -0.188 NA
ATOM      3  C   LIG    1        0.125  -2.670   0.369  0.00  0.00    +0.176 C 
BRANCH   3   4
ATOM      4  C   LIG    1        1.274  -1.782   0.578  0.00  0.00    +0.147 A 
ATOM      5  C   LIG    1        2.568  -2.175   0.761  0.00  0.00    +0.051 A 
ATOM      6  C   LIG    1        3.329  -1.002   0.923  0.00  0.00    +0.042 A 
ATOM      7  C   LIG    1        2.477   0.039   0.832  0.00  0.00    +0.196 A 
ATOM      8  O   LIG    1        1.237  -0.435   0.624  0.00  0.00    -0.462 OA
ENDBRANCH   3   4
ENDBRANCH   1   2
BRANCH   1   9
ATOM      9  C   LIG    1       -1.953  -4.459  -0.141  0.00  0.00    +0.161 C 
BRANCH   9  13
ATOM     10  C   LIG    1       -2.812  -6.116   3.701  0.00  0.00    +0.000 A 
ATOM     11  C   LIG    1       -3.818  -5.988   2.763  0.00  0.00    +0.000 A 
ATOM     12  C   LIG    1       -3.541  -5.452   1.519  0.00  0.00    +0.005 A 
ATOM     13  C   LIG    1       -2.256  -5.043   1.215  0.00  0.00    -0.029 A 
ATOM     14  C   LIG    1       -1.248  -5.176   2.151  0.00  0.00    +0.005 A 
ATOM     15  C   LIG    1       -1.527  -5.707   3.396  0.00  0.00    +0.000 A 
ENDBRANCH   9  13
ENDBRANCH   1   9
BRANCH   1  16
ATOM     16  C   LIG    1       -3.461  -2.432  -0.380  0.00  0.00    +0.161 C 
BRANCH  16  17
ATOM     17  C   LIG    1       -3.599  -2.191  -1.861  0.00  0.00    -0.029 A 
ATOM     18  C   LIG    1       -3.218  -0.978  -2.403  0.00  0.00    +0.005 A 
ATOM     19  C   LIG    1       -3.341  -0.759  -3.762  0.00  0.00    +0.000 A 
ATOM     20  C   LIG    1       -3.855  -1.749  -4.578  0.00  0.00    +0.000 A 
ATOM     21  C   LIG    1       -4.242  -2.960  -4.035  0.00  0.00    +0.000 A 
ATOM     22  C   LIG    1       -4.114  -3.181  -2.677  0.00  0.00    +0.005 A 
ENDBRANCH  16  17
ENDBRANCH   1  16
TORSDOF 6
