REMARK  Name = ZINC00319168
REMARK                            x       y       z     vdW  Elec       q    Type
REMARK                         _______ _______ _______ _____ _____    ______ ____
ROOT
ATOM      1  C   LIG    1        1.021  -3.651   3.023  0.00  0.00    +0.023 A 
ATOM      2  C   LIG    1        0.493  -4.498   2.052  0.00  0.00    +0.030 A 
ATOM      3  C   LIG    1       -0.021  -5.714   2.389  0.00  0.00    +0.051 A 
ATOM      4 CL   LIG    1       -0.675  -6.754   1.162  0.00  0.00    -0.083 Cl
ATOM      5  C   LIG    1       -0.021  -6.122   3.734  0.00  0.00    +0.022 A 
ATOM      6  C   LIG    1       -0.543  -7.370   4.120  0.00  0.00    +0.013 A 
ATOM      7  C   LIG    1       -0.510  -7.700   5.445  0.00  0.00    +0.020 A 
ATOM      8  C   LIG    1        0.031  -6.810   6.370  0.00  0.00    +0.111 A 
ATOM      9  N   LIG    1        0.516  -5.648   6.006  0.00  0.00    -0.251 NA
ATOM     10  C   LIG    1        0.514  -5.264   4.726  0.00  0.00    +0.114 A 
ATOM     11  C   LIG    1        1.043  -4.015   4.339  0.00  0.00    +0.148 A 
ENDROOT
BRANCH  11  12
ATOM     12  O   LIG    1        1.567  -3.177   5.271  0.00  0.00    -0.504 OA
ATOM     13  H   LIG    1        0.923  -2.566   5.656  0.00  0.00    +0.292 HD
ENDBRANCH  11  12
BRANCH   1  14
ATOM     14  C   LIG    1        1.583  -2.313   2.615  0.00  0.00    +0.144 C 
BRANCH  14  15
ATOM     15  C   LIG    1        3.063  -2.445   2.363  0.00  0.00    +0.015 A 
ATOM     16  C   LIG    1        4.099  -2.123   3.176  0.00  0.00    +0.013 A 
ATOM     17  C   LIG    1        5.390  -2.334   2.731  0.00  0.00    +0.008 A 
ATOM     18  C   LIG    1        5.583  -2.856   1.495  0.00  0.00    +0.045 A 
ATOM     19  S   LIG    1        3.906  -3.074   0.921  0.00  0.00    -0.099 S 
ENDBRANCH  14  15
BRANCH  14  21
ATOM     20  C   LIG    1        0.819  -0.539   1.129  0.00  0.00    +0.213 C 
ATOM     21  N   LIG    1        0.918  -1.857   1.391  0.00  0.00    -0.304 N 
ATOM     22  H   LIG    1        0.550  -2.505   0.769  0.00  0.00    +0.150 HD
ATOM     23  O   LIG    1        1.280   0.270   1.906  0.00  0.00    -0.276 OA
BRANCH  20  25
ATOM     24  C   LIG    1        0.159   1.458  -0.184  0.00  0.00    +0.013 C 
ATOM     25  C   LIG    1        0.135  -0.070  -0.130  0.00  0.00    +0.092 C 
ENDBRANCH  20  25
ENDBRANCH  14  21
ENDBRANCH   1  14
TORSDOF 5
