REMARK  Name = ZINC00103336
REMARK                            x       y       z     vdW  Elec       q    Type
REMARK                         _______ _______ _______ _____ _____    ______ ____
ROOT
ATOM      1  N   LIG    1       -1.320   3.463   0.027  0.00  0.00    -0.279 N 
ATOM      2  H   LIG    1       -0.489   3.958   0.102  0.00  0.00    +0.155 HD
ATOM      3  C   LIG    1       -1.303   2.115   0.016  0.00  0.00    +0.248 C 
ATOM      4  O   LIG    1       -2.349   1.494   0.024  0.00  0.00    -0.270 OA
ENDROOT
BRANCH   1  11
ATOM      5  C   LIG    1       -2.651   5.443   0.436  0.00  0.00    +0.141 A 
ATOM      6  C   LIG    1       -3.857   6.117   0.338  0.00  0.00    +0.049 A 
ATOM      7  C   LIG    1       -4.945   5.507  -0.259  0.00  0.00    +0.024 A 
ATOM      8  C   LIG    1       -4.832   4.223  -0.761  0.00  0.00    +0.043 A 
ATOM      9 CL   LIG    1       -6.202   3.463  -1.510  0.00  0.00    -0.083 Cl
ATOM     10  C   LIG    1       -3.630   3.545  -0.672  0.00  0.00    +0.047 A 
ATOM     11  C   LIG    1       -2.537   4.149  -0.069  0.00  0.00    +0.077 A 
BRANCH   5  13
ATOM     12  C   LIG    1       -1.771   7.369   1.518  0.00  0.00    +0.277 C 
ATOM     13  O   LIG    1       -1.581   6.042   1.023  0.00  0.00    -0.493 OA
ENDBRANCH   5  13
ENDBRANCH   1  11
BRANCH   3  14
ATOM     14  C   LIG    1       -0.017   1.393  -0.006  0.00  0.00    +0.039 A 
ATOM     15  C   LIG    1        1.186   2.105  -0.021  0.00  0.00    +0.017 A 
ATOM     16  C   LIG    1        2.385   1.428  -0.048  0.00  0.00    +0.049 A 
ATOM     17  C   LIG    1        2.399   0.038  -0.059  0.00  0.00    +0.150 A 
ATOM     18  C   LIG    1        1.206  -0.674  -0.044  0.00  0.00    +0.164 A 
ATOM     19  C   LIG    1        0.003  -0.004  -0.018  0.00  0.00    +0.049 A 
BRANCH  17  20
ATOM     20  O   LIG    1        3.583  -0.626  -0.085  0.00  0.00    -0.493 OA
ATOM     21  C   LIG    1        4.771   0.167  -0.099  0.00  0.00    +0.277 C 
ENDBRANCH  17  20
BRANCH  18  22
ATOM     22  N   LIG    1        1.227  -2.154  -0.056  0.00  0.00    +0.010 N 
ATOM     23  O   LIG    1        0.182  -2.778  -0.042  0.00  0.00    -0.130 OA
BRANCH  22  24
ATOM     24  O   LIG    1        2.291  -2.747  -0.079  0.00  0.00    -0.396 OA
ATOM     25  H   LIG    1        3.095  -2.267  -0.089  0.00  0.00    +0.329 HD
ENDBRANCH  22  24
ENDBRANCH  18  22
ENDBRANCH   3  14
TORSDOF 6
