REMARK  Name = ZINC00177585
REMARK                            x       y       z     vdW  Elec       q    Type
REMARK                         _______ _______ _______ _____ _____    ______ ____
ROOT
ATOM      1  N   LIG    1       -0.775   1.599  -1.140  0.00  0.00    -0.234 N 
ATOM      2  C   LIG    1       -0.013   1.086   0.008  0.00  0.00    +0.165 C 
ATOM      3  C   LIG    1       -0.789   1.610   1.232  0.00  0.00    +0.233 C 
ATOM      4  O   LIG    1       -1.901   2.355   0.648  0.00  0.00    -0.442 OA
ATOM      5  C   LIG    1       -1.822   2.302  -0.687  0.00  0.00    +0.408 C 
ATOM      6  O   LIG    1       -2.626   2.843  -1.420  0.00  0.00    -0.226 OA
ENDROOT
BRANCH   1  10
ATOM      7  C   LIG    1        0.165   0.967  -5.150  0.00  0.00    +0.000 A 
ATOM      8  C   LIG    1       -0.948   1.715  -4.812  0.00  0.00    +0.002 A 
ATOM      9  C   LIG    1       -1.263   1.926  -3.483  0.00  0.00    +0.023 A 
ATOM     10  C   LIG    1       -0.460   1.386  -2.487  0.00  0.00    +0.040 A 
ATOM     11  C   LIG    1        0.660   0.640  -2.830  0.00  0.00    +0.023 A 
ATOM     12  C   LIG    1        0.966   0.429  -4.160  0.00  0.00    +0.002 A 
ENDBRANCH   1  10
BRANCH   3  13
ATOM     13  C   LIG    1        0.096   2.532   2.073  0.00  0.00    +0.275 C 
BRANCH  13  14
ATOM     14  O   LIG    1       -0.604   2.912   3.260  0.00  0.00    -0.488 OA
BRANCH  14  15
ATOM     15  C   LIG    1        0.046   3.736   4.122  0.00  0.00    +0.121 A 
ATOM     16  C   LIG    1        1.333   4.167   3.836  0.00  0.00    +0.045 A 
ATOM     17  C   LIG    1        1.989   5.010   4.711  0.00  0.00    +0.004 A 
ATOM     18  C   LIG    1        1.369   5.415   5.879  0.00  0.00    +0.000 A 
ATOM     19  C   LIG    1        0.088   4.983   6.170  0.00  0.00    +0.004 A 
ATOM     20  C   LIG    1       -0.575   4.144   5.294  0.00  0.00    +0.045 A 
ENDBRANCH  14  15
ENDBRANCH  13  14
ENDBRANCH   3  13
TORSDOF 4
