REMARK  Name = ZINC00161833
REMARK                            x       y       z     vdW  Elec       q    Type
REMARK                         _______ _______ _______ _____ _____    ______ ____
ROOT
ATOM      1  C   LIG    1        3.711  -0.707  -0.038  0.00  0.00    +0.191 C 
ATOM      2  C   LIG    1        4.000  -1.250  -1.423  0.00  0.00    +0.245 C 
ATOM      3  N   LIG    1        4.064  -2.589  -1.283  0.00  0.00    -0.238 N 
ATOM      4  H   LIG    1        4.238  -3.205  -2.012  0.00  0.00    +0.159 HD
ATOM      5  C   LIG    1        3.859  -2.963  -0.015  0.00  0.00    +0.307 C 
ATOM      6  O   LIG    1        3.869  -4.120   0.358  0.00  0.00    -0.252 OA
ATOM      7  O   LIG    1        4.144  -0.613  -2.444  0.00  0.00    -0.273 OA
ATOM      8  N   LIG    1        3.641  -1.914   0.804  0.00  0.00    -0.284 N 
ATOM      9  H   LIG    1        3.471  -1.946   1.758  0.00  0.00    +0.151 HD
ENDROOT
BRANCH   1  13
ATOM     10  C   LIG    1       -0.017   1.378   0.010  0.00  0.00    +0.000 A 
ATOM     11  C   LIG    1        1.171   2.086   0.002  0.00  0.00    +0.000 A 
ATOM     12  C   LIG    1        2.377   1.411  -0.013  0.00  0.00    +0.006 A 
ATOM     13  C   LIG    1        2.396   0.029  -0.020  0.00  0.00    -0.018 A 
ATOM     14  C   LIG    1        1.208  -0.679  -0.012  0.00  0.00    +0.006 A 
ATOM     15  C   LIG    1        0.002  -0.004   0.002  0.00  0.00    +0.000 A 
ENDBRANCH   1  13
TORSDOF 1
