REMARK  Name = ZINC00235505
REMARK                            x       y       z     vdW  Elec       q    Type
REMARK                         _______ _______ _______ _____ _____    ______ ____
ROOT
ATOM      1  C   LIG    1        0.203   2.416   0.888  0.00  0.00    +0.028 C 
ATOM      2  C   LIG    1        0.501   0.988   0.425  0.00  0.00    +0.074 C 
ATOM      3  C   LIG    1       -0.784   0.341  -0.102  0.00  0.00    +0.022 C 
ATOM      4  C   LIG    1       -1.783   0.191   1.047  0.00  0.00    +0.004 C 
ATOM      5  C   LIG    1       -1.191  -0.720   2.125  0.00  0.00    +0.034 C 
ATOM      6  C   LIG    1        0.089  -0.085   2.677  0.00  0.00    +0.185 C 
ATOM      7  N   LIG    1        1.002   0.197   1.557  0.00  0.00    -0.285 N 
ATOM      8  C   LIG    1        2.269  -0.262   1.567  0.00  0.00    +0.217 C 
ATOM      9  O   LIG    1        2.646  -0.983   2.466  0.00  0.00    -0.276 OA
ENDROOT
BRANCH   6  10
ATOM     10  C   LIG    1        0.749  -1.037   3.642  0.00  0.00    +0.325 C 
ATOM     11  O   LIG    1        1.097  -2.143   3.265  0.00  0.00    -0.249 OA
BRANCH  10  12
ATOM     12  O   LIG    1        0.935  -0.700   4.798  0.00  0.00    -0.479 OA
ATOM     13  H   LIG    1        0.668   0.150   5.088  0.00  0.00    +0.295 HD
ENDBRANCH  10  12
ENDBRANCH   6  10
BRANCH   8  14
ATOM     14  C   LIG    1        3.217   0.120   0.460  0.00  0.00    +0.106 C 
BRANCH  14  15
ATOM     15  C   LIG    1        4.616  -0.410   0.780  0.00  0.00    +0.075 C 
BRANCH  15  16
ATOM     16  S   LIG    1        5.758   0.051  -0.552  0.00  0.00    -0.178 S 
ATOM     17  H   LIG    1        6.938  -0.464  -0.162  0.00  0.00    +0.102 HD
ENDBRANCH  15  16
ENDBRANCH  14  15
ENDBRANCH   8  14
TORSDOF 5
