REMARK  Name = ZINC00120286
REMARK                            x       y       z     vdW  Elec       q    Type
REMARK                         _______ _______ _______ _____ _____    ______ ____
ROOT
ATOM      1  C   LIG    1        3.724  -0.645   0.024  0.00  0.00    +0.111 A 
ATOM      2  C   LIG    1        3.862  -1.859   0.739  0.00  0.00    +0.145 A 
ATOM      3  N   LIG    1        4.987  -2.548   0.675  0.00  0.00    -0.209 NA
ATOM      4  C   LIG    1        5.999  -2.095  -0.071  0.00  0.00    +0.187 A 
ATOM      5  C   LIG    1        5.857  -0.880  -0.786  0.00  0.00    +0.148 A 
ATOM      6  C   LIG    1        6.953  -0.430  -1.567  0.00  0.00    +0.149 A 
ATOM      7  N   LIG    1        8.054  -1.166  -1.592  0.00  0.00    -0.198 NA
ATOM      8  C   LIG    1        8.143  -2.301  -0.905  0.00  0.00    +0.216 A 
ATOM      9  N   LIG    1        7.155  -2.765  -0.163  0.00  0.00    -0.193 NA
ATOM     10  N   LIG    1        4.718  -0.193  -0.720  0.00  0.00    -0.237 NA
ENDROOT
BRANCH   1  14
ATOM     11  C   LIG    1        0.090   1.547   0.256  0.00  0.00    +0.000 A 
ATOM     12  C   LIG    1        0.647   1.013   1.405  0.00  0.00    +0.001 A 
ATOM     13  C   LIG    1        1.826   0.300   1.335  0.00  0.00    +0.010 A 
ATOM     14  C   LIG    1        2.457   0.119   0.105  0.00  0.00    +0.004 A 
ATOM     15  C   LIG    1        1.891   0.660  -1.049  0.00  0.00    +0.010 A 
ATOM     16  C   LIG    1        0.711   1.371  -0.967  0.00  0.00    +0.001 A 
ENDBRANCH   1  14
BRANCH   2  17
ATOM     17  N   LIG    1        2.813  -2.325   1.510  0.00  0.00    -0.341 N 
ATOM     18  H   LIG    1        2.944  -3.084   2.099  0.00  0.00    +0.144 HD
ATOM     19  H   LIG    1        1.946  -1.892   1.462  0.00  0.00    +0.144 HD
ENDBRANCH   2  17
BRANCH   6  20
ATOM     20  N   LIG    1        6.873   0.745  -2.284  0.00  0.00    -0.341 N 
ATOM     21  H   LIG    1        7.629   1.042  -2.814  0.00  0.00    +0.144 HD
ATOM     22  H   LIG    1        6.061   1.275  -2.258  0.00  0.00    +0.144 HD
ENDBRANCH   6  20
BRANCH   8  23
ATOM     23  N   LIG    1        9.319  -3.025  -0.972  0.00  0.00    -0.327 N 
ATOM     24  H   LIG    1        9.405  -3.856  -0.479  0.00  0.00    +0.145 HD
ATOM     25  H   LIG    1       10.057  -2.702  -1.511  0.00  0.00    +0.145 HD
ENDBRANCH   8  23
TORSDOF 4
