REMARK  Name = ZINC00338381
REMARK                            x       y       z     vdW  Elec       q    Type
REMARK                         _______ _______ _______ _____ _____    ______ ____
ROOT
ATOM      1  C   LIG    1        4.010  -2.003   0.635  0.00  0.00    +0.138 C 
ATOM      2  N   LIG    1        3.768  -0.618   0.225  0.00  0.00    -0.269 N 
ATOM      3  C   LIG    1        4.801   0.166  -0.144  0.00  0.00    +0.267 C 
ATOM      4  O   LIG    1        4.620   1.349  -0.363  0.00  0.00    -0.268 OA
ENDROOT
BRANCH   3   5
ATOM      5  C   LIG    1        6.147  -0.409  -0.281  0.00  0.00    +0.103 A 
ATOM      6  C   LIG    1        7.291   0.300  -0.474  0.00  0.00    +0.040 A 
ATOM      7  C   LIG    1        8.362  -0.623  -0.553  0.00  0.00    +0.000 A 
ATOM      8  C   LIG    1        9.743  -0.480  -0.740  0.00  0.00    +0.010 A 
ATOM      9  C   LIG    1       10.541  -1.586  -0.772  0.00  0.00    +0.001 A 
ATOM     10  C   LIG    1        9.997  -2.856  -0.621  0.00  0.00    +0.002 A 
ATOM     11  C   LIG    1        8.643  -3.022  -0.436  0.00  0.00    +0.026 A 
ATOM     12  C   LIG    1        7.808  -1.909  -0.399  0.00  0.00    +0.047 A 
ATOM     13  N   LIG    1        6.452  -1.755  -0.229  0.00  0.00    -0.351 N 
ATOM     14  H   LIG    1        5.815  -2.474  -0.096  0.00  0.00    +0.166 HD
ENDBRANCH   3   5
BRANCH   2  15
ATOM     15  C   LIG    1        2.466  -0.108   0.215  0.00  0.00    +0.036 A 
ATOM     16  C   LIG    1        1.419  -0.865   0.726  0.00  0.00    +0.023 A 
ATOM     17  C   LIG    1        0.134  -0.358   0.715  0.00  0.00    +0.002 A 
ATOM     18  C   LIG    1       -0.110   0.901   0.198  0.00  0.00    +0.000 A 
ATOM     19  C   LIG    1        0.930   1.657  -0.311  0.00  0.00    +0.002 A 
ATOM     20  C   LIG    1        2.217   1.156  -0.304  0.00  0.00    +0.023 A 
ENDBRANCH   2  15
TORSDOF 2
