REMARK  Name = ZINC00085733
REMARK                            x       y       z     vdW  Elec       q    Type
REMARK                         _______ _______ _______ _____ _____    ______ ____
ROOT
ATOM      1  C   LIG    1       -1.255  -0.731  -0.009  0.00  0.00    +0.012 C 
ENDROOT
BRANCH   1   8
ATOM      2  C   LIG    1        0.389   1.157  -0.061  0.00  0.00    +0.005 A 
ATOM      3  C   LIG    1        1.684   1.638  -0.094  0.00  0.00    +0.020 A 
ATOM      4  C   LIG    1        2.749   0.755  -0.111  0.00  0.00    +0.041 A 
ATOM      5 CL   LIG    1        4.376   1.359  -0.153  0.00  0.00    -0.084 Cl
ATOM      6  C   LIG    1        2.518  -0.609  -0.095  0.00  0.00    +0.020 A 
ATOM      7  C   LIG    1        1.222  -1.089  -0.062  0.00  0.00    +0.005 A 
ATOM      8  C   LIG    1        0.158  -0.206  -0.045  0.00  0.00    -0.045 A 
ENDBRANCH   1   8
BRANCH   1   9
ATOM      9  C   LIG    1       -1.510  -1.594  -1.246  0.00  0.00    -0.078 C 
BRANCH   9  10
ATOM     10  N   LIG    1       -2.913  -2.032  -1.256  0.00  0.00    +0.379 N 
ATOM     11  H   LIG    1       -3.107  -2.517  -2.119  0.00  0.00    -0.090 HD
ATOM     12  H   LIG    1       -3.517  -1.227  -1.179  0.00  0.00    -0.090 HD
ATOM     13  H   LIG    1       -3.077  -2.651  -0.477  0.00  0.00    -0.090 HD
ENDBRANCH   9  10
ENDBRANCH   1   9
BRANCH   1  14
ATOM     14  C   LIG    1       -1.453  -1.574   1.252  0.00  0.00    +0.126 C 
BRANCH  14  15
ATOM     15  C   LIG    1       -1.349  -0.692   2.469  0.00  0.00    +0.305 C 
ATOM     16  O   LIG    1       -1.246   0.516   2.339  0.00  0.00    -0.251 OA
BRANCH  15  17
ATOM     17  O   LIG    1       -1.368  -1.185   3.584  0.00  0.00    -0.481 OA
ATOM     18  H   LIG    1       -1.447  -2.114   3.684  0.00  0.00    +0.295 HD
ENDBRANCH  15  17
ENDBRANCH  14  15
ENDBRANCH   1  14
TORSDOF 6
