REMARK  Name = ZINC00085612
REMARK                            x       y       z     vdW  Elec       q    Type
REMARK                         _______ _______ _______ _____ _____    ______ ____
ROOT
ATOM      1  S   LIG    1        0.054  -2.801   2.754  0.00  0.00    -0.097 S 
ENDROOT
BRANCH   1   7
ATOM      2  C   LIG    1       -0.018   1.503   0.010  0.00  0.00    +0.065 C 
ATOM      3  C   LIG    1        0.002  -0.004   0.002  0.00  0.00    +0.040 A 
ATOM      4  C   LIG    1        0.005  -0.676  -1.207  0.00  0.00    +0.030 A 
ATOM      5  C   LIG    1        0.025  -2.060  -1.218  0.00  0.00    -0.000 A 
ATOM      6  C   LIG    1        0.040  -2.735   0.008  0.00  0.00    +0.089 A 
ATOM      7  C   LIG    1        0.035  -1.981   1.195  0.00  0.00    +0.115 A 
ATOM      8  N   LIG    1        0.022  -0.657   1.147  0.00  0.00    -0.244 NA
BRANCH   6   9
ATOM      9  C   LIG    1        0.060  -4.166   0.053  0.00  0.00    +0.102 C 
ATOM     10  N   LIG    1        0.075  -5.301   0.088  0.00  0.00    -0.191 NA
ENDBRANCH   6   9
BRANCH   5  11
ATOM     11  C   LIG    1        0.029  -2.822  -2.518  0.00  0.00    +0.196 C 
BRANCH  11  12
ATOM     12  O   LIG    1        0.010  -1.900  -3.611  0.00  0.00    -0.378 OA
ATOM     13  C   LIG    1        0.012  -2.523  -4.897  0.00  0.00    +0.194 C 
ENDBRANCH  11  12
ENDBRANCH   5  11
ENDBRANCH   1   7
BRANCH   1  14
ATOM     14  C   LIG    1        0.042  -1.448   3.963  0.00  0.00    +0.155 C 
BRANCH  14  15
ATOM     15  C   LIG    1        0.056  -2.020   5.357  0.00  0.00    +0.173 C 
ATOM     16  O   LIG    1        0.074  -3.221   5.520  0.00  0.00    -0.291 OA
BRANCH  15  17
ATOM     17  C   LIG    1        0.050  -1.121   6.519  0.00  0.00    +0.022 A 
ATOM     18  C   LIG    1        0.024   0.266   6.333  0.00  0.00    +0.015 A 
ATOM     19  C   LIG    1        0.017   1.106   7.424  0.00  0.00    +0.050 A 
ATOM     20  C   LIG    1        0.036   0.581   8.710  0.00  0.00    +0.158 A 
ATOM     21  C   LIG    1        0.062  -0.800   8.903  0.00  0.00    +0.159 A 
ATOM     22  C   LIG    1        0.063  -1.650   7.815  0.00  0.00    +0.060 A 
BRANCH  20  23
ATOM     23  O   LIG    1        0.030   1.414   9.782  0.00  0.00    -0.503 OA
ATOM     24  H   LIG    1       -0.855   1.640  10.099  0.00  0.00    +0.292 HD
ENDBRANCH  20  23
BRANCH  21  25
ATOM     25  O   LIG    1        0.082  -1.310  10.164  0.00  0.00    -0.503 OA
ATOM     26  H   LIG    1       -0.796  -1.473  10.536  0.00  0.00    +0.292 HD
ENDBRANCH  21  25
ENDBRANCH  15  17
ENDBRANCH  14  15
ENDBRANCH   1  14
TORSDOF 9
