REMARK  Name = ZINC00080959
REMARK                            x       y       z     vdW  Elec       q    Type
REMARK                         _______ _______ _______ _____ _____    ______ ____
ROOT
ATOM      1  N   LIG    1        4.152  -0.952   1.338  0.00  0.00    -0.322 N 
ATOM      2  H   LIG    1        3.610  -0.648   2.082  0.00  0.00    +0.148 HD
ENDROOT
BRANCH   1   3
ATOM      3  C   LIG    1        5.311  -1.601   1.569  0.00  0.00    +0.136 C 
ATOM      4  S   LIG    1        6.268  -2.137   0.255  0.00  0.00    -0.019 S 
BRANCH   3   5
ATOM      5  N   LIG    1        5.716  -1.826   2.834  0.00  0.00    -0.276 N 
ATOM      6  H   LIG    1        5.174  -1.522   3.579  0.00  0.00    +0.156 HD
BRANCH   5   7
ATOM      7  C   LIG    1        6.911  -2.494   3.072  0.00  0.00    +0.164 A 
ATOM      8  N   LIG    1        7.771  -2.969   2.197  0.00  0.00    -0.233 NA
ATOM      9  C   LIG    1        8.871  -3.585   2.587  0.00  0.00    +0.120 A 
ATOM     10  C   LIG    1        9.071  -3.704   3.922  0.00  0.00    +0.068 A 
ATOM     11  S   LIG    1        7.614  -2.886   4.551  0.00  0.00    -0.061 S 
ENDBRANCH   5   7
ENDBRANCH   3   5
ENDBRANCH   1   3
BRANCH   1  12
ATOM     12  C   LIG    1        3.711  -0.707  -0.038  0.00  0.00    +0.138 C 
BRANCH  12  16
ATOM     13  C   LIG    1       -0.017   1.378   0.010  0.00  0.00    +0.000 A 
ATOM     14  C   LIG    1        1.171   2.086   0.002  0.00  0.00    +0.000 A 
ATOM     15  C   LIG    1        2.377   1.411  -0.013  0.00  0.00    +0.005 A 
ATOM     16  C   LIG    1        2.396   0.029  -0.020  0.00  0.00    -0.030 A 
ATOM     17  C   LIG    1        1.208  -0.679  -0.012  0.00  0.00    +0.005 A 
ATOM     18  C   LIG    1        0.002  -0.004   0.002  0.00  0.00    +0.000 A 
ENDBRANCH  12  16
ENDBRANCH   1  12
TORSDOF 5
