REMARK  Name = ZINC00163348
REMARK                            x       y       z     vdW  Elec       q    Type
REMARK                         _______ _______ _______ _____ _____    ______ ____
ROOT
ATOM      1  C   LIG    1       -0.017   1.377   0.010  0.00  0.00    +0.002 A 
ATOM      2  C   LIG    1        1.171   2.086   0.002  0.00  0.00    +0.002 A 
ATOM      3  C   LIG    1        2.380   1.416  -0.013  0.00  0.00    +0.030 A 
ATOM      4  C   LIG    1        2.406   0.035  -0.021  0.00  0.00    +0.126 A 
ATOM      5  C   LIG    1        1.215  -0.681  -0.013  0.00  0.00    +0.051 A 
ATOM      6  C   LIG    1        0.002  -0.004   0.002  0.00  0.00    +0.025 A 
ENDROOT
BRANCH   4   7
ATOM      7  S   LIG    1        3.947  -0.818  -0.042  0.00  0.00    +0.058 S 
ATOM      8  O   LIG    1        4.962   0.176  -0.020  0.00  0.00    -0.153 OA
ATOM      9  O   LIG    1        3.858  -1.793  -1.071  0.00  0.00    -0.153 OA
BRANCH   7  10
ATOM     10  N   LIG    1        4.067  -1.648   1.387  0.00  0.00    -0.203 NA
ATOM     11  H   LIG    1        4.852  -2.187   1.571  0.00  0.00    +0.144 HD
ATOM     12  H   LIG    1        3.351  -1.595   2.039  0.00  0.00    +0.144 HD
ENDBRANCH   7  10
ENDBRANCH   4   7
BRANCH   5  13
ATOM     13  N   LIG    1        1.238  -2.077  -0.021  0.00  0.00    -0.356 N 
ATOM     14  H   LIG    1        0.406  -2.576  -0.015  0.00  0.00    +0.142 HD
ATOM     15  H   LIG    1        2.086  -2.549  -0.032  0.00  0.00    +0.142 HD
ENDBRANCH   5  13
TORSDOF 3
