REMARK  Name = ZINC00162211
REMARK                            x       y       z     vdW  Elec       q    Type
REMARK                         _______ _______ _______ _____ _____    ______ ____
ROOT
ATOM      1  N   LIG    1       -0.555  -0.733  -2.026  0.00  0.00    -0.186 NA
ATOM      2  H   LIG    1       -1.355  -1.262  -1.880  0.00  0.00    +0.148 HD
ENDROOT
BRANCH   1  11
ATOM      3  C   LIG    1       -0.106   1.490   0.331  0.00  0.00    +0.013 C 
ATOM      4  C   LIG    1       -0.062  -0.039   0.307  0.00  0.00    -0.014 C 
ATOM      5  C   LIG    1       -1.415  -0.763   0.583  0.00  0.00    +0.008 C 
ATOM      6  C   LIG    1       -1.013  -2.194   1.008  0.00  0.00    +0.005 C 
ATOM      7  C   LIG    1        0.545  -2.199   0.949  0.00  0.00    -0.003 C 
ATOM      8  C   LIG    1        0.878  -2.153  -0.574  0.00  0.00    -0.015 C 
ATOM      9  C   LIG    1        0.059  -3.200  -1.331  0.00  0.00    +0.013 C 
ATOM     10  C   LIG    1        2.375  -2.378  -0.800  0.00  0.00    +0.013 C 
ATOM     11  C   LIG    1        0.489  -0.685  -1.000  0.00  0.00    +0.088 C 
ATOM     12  C   LIG    1        0.857  -0.723   1.380  0.00  0.00    +0.012 C 
ENDBRANCH   1  11
BRANCH   1  13
ATOM     13  S   LIG    1       -0.369   0.115  -3.436  0.00  0.00    +0.059 S 
ATOM     14  O   LIG    1        0.013   1.433  -3.070  0.00  0.00    -0.153 OA
ATOM     15  O   LIG    1       -1.520  -0.153  -4.225  0.00  0.00    -0.153 OA
BRANCH  13  16
ATOM     16  C   LIG    1        1.002  -0.589  -4.291  0.00  0.00    +0.105 A 
ATOM     17  C   LIG    1        2.277  -0.105  -4.066  0.00  0.00    +0.031 A 
ATOM     18  C   LIG    1        3.353  -0.657  -4.735  0.00  0.00    +0.040 A 
ATOM     19  C   LIG    1        3.154  -1.693  -5.631  0.00  0.00    +0.124 A 
ATOM     20  F   LIG    1        4.205  -2.232  -6.287  0.00  0.00    -0.205 F 
ATOM     21  C   LIG    1        1.875  -2.176  -5.856  0.00  0.00    +0.040 A 
ATOM     22  C   LIG    1        0.801  -1.627  -5.181  0.00  0.00    +0.031 A 
ENDBRANCH  13  16
ENDBRANCH   1  13
TORSDOF 3
