REMARK  Name = ZINC00265874
REMARK                            x       y       z     vdW  Elec       q    Type
REMARK                         _______ _______ _______ _____ _____    ______ ____
ROOT
ATOM      1  C   LIG    1        0.067  -2.830   0.033  0.00  0.00    +0.139 A 
ATOM      2  C   LIG    1        0.676  -3.865  -0.643  0.00  0.00    +0.051 A 
ATOM      3  C   LIG    1       -0.255  -4.357  -1.559  0.00  0.00    +0.057 A 
ATOM      4  C   LIG    1       -1.402  -3.602  -1.408  0.00  0.00    +0.212 A 
ATOM      5  O   LIG    1       -1.183  -2.690  -0.437  0.00  0.00    -0.448 OA
ENDROOT
BRANCH   1  11
ATOM      6  C   LIG    1        0.625  -0.618   1.040  0.00  0.00    +0.131 A 
ATOM      7  C   LIG    1        1.202   0.137   2.050  0.00  0.00    +0.046 A 
ATOM      8  C   LIG    1        1.836  -0.489   3.106  0.00  0.00    +0.004 A 
ATOM      9  C   LIG    1        1.901  -1.871   3.165  0.00  0.00    +0.001 A 
ATOM     10  C   LIG    1        1.333  -2.637   2.169  0.00  0.00    +0.015 A 
ATOM     11  C   LIG    1        0.683  -2.017   1.099  0.00  0.00    +0.059 A 
BRANCH   6  13
ATOM     12  C   LIG    1       -0.017   1.425   0.010  0.00  0.00    +0.277 C 
ATOM     13  O   LIG    1        0.002  -0.004   0.002  0.00  0.00    -0.494 OA
ENDBRANCH   6  13
ENDBRANCH   1  11
BRANCH   4  14
ATOM     14  C   LIG    1       -2.602  -3.761  -2.142  0.00  0.00    +0.372 C 
ATOM     15  O   LIG    1       -2.684  -4.632  -3.001  0.00  0.00    -0.242 OA
BRANCH  14  16
ATOM     16  O   LIG    1       -3.558  -3.028  -1.919  0.00  0.00    -0.475 OA
ATOM     17  H   LIG    1       -3.495  -2.363  -1.262  0.00  0.00    +0.296 HD
ENDBRANCH  14  16
ENDBRANCH   4  14
TORSDOF 4
