REMARK  Name = ZINC00162733
REMARK                            x       y       z     vdW  Elec       q    Type
REMARK                         _______ _______ _______ _____ _____    ______ ____
ROOT
ATOM      1  C   LIG    1        3.693  -0.664  -0.036  0.00  0.00    -0.000 A 
ATOM      2  C   LIG    1        3.654  -2.046  -0.043  0.00  0.00    +0.101 A 
ATOM      3  C   LIG    1        2.412  -2.703  -0.035  0.00  0.00    +0.338 A 
ATOM      4  O   LIG    1        1.253  -2.026  -0.020  0.00  0.00    -0.422 OA
ATOM      5  C   LIG    1        1.215  -0.677  -0.013  0.00  0.00    +0.143 A 
ATOM      6  C   LIG    1        0.002  -0.004   0.002  0.00  0.00    +0.092 A 
ATOM      7  C   LIG    1       -0.017   1.381   0.010  0.00  0.00    +0.120 A 
ATOM      8  C   LIG    1        1.173   2.105   0.002  0.00  0.00    +0.046 A 
ATOM      9  C   LIG    1        2.376   1.457  -0.013  0.00  0.00    +0.016 A 
ATOM     10  O   LIG    1        2.387  -3.921  -0.040  0.00  0.00    -0.245 OA
ATOM     11  C   LIG    1        2.412   0.060  -0.021  0.00  0.00    +0.026 A 
ENDROOT
BRANCH   1  15
ATOM     12  C   LIG    1        7.393   1.424  -0.060  0.00  0.00    +0.000 A 
ATOM     13  C   LIG    1        7.181   0.409   0.856  0.00  0.00    +0.001 A 
ATOM     14  C   LIG    1        5.982  -0.273   0.869  0.00  0.00    +0.008 A 
ATOM     15  C   LIG    1        4.982   0.063  -0.044  0.00  0.00    -0.017 A 
ATOM     16  C   LIG    1        5.204   1.084  -0.970  0.00  0.00    +0.008 A 
ATOM     17  C   LIG    1        6.406   1.762  -0.969  0.00  0.00    +0.001 A 
ENDBRANCH   1  15
BRANCH   7  18
ATOM     18  O   LIG    1       -1.204   2.039   0.019  0.00  0.00    -0.507 OA
ATOM     19  H   LIG    1       -1.544   2.224   0.905  0.00  0.00    +0.292 HD
ENDBRANCH   7  18
TORSDOF 2
