REMARK  Name = ZINC00086336
REMARK                            x       y       z     vdW  Elec       q    Type
REMARK                         _______ _______ _______ _____ _____    ______ ____
ROOT
ATOM      1  C   LIG    1        3.697  -0.687  -0.038  0.00  0.00    +0.052 C 
ATOM      2  N   LIG    1        4.769   0.017  -0.140  0.00  0.00    -0.375 N 
ATOM      3  H   LIG    1        4.694   0.983  -0.196  0.00  0.00    +0.160 HD
ATOM      4  C   LIG    1        6.096  -0.596  -0.173  0.00  0.00    +0.209 C 
ATOM      5  C   LIG    1        6.206  -1.452  -1.406  0.00  0.00    +0.236 C 
ATOM      6  N   LIG    1        5.429  -2.516  -1.591  0.00  0.00    -0.283 N 
ATOM      7  H   LIG    1        5.524  -2.999  -2.426  0.00  0.00    +0.155 HD
ATOM      8  C   LIG    1        4.493  -2.988  -0.683  0.00  0.00    +0.043 A 
ATOM      9  C   LIG    1        4.396  -4.371  -0.523  0.00  0.00    +0.024 A 
ATOM     10  C   LIG    1        3.489  -4.913   0.375  0.00  0.00    +0.002 A 
ATOM     11  C   LIG    1        2.660  -4.084   1.113  0.00  0.00    +0.001 A 
ATOM     12  C   LIG    1        2.742  -2.719   0.964  0.00  0.00    +0.012 A 
ATOM     13  O   LIG    1        7.026  -1.164  -2.253  0.00  0.00    -0.274 OA
ATOM     14  C   LIG    1        3.662  -2.154   0.068  0.00  0.00    +0.020 A 
ENDROOT
BRANCH   1  18
ATOM     15  C   LIG    1       -0.017   1.379   0.012  0.00  0.00    +0.000 A 
ATOM     16  C   LIG    1        0.035   0.065  -0.417  0.00  0.00    +0.001 A 
ATOM     17  C   LIG    1        1.238  -0.611  -0.436  0.00  0.00    +0.010 A 
ATOM     18  C   LIG    1        2.403   0.033  -0.021  0.00  0.00    -0.001 A 
ATOM     19  C   LIG    1        2.344   1.358   0.411  0.00  0.00    +0.010 A 
ATOM     20  C   LIG    1        1.135   2.023   0.425  0.00  0.00    +0.001 A 
ENDBRANCH   1  18
TORSDOF 1
