REMARK  Name = ZINC00196662
REMARK                            x       y       z     vdW  Elec       q    Type
REMARK                         _______ _______ _______ _____ _____    ______ ____
ROOT
ATOM      1  C   LIG    1        0.059  -4.255  -0.021  0.00  0.00    +0.094 A 
ATOM      2  C   LIG    1        0.069  -4.966   1.189  0.00  0.00    +0.044 A 
ATOM      3  C   LIG    1        0.087  -6.352   1.117  0.00  0.00    +0.052 A 
ATOM      4  C   LIG    1        0.095  -6.959  -0.153  0.00  0.00    +0.105 A 
ATOM      5  C   LIG    1        0.115  -8.432   0.031  0.00  0.00    +0.014 A 
ATOM      6  C   LIG    1        0.129  -9.478  -0.882  0.00  0.00    +0.011 A 
ATOM      7  C   LIG    1        0.147 -10.790  -0.434  0.00  0.00    +0.001 A 
ATOM      8  C   LIG    1        0.151 -11.067   0.919  0.00  0.00    +0.001 A 
ATOM      9  C   LIG    1        0.137 -10.035   1.843  0.00  0.00    +0.012 A 
ATOM     10  C   LIG    1        0.119  -8.716   1.408  0.00  0.00    +0.032 A 
ATOM     11  N   LIG    1        0.084  -6.195  -1.237  0.00  0.00    -0.148 NA
ATOM     12  C   LIG    1        0.102  -7.426   2.138  0.00  0.00    +0.196 C 
ATOM     13  O   LIG    1        0.101  -7.277   3.343  0.00  0.00    -0.287 OA
ATOM     14  N   LIG    1        0.062  -4.914  -1.172  0.00  0.00    -0.149 NA
ENDROOT
BRANCH   1  19
ATOM     15  C   LIG    1       -0.018   1.503   0.010  0.00  0.00    +0.044 C 
ATOM     16  C   LIG    1        0.002  -0.004   0.002  0.00  0.00    -0.050 A 
ATOM     17  C   LIG    1        0.006  -0.686  -1.201  0.00  0.00    +0.004 A 
ATOM     18  C   LIG    1        0.024  -2.066  -1.215  0.00  0.00    +0.010 A 
ATOM     19  C   LIG    1        0.040  -2.772  -0.013  0.00  0.00    +0.002 A 
ATOM     20  C   LIG    1        0.036  -2.079   1.197  0.00  0.00    +0.010 A 
ATOM     21  C   LIG    1        0.023  -0.699   1.198  0.00  0.00    +0.004 A 
ENDBRANCH   1  19
TORSDOF 1
