REMARK  Name = ZINC00100752
REMARK                            x       y       z     vdW  Elec       q    Type
REMARK                         _______ _______ _______ _____ _____    ______ ____
ROOT
ATOM      1  N   LIG    1        1.160   3.489   0.009  0.00  0.00    -0.210 N 
ATOM      2  C   LIG    1        0.029   4.200  -0.069  0.00  0.00    +0.231 C 
ATOM      3  C   LIG    1        0.357   5.675  -0.035  0.00  0.00    +0.095 C 
ATOM      4  C   LIG    1        0.067   6.274  -1.447  0.00  0.00    +0.025 C 
ATOM      5  C   LIG    1        1.266   5.671  -2.265  0.00  0.00    +0.016 C 
ATOM      6  C   LIG    1        2.350   6.299  -1.315  0.00  0.00    +0.025 C 
ATOM      7  C   LIG    1        1.846   7.746  -1.262  0.00  0.00    -0.027 C 
ATOM      8  C   LIG    1        0.510   7.738  -1.331  0.00  0.00    -0.027 C 
ATOM      9  C   LIG    1        1.911   5.693   0.078  0.00  0.00    +0.095 C 
ATOM     10  O   LIG    1       -1.086   3.733  -0.154  0.00  0.00    -0.274 OA
ATOM     11  C   LIG    1        2.273   4.225   0.101  0.00  0.00    +0.231 C 
ATOM     12  O   LIG    1        3.399   3.784   0.185  0.00  0.00    -0.274 OA
ENDROOT
BRANCH   1  14
ATOM     13  C   LIG    1        0.636   1.381   1.067  0.00  0.00    +0.044 A 
ATOM     14  C   LIG    1        1.177   2.087   0.002  0.00  0.00    +0.047 A 
ATOM     15  C   LIG    1        1.733   1.404  -1.071  0.00  0.00    +0.044 A 
ATOM     16  C   LIG    1        1.748   0.022  -1.076  0.00  0.00    +0.044 A 
ATOM     17 CL   LIG    1        2.443  -0.833  -2.417  0.00  0.00    -0.083 Cl
ATOM     18  C   LIG    1        1.208  -0.681  -0.013  0.00  0.00    +0.040 A 
ATOM     19  C   LIG    1        0.653  -0.002   1.058  0.00  0.00    +0.044 A 
ATOM     20 CL   LIG    1       -0.023  -0.887   2.390  0.00  0.00    -0.083 Cl
ENDBRANCH   1  14
TORSDOF 1
