REMARK  Name = ZINC00336490
REMARK                            x       y       z     vdW  Elec       q    Type
REMARK                         _______ _______ _______ _____ _____    ______ ____
ROOT
ATOM      1  C   LIG    1        5.538   3.538  -1.141  0.00  0.00    +0.022 A 
ATOM      2  C   LIG    1        4.943   3.251   0.050  0.00  0.00    +0.031 A 
ATOM      3  C   LIG    1        3.668   2.662   0.068  0.00  0.00    +0.093 A 
ATOM      4  C   LIG    1        3.019   2.373  -1.157  0.00  0.00    +0.095 A 
ATOM      5  N   LIG    1        1.802   1.811  -1.148  0.00  0.00    -0.207 NA
ATOM      6  C   LIG    1        1.220   1.531  -0.001  0.00  0.00    +0.277 A 
ATOM      7  C   LIG    1        1.865   1.824   1.220  0.00  0.00    +0.277 A 
ATOM      8  C   LIG    1        3.662   2.682  -2.366  0.00  0.00    +0.050 A 
ATOM      9  N   LIG    1        3.062   2.370   1.228  0.00  0.00    -0.207 NA
ATOM     10  C   LIG    1        4.899   3.254  -2.347  0.00  0.00    +0.043 A 
ATOM     11 CL   LIG    1        5.690   3.634  -3.845  0.00  0.00    -0.083 Cl
ENDROOT
BRANCH   6  12
ATOM     12  O   LIG    1       -0.011   0.963   0.007  0.00  0.00    -0.489 OA
ATOM     13  H   LIG    1        0.002  -0.004   0.002  0.00  0.00    +0.294 HD
ENDBRANCH   6  12
BRANCH   7  14
ATOM     14  O   LIG    1        1.250   1.534   2.393  0.00  0.00    -0.489 OA
ATOM     15  H   LIG    1        1.442   0.648   2.729  0.00  0.00    +0.294 HD
ENDBRANCH   7  14
TORSDOF 2
