REMARK  Name = ZINC00186825
REMARK                            x       y       z     vdW  Elec       q    Type
REMARK                         _______ _______ _______ _____ _____    ______ ____
ROOT
ATOM      1  N   LIG    1        0.668   2.242  -3.028  0.00  0.00    -0.210 N 
ATOM      2  C   LIG    1        0.709   3.379  -2.325  0.00  0.00    +0.231 C 
ATOM      3  C   LIG    1       -0.163   3.245  -1.097  0.00  0.00    +0.095 C 
ATOM      4  C   LIG    1        0.763   3.170   0.157  0.00  0.00    +0.025 C 
ATOM      5  C   LIG    1        1.351   1.721  -0.008  0.00  0.00    +0.016 C 
ATOM      6  C   LIG    1       -0.070   1.048  -0.020  0.00  0.00    +0.025 C 
ATOM      7  C   LIG    1       -0.683   1.707   1.221  0.00  0.00    -0.027 C 
ATOM      8  C   LIG    1       -0.203   2.930   1.323  0.00  0.00    -0.027 C 
ATOM      9  C   LIG    1       -0.723   1.784  -1.232  0.00  0.00    +0.095 C 
ATOM     10  O   LIG    1        1.349   4.365  -2.624  0.00  0.00    -0.274 OA
ATOM     11  C   LIG    1       -0.109   1.290  -2.499  0.00  0.00    +0.231 C 
ATOM     12  O   LIG    1       -0.286   0.188  -2.973  0.00  0.00    -0.274 OA
ENDROOT
BRANCH   1  18
ATOM     13  C   LIG    1        3.179   2.219  -8.868  0.00  0.00    +0.001 A 
ATOM     14  C   LIG    1        2.126   3.131  -8.828  0.00  0.00    +0.001 A 
ATOM     15  C   LIG    1        1.414   3.329  -7.686  0.00  0.00    +0.008 A 
ATOM     16  C   LIG    1        1.744   2.606  -6.526  0.00  0.00    -0.016 A 
ATOM     17  C   LIG    1        1.028   2.780  -5.331  0.00  0.00    +0.032 A 
ATOM     18  C   LIG    1        1.379   2.063  -4.222  0.00  0.00    +0.044 A 
ATOM     19  C   LIG    1        2.437   1.148  -4.265  0.00  0.00    +0.024 A 
ATOM     20  C   LIG    1        3.146   0.953  -5.409  0.00  0.00    +0.010 A 
ATOM     21  C   LIG    1        2.815   1.678  -6.567  0.00  0.00    -0.018 A 
ATOM     22  C   LIG    1        3.527   1.501  -7.765  0.00  0.00    +0.008 A 
ENDBRANCH   1  18
TORSDOF 1
