REMARK  Name = ZINC00132537
REMARK                            x       y       z     vdW  Elec       q    Type
REMARK                         _______ _______ _______ _____ _____    ______ ____
ROOT
ATOM      1  C   LIG    1       -1.892   5.557   0.049  0.00  0.00    +0.222 C 
ENDROOT
BRANCH   1   4
ATOM      2  C   LIG    1       -0.285   6.572  -3.252  0.00  0.00    +0.008 A 
ATOM      3  C   LIG    1       -0.348   6.142  -1.940  0.00  0.00    +0.014 A 
ATOM      4  C   LIG    1       -1.562   6.006  -1.351  0.00  0.00    +0.026 A 
ATOM      5  S   LIG    1       -2.666   6.506  -2.662  0.00  0.00    -0.099 S 
ATOM      6  C   LIG    1       -1.437   6.855  -3.908  0.00  0.00    +0.045 A 
ENDBRANCH   1   4
BRANCH   1   7
ATOM      7  O   LIG    1       -3.032   6.276   0.524  0.00  0.00    -0.379 OA
ATOM      8  H   LIG    1       -3.827   6.151  -0.012  0.00  0.00    +0.211 HD
ENDBRANCH   1   7
BRANCH   1   9
ATOM      9  C   LIG    1       -2.197   4.081   0.043  0.00  0.00    +0.203 C 
ATOM     10  O   LIG    1       -3.349   3.699   0.052  0.00  0.00    -0.288 OA
BRANCH   9  11
ATOM     11  C   LIG    1       -1.141   3.142   0.029  0.00  0.00    +0.058 A 
ATOM     12  C   LIG    1       -1.204   1.752   0.017  0.00  0.00    +0.019 A 
ATOM     13  C   LIG    1       -0.013   1.076   0.008  0.00  0.00    +0.008 A 
ATOM     14  C   LIG    1        1.152   1.780   0.001  0.00  0.00    +0.046 A 
ATOM     15  S   LIG    1        0.619   3.429   0.014  0.00  0.00    -0.094 S 
ENDBRANCH   9  11
ENDBRANCH   1   9
TORSDOF 4
