REMARK  Name = ZINC00141560
REMARK                            x       y       z     vdW  Elec       q    Type
REMARK                         _______ _______ _______ _____ _____    ______ ____
ROOT
ATOM      1  C   LIG    1       -1.208  -0.902   0.008  0.00  0.00    +0.087 C 
ENDROOT
BRANCH   1   7
ATOM      2  C   LIG    1       -2.259  -1.661   2.155  0.00  0.00    +0.124 A 
ATOM      3  C   LIG    1       -3.005  -1.413   3.298  0.00  0.00    +0.046 A 
ATOM      4  C   LIG    1       -3.521  -0.152   3.525  0.00  0.00    +0.004 A 
ATOM      5  C   LIG    1       -3.289   0.865   2.616  0.00  0.00    +0.001 A 
ATOM      6  C   LIG    1       -2.541   0.622   1.479  0.00  0.00    +0.008 A 
ATOM      7  C   LIG    1       -2.023  -0.638   1.248  0.00  0.00    +0.005 A 
BRANCH   2   9
ATOM      8  C   LIG    1       -2.037  -3.906   2.904  0.00  0.00    +0.277 C 
ATOM      9  O   LIG    1       -1.755  -2.902   1.927  0.00  0.00    -0.495 OA
ENDBRANCH   2   9
ENDBRANCH   1   7
BRANCH   1  10
ATOM     10  C   LIG    1        0.002  -0.004   0.002  0.00  0.00    +0.112 A 
ATOM     11  C   LIG    1        1.284  -0.412  -0.012  0.00  0.00    +0.045 A 
ATOM     12  C   LIG    1        2.084   0.754  -0.014  0.00  0.00    +0.041 A 
ATOM     13  C   LIG    1        1.244   1.804  -0.000  0.00  0.00    +0.195 A 
ATOM     14  O   LIG    1       -0.016   1.339   0.009  0.00  0.00    -0.467 OA
ENDBRANCH   1  10
BRANCH   1  15
ATOM     15  C   LIG    1       -2.059  -0.619  -1.231  0.00  0.00    -0.004 C 
BRANCH  15  16
ATOM     16  C   LIG    1       -1.275  -1.006  -2.487  0.00  0.00    -0.085 C 
BRANCH  16  17
ATOM     17  N   LIG    1       -2.095  -0.709  -3.675  0.00  0.00    +0.378 N 
ATOM     18  H   LIG    1       -2.288   0.299  -3.709  0.00  0.00    -0.090 HD
ATOM     19  H   LIG    1       -2.978  -1.215  -3.625  0.00  0.00    -0.090 HD
ATOM     20  H   LIG    1       -1.596  -0.981  -4.521  0.00  0.00    -0.090 HD
ENDBRANCH  16  17
ENDBRANCH  15  16
ENDBRANCH   1  15
TORSDOF 6
