REMARK  Name = ZINC00170907
REMARK                            x       y       z     vdW  Elec       q    Type
REMARK                         _______ _______ _______ _____ _____    ______ ____
ROOT
ATOM      1  N   LIG    1        1.092   7.283   0.135  0.00  0.00    -0.254 N 
ATOM      2  C   LIG    1       -0.052   7.993   0.051  0.00  0.00    +0.283 A 
ATOM      3  C   LIG    1       -1.283   7.308  -0.050  0.00  0.00    +0.149 A 
ATOM      4  C   LIG    1       -1.285   5.919  -0.066  0.00  0.00    +0.172 A 
ATOM      5  N   LIG    1       -0.076   5.247   0.030  0.00  0.00    -0.245 N 
ATOM      6  N   LIG    1       -2.558   5.526  -0.162  0.00  0.00    -0.218 NA
ATOM      7  C   LIG    1       -3.342   6.573  -0.216  0.00  0.00    +0.199 A 
ATOM      8  N   LIG    1       -2.603   7.698  -0.150  0.00  0.00    -0.339 N 
ATOM      9  H   LIG    1       -2.947   8.637  -0.171  0.00  0.00    +0.167 HD
ATOM     10  O   LIG    1       -0.024   9.211   0.061  0.00  0.00    -0.265 OA
ATOM     11  C   LIG    1        1.075   5.939   0.125  0.00  0.00    +0.338 A 
ATOM     12  O   LIG    1        2.127   5.333   0.203  0.00  0.00    -0.246 OA
ENDROOT
BRANCH   5  13
ATOM     13  C   LIG    1       -0.051   3.847   0.022  0.00  0.00    +0.055 A 
ATOM     14  C   LIG    1        0.056   3.160  -1.181  0.00  0.00    +0.026 A 
ATOM     15  C   LIG    1        0.085   1.779  -1.189  0.00  0.00    +0.004 A 
ATOM     16  C   LIG    1       -0.003   1.076  -0.003  0.00  0.00    +0.023 A 
ATOM     17  C   LIG    1       -0.111   1.757   1.204  0.00  0.00    +0.027 A 
ATOM     18  C   LIG    1       -0.135   3.145   1.216  0.00  0.00    +0.049 A 
BRANCH  17  19
ATOM     19  N   LIG    1       -0.195   1.046   2.403  0.00  0.00    -0.358 N 
ATOM     20  H   LIG    1       -0.271   1.522   3.245  0.00  0.00    +0.142 HD
ATOM     21  H   LIG    1       -0.179   0.076   2.394  0.00  0.00    +0.142 HD
ENDBRANCH  17  19
ENDBRANCH   5  13
BRANCH   1  22
ATOM     22  C   LIG    1        2.372   7.988   0.241  0.00  0.00    +0.165 C 
BRANCH  22  26
ATOM     23  C   LIG    1        3.932   8.701  -3.671  0.00  0.00    +0.000 A 
ATOM     24  C   LIG    1        3.105   9.635  -3.076  0.00  0.00    +0.000 A 
ATOM     25  C   LIG    1        2.600   9.405  -1.810  0.00  0.00    +0.005 A 
ATOM     26  C   LIG    1        2.922   8.240  -1.139  0.00  0.00    -0.028 A 
ATOM     27  C   LIG    1        3.754   7.308  -1.732  0.00  0.00    +0.005 A 
ATOM     28  C   LIG    1        4.255   7.537  -3.000  0.00  0.00    +0.000 A 
ENDBRANCH  22  26
ENDBRANCH   1  22
TORSDOF 4
