REMARK  Name = ZINC00076799
REMARK                            x       y       z     vdW  Elec       q    Type
REMARK                         _______ _______ _______ _____ _____    ______ ____
ROOT
ATOM      1  C   LIG    1        5.574   0.603   1.395  0.00  0.00    +0.117 C 
ENDROOT
BRANCH   1   2
ATOM      2  N   LIG    1        6.075   0.589   2.771  0.00  0.00    -0.252 N 
ATOM      3  C   LIG    1        6.345   1.696   3.490  0.00  0.00    +0.238 C 
ATOM      4  C   LIG    1        6.832   1.202   4.838  0.00  0.00    +0.199 C 
ATOM      5  N   LIG    1        6.775  -0.265   4.710  0.00  0.00    -0.317 N 
ATOM      6  H   LIG    1        7.017  -0.915   5.387  0.00  0.00    +0.148 HD
ATOM      7  O   LIG    1        6.223   2.849   3.133  0.00  0.00    -0.273 OA
ATOM      8  C   LIG    1        6.317  -0.525   3.472  0.00  0.00    +0.140 C 
ATOM      9  S   LIG    1        6.076  -2.106   2.859  0.00  0.00    -0.018 S 
ENDBRANCH   1   2
BRANCH   1  10
ATOM     10  C   LIG    1        4.044   0.624   1.409  0.00  0.00    +0.041 C 
BRANCH  10  11
ATOM     11  C   LIG    1        3.521   0.638  -0.028  0.00  0.00    +0.124 C 
BRANCH  11  14
ATOM     12  C   LIG    1       -0.016   1.337   0.009  0.00  0.00    +0.130 A 
ATOM     13  C   LIG    1        1.259   1.771  -0.000  0.00  0.00    +0.106 A 
ATOM     14  N   LIG    1        2.056   0.658  -0.014  0.00  0.00    -0.337 N 
ATOM     15  C   LIG    1        1.240  -0.418  -0.012  0.00  0.00    +0.199 A 
ATOM     16  N   LIG    1        0.002  -0.004   0.002  0.00  0.00    -0.244 NA
ENDBRANCH  11  14
ENDBRANCH  10  11
ENDBRANCH   1  10
TORSDOF 4
