REMARK  Name = ZINC00352027
REMARK                            x       y       z     vdW  Elec       q    Type
REMARK                         _______ _______ _______ _____ _____    ______ ____
ROOT
ATOM      1  C   LIG    1        2.332  -4.342   3.827  0.00  0.00    -0.021 A 
ATOM      2  C   LIG    1        3.631  -4.674   3.902  0.00  0.00    +0.087 A 
ATOM      3  N   LIG    1        3.935  -5.084   5.171  0.00  0.00    -0.360 N 
ATOM      4  C   LIG    1        2.812  -5.024   5.965  0.00  0.00    +0.047 A 
ATOM      5  C   LIG    1        2.566  -5.321   7.301  0.00  0.00    +0.026 A 
ATOM      6  C   LIG    1        1.304  -5.138   7.822  0.00  0.00    +0.002 A 
ATOM      7  C   LIG    1        0.268  -4.674   7.022  0.00  0.00    +0.001 A 
ATOM      8  C   LIG    1        0.486  -4.382   5.705  0.00  0.00    +0.010 A 
ATOM      9  H   LIG    1        4.812  -5.374   5.468  0.00  0.00    +0.165 HD
ATOM     10  C   LIG    1        1.760  -4.551   5.159  0.00  0.00    +0.003 A 
ENDROOT
BRANCH   1  11
ATOM     11  C   LIG    1        1.603  -3.843   2.606  0.00  0.00    +0.056 C 
BRANCH  11  12
ATOM     12  C   LIG    1        1.583  -2.313   2.615  0.00  0.00    +0.109 C 
BRANCH  12  14
ATOM     13  C   LIG    1        0.731  -0.503   1.223  0.00  0.00    +0.213 C 
ATOM     14  N   LIG    1        0.874  -1.828   1.428  0.00  0.00    -0.315 N 
ATOM     15  H   LIG    1        0.508  -2.459   0.789  0.00  0.00    +0.149 HD
ATOM     16  O   LIG    1        1.189   0.287   2.021  0.00  0.00    -0.276 OA
BRANCH  13  18
ATOM     17  C   LIG    1       -0.019   1.526   0.010  0.00  0.00    +0.013 C 
ATOM     18  C   LIG    1        0.002  -0.004   0.002  0.00  0.00    +0.092 C 
ENDBRANCH  13  18
ENDBRANCH  12  14
ENDBRANCH  11  12
ENDBRANCH   1  11
TORSDOF 4
