REMARK  Name = ZINC00096688
REMARK                            x       y       z     vdW  Elec       q    Type
REMARK                         _______ _______ _______ _____ _____    ______ ____
ROOT
ATOM      1  C   LIG    1        3.711  -0.707  -0.038  0.00  0.00    +0.152 C 
ENDROOT
BRANCH   1   2
ATOM      2  N   LIG    1        4.152  -0.952   1.338  0.00  0.00    -0.231 N 
ATOM      3  C   LIG    1        4.917  -0.120   2.067  0.00  0.00    +0.246 C 
ATOM      4  C   LIG    1        5.136  -0.732   3.397  0.00  0.00    +0.073 C 
ATOM      5  C   LIG    1        4.486  -1.907   3.395  0.00  0.00    +0.073 C 
ATOM      6  O   LIG    1        5.353   0.951   1.698  0.00  0.00    -0.270 OA
ATOM      7  C   LIG    1        3.849  -2.042   2.067  0.00  0.00    +0.246 C 
ATOM      8  O   LIG    1        3.169  -2.977   1.697  0.00  0.00    -0.270 OA
ENDBRANCH   1   2
BRANCH   1  12
ATOM      9  C   LIG    1       -0.017   1.378   0.010  0.00  0.00    +0.000 A 
ATOM     10  C   LIG    1        1.171   2.086   0.002  0.00  0.00    +0.000 A 
ATOM     11  C   LIG    1        2.377   1.411  -0.013  0.00  0.00    +0.005 A 
ATOM     12  C   LIG    1        2.396   0.029  -0.020  0.00  0.00    -0.030 A 
ATOM     13  C   LIG    1        1.208  -0.679  -0.012  0.00  0.00    +0.005 A 
ATOM     14  C   LIG    1        0.002  -0.004   0.002  0.00  0.00    +0.000 A 
ENDBRANCH   1  12
TORSDOF 2
