REMARK  Name = ZINC00157595
REMARK                            x       y       z     vdW  Elec       q    Type
REMARK                         _______ _______ _______ _____ _____    ______ ____
ROOT
ATOM      1  C   LIG    1       -0.359   2.779   1.818  0.00  0.00    +0.004 A 
ATOM      2  C   LIG    1       -1.009   3.228   2.953  0.00  0.00    +0.038 A 
ATOM      3  C   LIG    1       -2.012   2.463   3.524  0.00  0.00    +0.123 A 
ATOM      4  F   LIG    1       -2.644   2.899   4.635  0.00  0.00    -0.205 F 
ATOM      5  C   LIG    1       -2.367   1.252   2.955  0.00  0.00    +0.038 A 
ATOM      6  C   LIG    1       -1.719   0.807   1.817  0.00  0.00    +0.004 A 
ATOM      7  C   LIG    1       -0.718   1.572   1.248  0.00  0.00    -0.065 A 
ENDROOT
BRANCH   7   8
ATOM      8  C   LIG    1       -0.013   1.086   0.008  0.00  0.00    -0.051 C 
BRANCH   8   9
ATOM      9  N   LIG    1       -0.721   1.597  -1.179  0.00  0.00    +0.381 N 
ATOM     10  H   LIG    1       -0.694   2.624  -1.171  0.00  0.00    -0.090 HD
ATOM     11  H   LIG    1       -1.692   1.290  -1.166  0.00  0.00    -0.090 HD
ATOM     12  H   LIG    1       -0.269   1.260  -2.027  0.00  0.00    -0.090 HD
ENDBRANCH   8   9
ENDBRANCH   7   8
TORSDOF 2
