REMARK  Name = ZINC00246644
REMARK                            x       y       z     vdW  Elec       q    Type
REMARK                         _______ _______ _______ _____ _____    ______ ____
ROOT
ATOM      1  C   LIG    1        2.585  -2.543   4.292  0.00  0.00    +0.080 A 
ATOM      2  C   LIG    1        2.392  -3.880   4.491  0.00  0.00    +0.076 A 
ATOM      3  S   LIG    1        3.178  -4.095   6.083  0.00  0.00    -0.060 S 
ATOM      4  C   LIG    1        3.679  -2.395   6.316  0.00  0.00    +0.163 A 
ATOM      5  N   LIG    1        3.229  -1.834   5.208  0.00  0.00    -0.225 NA
ENDROOT
BRANCH   1   9
ATOM      6  C   LIG    1        1.148  -0.672   0.752  0.00  0.00    +0.120 A 
ATOM      7  C   LIG    1        1.821   0.077   1.707  0.00  0.00    +0.046 A 
ATOM      8  C   LIG    1        2.288  -0.526   2.856  0.00  0.00    +0.013 A 
ATOM      9  C   LIG    1        2.084  -1.891   3.057  0.00  0.00    +0.001 A 
ATOM     10  C   LIG    1        1.407  -2.640   2.096  0.00  0.00    +0.013 A 
ATOM     11  C   LIG    1        0.938  -2.030   0.952  0.00  0.00    +0.046 A 
BRANCH   6  13
ATOM     12  C   LIG    1        0.940   1.325  -0.521  0.00  0.00    +0.277 C 
ATOM     13  O   LIG    1        0.689  -0.075  -0.379  0.00  0.00    -0.495 OA
ENDBRANCH   6  13
ENDBRANCH   1   9
BRANCH   4  14
ATOM     14  N   LIG    1        4.362  -1.820   7.376  0.00  0.00    -0.294 N 
ATOM     15  H   LIG    1        4.492  -0.859   7.404  0.00  0.00    +0.154 HD
BRANCH  14  16
ATOM     16  C   LIG    1        4.863  -2.625   8.406  0.00  0.00    +0.033 A 
ATOM     17  C   LIG    1        5.415  -3.865   8.112  0.00  0.00    +0.027 A 
ATOM     18  C   LIG    1        5.909  -4.658   9.128  0.00  0.00    +0.047 A 
ATOM     19  C   LIG    1        5.853  -4.218  10.443  0.00  0.00    +0.117 A 
ATOM     20  C   LIG    1        5.302  -2.979  10.737  0.00  0.00    +0.047 A 
ATOM     21  C   LIG    1        4.813  -2.182   9.721  0.00  0.00    +0.027 A 
BRANCH  19  22
ATOM     22  O   LIG    1        6.339  -5.000  11.443  0.00  0.00    -0.507 OA
ATOM     23  H   LIG    1        7.274  -4.851  11.640  0.00  0.00    +0.292 HD
ENDBRANCH  19  22
ENDBRANCH  14  16
ENDBRANCH   4  14
TORSDOF 5
