REMARK  Name = ZINC00100791
REMARK                            x       y       z     vdW  Elec       q    Type
REMARK                         _______ _______ _______ _____ _____    ______ ____
ROOT
ATOM      1  N   LIG    1       -0.069   5.243   0.029  0.00  0.00    -0.285 N 
ATOM      2  H   LIG    1        0.761   5.739   0.101  0.00  0.00    +0.155 HD
ATOM      3  C   LIG    1       -1.242   5.902  -0.058  0.00  0.00    +0.227 C 
ATOM      4  O   LIG    1       -2.286   5.284  -0.050  0.00  0.00    -0.275 OA
ENDROOT
BRANCH   1   6
ATOM      5  C   LIG    1        0.908   3.155   0.749  0.00  0.00    +0.043 A 
ATOM      6  C   LIG    1       -0.050   3.844   0.017  0.00  0.00    +0.036 A 
ATOM      7  C   LIG    1       -0.989   3.142  -0.727  0.00  0.00    +0.043 A 
ATOM      8  C   LIG    1       -0.968   1.760  -0.738  0.00  0.00    +0.044 A 
ATOM      9 CL   LIG    1       -2.141   0.882  -1.668  0.00  0.00    -0.083 Cl
ATOM     10  C   LIG    1       -0.012   1.076  -0.007  0.00  0.00    +0.040 A 
ATOM     11  C   LIG    1        0.921   1.773   0.740  0.00  0.00    +0.044 A 
ATOM     12 CL   LIG    1        2.114   0.911   1.661  0.00  0.00    -0.083 Cl
ENDBRANCH   1   6
BRANCH   3  13
ATOM     13  C   LIG    1       -1.256   7.405  -0.164  0.00  0.00    +0.165 C 
BRANCH  13  14
ATOM     14  S   LIG    1       -2.971   7.988  -0.264  0.00  0.00    -0.140 S 
BRANCH  14  15
ATOM     15  C   LIG    1       -2.815   9.791  -0.386  0.00  0.00    +0.189 C 
BRANCH  15  16
ATOM     16  C   LIG    1       -4.186  10.409  -0.477  0.00  0.00    +0.315 C 
ATOM     17  O   LIG    1       -5.168   9.705  -0.461  0.00  0.00    -0.250 OA
BRANCH  16  18
ATOM     18  O   LIG    1       -4.317  11.741  -0.575  0.00  0.00    -0.480 OA
ATOM     19  H   LIG    1       -3.555  12.287  -0.587  0.00  0.00    +0.295 HD
ENDBRANCH  16  18
ENDBRANCH  15  16
ENDBRANCH  14  15
ENDBRANCH  13  14
ENDBRANCH   3  13
TORSDOF 6
