REMARK  Name = ZINC00198826
REMARK                            x       y       z     vdW  Elec       q    Type
REMARK                         _______ _______ _______ _____ _____    ______ ____
ROOT
ATOM      1  C   LIG    1       -0.018   1.461   0.010  0.00  0.00    +0.154 C 
ATOM      2  N   LIG    1        0.002  -0.004   0.002  0.00  0.00    -0.292 N 
ATOM      3  C   LIG    1       -1.192  -0.716   0.004  0.00  0.00    +0.118 A 
ATOM      4  C   LIG    1       -1.151  -2.107  -0.004  0.00  0.00    +0.133 A 
ATOM      5  N   LIG    1       -2.450  -2.568   0.000  0.00  0.00    -0.346 N 
ATOM      6  C   LIG    1       -3.298  -1.490   0.010  0.00  0.00    +0.091 A 
ATOM      7  H   LIG    1       -2.720  -3.500  -0.003  0.00  0.00    +0.166 HD
ATOM      8  C   LIG    1        0.109  -2.750  -0.013  0.00  0.00    +0.280 A 
ATOM      9  N   LIG    1        1.232  -2.004  -0.015  0.00  0.00    -0.262 N 
ATOM     10  C   LIG    1        2.537  -2.671  -0.025  0.00  0.00    +0.157 C 
ATOM     11  O   LIG    1        0.178  -3.966  -0.021  0.00  0.00    -0.265 OA
ATOM     12  C   LIG    1       -2.541  -0.338   0.013  0.00  0.00    +0.167 A 
ATOM     13  C   LIG    1        1.177  -0.661  -0.013  0.00  0.00    +0.332 A 
ATOM     14  O   LIG    1        2.213  -0.025  -0.020  0.00  0.00    -0.246 OA
ENDROOT
BRANCH   6  15
ATOM     15  C   LIG    1       -4.774  -1.553   0.017  0.00  0.00    +0.002 A 
ATOM     16  C   LIG    1       -5.514  -0.730  -0.834  0.00  0.00    +0.010 A 
ATOM     17  C   LIG    1       -6.892  -0.794  -0.823  0.00  0.00    +0.001 A 
ATOM     18  C   LIG    1       -7.540  -1.671   0.028  0.00  0.00    +0.000 A 
ATOM     19  C   LIG    1       -6.813  -2.490   0.874  0.00  0.00    +0.001 A 
ATOM     20  C   LIG    1       -5.434  -2.441   0.869  0.00  0.00    +0.010 A 
ENDBRANCH   6  15
BRANCH  12  21
ATOM     21  O   LIG    1       -3.019   0.937   0.023  0.00  0.00    -0.503 OA
ATOM     22  H   LIG    1       -2.424   1.661   0.024  0.00  0.00    +0.292 HD
ENDBRANCH  12  21
TORSDOF 2
