REMARK  Name = ZINC00346307
REMARK                            x       y       z     vdW  Elec       q    Type
REMARK                         _______ _______ _______ _____ _____    ______ ____
ROOT
ATOM      1  C   LIG    1        0.298  -0.001  -2.498  0.00  0.00    +0.066 C 
ATOM      2  C   LIG    1        0.331  -0.720  -1.174  0.00  0.00    +0.047 A 
ATOM      3  C   LIG    1        0.164  -0.019   0.005  0.00  0.00    +0.017 A 
ATOM      4  C   LIG    1        0.195  -0.725   1.210  0.00  0.00    +0.130 A 
ATOM      5  N   LIG    1        0.388  -2.039   1.183  0.00  0.00    -0.212 NA
ATOM      6  C   LIG    1        0.549  -2.674   0.030  0.00  0.00    +0.162 A 
ATOM      7  N   LIG    1        0.525  -2.029  -1.128  0.00  0.00    -0.232 NA
ENDROOT
BRANCH   6   8
ATOM      8  C   LIG    1        0.763  -4.141   0.036  0.00  0.00    +0.019 A 
ATOM      9  C   LIG    1        0.799  -4.838   1.243  0.00  0.00    +0.011 A 
ATOM     10  C   LIG    1        0.993  -6.204   1.242  0.00  0.00    +0.001 A 
ATOM     11  C   LIG    1        1.163  -6.881   0.048  0.00  0.00    +0.000 A 
ATOM     12  C   LIG    1        1.134  -6.194  -1.152  0.00  0.00    +0.001 A 
ATOM     13  C   LIG    1        0.935  -4.828  -1.164  0.00  0.00    +0.011 A 
ENDBRANCH   6   8
BRANCH   4  14
ATOM     14  N   LIG    1        0.026  -0.064   2.418  0.00  0.00    -0.299 N 
ATOM     15  H   LIG    1       -0.033   0.904   2.437  0.00  0.00    +0.154 HD
BRANCH  14  16
ATOM     16  C   LIG    1       -0.058  -0.789   3.603  0.00  0.00    +0.032 A 
ATOM     17  C   LIG    1       -0.654  -2.047   3.606  0.00  0.00    +0.024 A 
ATOM     18  C   LIG    1       -0.734  -2.769   4.775  0.00  0.00    +0.017 A 
ATOM     19  C   LIG    1       -0.225  -2.234   5.962  0.00  0.00    +0.059 A 
ATOM     20  C   LIG    1        0.368  -0.967   5.956  0.00  0.00    +0.017 A 
ATOM     21  C   LIG    1        0.450  -0.253   4.783  0.00  0.00    +0.024 A 
BRANCH  19  22
ATOM     22  C   LIG    1       -0.314  -3.002   7.217  0.00  0.00    +0.337 C 
ATOM     23  O   LIG    1        0.129  -2.535   8.248  0.00  0.00    -0.245 OA
BRANCH  22  24
ATOM     24  O   LIG    1       -0.885  -4.222   7.221  0.00  0.00    -0.477 OA
ATOM     25  H   LIG    1       -1.227  -4.582   6.426  0.00  0.00    +0.295 HD
ENDBRANCH  22  24
ENDBRANCH  19  22
ENDBRANCH  14  16
ENDBRANCH   4  14
BRANCH   3  26
ATOM     26  C   LIG    1       -0.053   1.472  -0.008  0.00  0.00    +0.067 C 
BRANCH  26  27
ATOM     27  C   LIG    1        1.278   2.174   0.071  0.00  0.00    -0.030 C 
ATOM     28  C   LIG    1        1.610   3.054  -0.841  0.00  0.00    +0.004 C 
ENDBRANCH  26  27
ENDBRANCH   3  26
TORSDOF 7
