REMARK  Name = ZINC00288567
REMARK                            x       y       z     vdW  Elec       q    Type
REMARK                         _______ _______ _______ _____ _____    ______ ____
ROOT
ATOM      1  C   LIG    1        3.585  -4.845  -0.057  0.00  0.00    +0.139 C 
ATOM      2  N   LIG    1        2.449  -4.215  -0.051  0.00  0.00    -0.187 NA
ENDROOT
BRANCH   1  11
ATOM      3  C   LIG    1        0.062  -8.598   0.271  0.00  0.00    +0.001 A 
ATOM      4  C   LIG    1       -0.002  -7.207   0.283  0.00  0.00    +0.001 A 
ATOM      5  C   LIG    1        1.128  -6.453   0.176  0.00  0.00    +0.009 A 
ATOM      6  C   LIG    1        2.372  -7.084   0.059  0.00  0.00    -0.009 A 
ATOM      7  C   LIG    1        2.441  -8.498   0.042  0.00  0.00    -0.017 A 
ATOM      8  C   LIG    1        3.691  -9.128  -0.082  0.00  0.00    +0.008 A 
ATOM      9  C   LIG    1        4.831  -8.393  -0.190  0.00  0.00    +0.001 A 
ATOM     10  C   LIG    1        4.811  -7.005  -0.184  0.00  0.00    +0.010 A 
ATOM     11  C   LIG    1        3.610  -6.316  -0.065  0.00  0.00    +0.002 A 
ATOM     12  C   LIG    1        1.254  -9.244   0.154  0.00  0.00    +0.008 A 
ENDBRANCH   1  11
BRANCH   2  13
ATOM     13  N   LIG    1        2.426  -2.814  -0.043  0.00  0.00    -0.203 N 
ATOM     14  H   LIG    1        3.258  -2.315  -0.043  0.00  0.00    +0.178 HD
ATOM     15  C   LIG    1        1.248  -2.159  -0.037  0.00  0.00    +0.263 C 
ATOM     16  O   LIG    1        0.204  -2.785  -0.037  0.00  0.00    -0.268 OA
BRANCH  15  17
ATOM     17  C   LIG    1        1.223  -0.684  -0.029  0.00  0.00    +0.039 A 
ATOM     18  C   LIG    1        0.002  -0.004  -0.022  0.00  0.00    +0.016 A 
ATOM     19  C   LIG    1       -0.017   1.373  -0.014  0.00  0.00    +0.046 A 
ATOM     20  C   LIG    1        1.176   2.086  -0.014  0.00  0.00    +0.117 A 
ATOM     21  C   LIG    1        2.393   1.413  -0.021  0.00  0.00    +0.046 A 
ATOM     22  C   LIG    1        2.420   0.037  -0.028  0.00  0.00    +0.016 A 
BRANCH  20  23
ATOM     23  O   LIG    1        1.154   3.443  -0.006  0.00  0.00    -0.507 OA
ATOM     24  H   LIG    1        1.149   3.832   0.879  0.00  0.00    +0.292 HD
ENDBRANCH  20  23
ENDBRANCH  15  17
ENDBRANCH   2  13
TORSDOF 4
