REMARK  Name = ZINC00164954
REMARK                            x       y       z     vdW  Elec       q    Type
REMARK                         _______ _______ _______ _____ _____    ______ ____
ROOT
ATOM      1  C   LIG    1       -0.017   1.386   0.010  0.00  0.00    +0.022 A 
ATOM      2  C   LIG    1        1.158   2.104   0.002  0.00  0.00    +0.027 A 
ATOM      3  C   LIG    1        2.379   1.435  -0.013  0.00  0.00    +0.047 A 
ATOM      4  C   LIG    1        2.396   0.025  -0.021  0.00  0.00    +0.002 A 
ATOM      5  C   LIG    1        3.753  -0.372  -0.036  0.00  0.00    +0.042 A 
ATOM      6  CA  LIG    1        4.515   0.756  -0.038  0.00  0.00    +0.125 A 
ATOM      7  C   LIG    1        1.187  -0.683  -0.012  0.00  0.00    +0.030 A 
ATOM      8  N   LIG    1        3.685   1.862  -0.024  0.00  0.00    -0.349 N 
ATOM      9  H   LIG    1        3.977   2.787  -0.021  0.00  0.00    +0.166 HD
ATOM     10  C   LIG    1        0.002  -0.004   0.002  0.00  0.00    +0.042 A 
ATOM     11 CL   LIG    1       -1.494  -0.885   0.012  0.00  0.00    -0.084 Cl
ENDROOT
BRANCH   6  12
ATOM     12  C   LIG    1        5.981   0.793  -0.052  0.00  0.00    +0.353 C 
ATOM     13  O   LIG    1        6.566   1.868  -0.052  0.00  0.00    -0.243 OA
BRANCH  12  14
ATOM     14  OXT LIG    1        6.619  -0.252  -0.064  0.00  0.00    -0.476 OA
ATOM     15  HXT LIG    1        6.171  -1.074  -0.064  0.00  0.00    +0.295 HD
ENDBRANCH  12  14
ENDBRANCH   6  12
TORSDOF 2
