REMARK  Name = ZINC00205303
REMARK                            x       y       z     vdW  Elec       q    Type
REMARK                         _______ _______ _______ _____ _____    ______ ____
ROOT
ATOM      1  C   LIG    1       -1.364   3.536   2.413  0.00  0.00    +0.128 A 
ATOM      2  C   LIG    1       -0.848   3.191   3.658  0.00  0.00    +0.087 A 
ATOM      3  C   LIG    1       -1.461   3.708   4.796  0.00  0.00    +0.123 A 
ATOM      4  N   LIG    1       -2.520   4.502   4.657  0.00  0.00    -0.200 NA
ATOM      5  C   LIG    1       -2.987   4.804   3.455  0.00  0.00    +0.216 A 
ATOM      6  N   LIG    1       -2.426   4.335   2.351  0.00  0.00    -0.200 NA
ENDROOT
BRANCH   1  12
ATOM      7  C   LIG    1       -0.109   1.057  -2.412  0.00  0.00    -0.096 C 
ATOM      8  N   LIG    1       -0.751   1.564  -1.180  0.00  0.00    +0.380 N 
ATOM      9  H   LIG    1       -1.715   1.213  -1.138  0.00  0.00    -0.082 HD
ATOM     10  C   LIG    1       -0.777   3.042  -1.196  0.00  0.00    -0.060 C 
ATOM     11  C   LIG    1       -1.495   3.536   0.062  0.00  0.00    +0.088 C 
ATOM     12  N   LIG    1       -0.783   3.048   1.252  0.00  0.00    -0.319 N 
ATOM     13  C   LIG    1       -0.730   1.580   1.267  0.00  0.00    +0.088 C 
ATOM     14  C   LIG    1       -0.013   1.086   0.008  0.00  0.00    -0.060 C 
ENDBRANCH   1  12
BRANCH   3  15
ATOM     15  N   LIG    1       -0.978   3.395   6.057  0.00  0.00    -0.343 N 
ATOM     16  H   LIG    1       -0.206   2.816   6.151  0.00  0.00    +0.144 HD
ATOM     17  H   LIG    1       -1.413   3.756   6.846  0.00  0.00    +0.144 HD
ENDBRANCH   3  15
BRANCH   5  18
ATOM     18  N   LIG    1       -4.091   5.633   3.350  0.00  0.00    -0.327 N 
ATOM     19  H   LIG    1       -4.511   5.984   4.151  0.00  0.00    +0.145 HD
ATOM     20  H   LIG    1       -4.443   5.864   2.477  0.00  0.00    +0.145 HD
ENDBRANCH   5  18
TORSDOF 3
