REMARK  Name = ZINC00302143
REMARK                            x       y       z     vdW  Elec       q    Type
REMARK                         _______ _______ _______ _____ _____    ______ ____
ROOT
ATOM      1  C   LIG    1       -1.305   2.117   0.019  0.00  0.00    +0.248 C 
ATOM      2  N   LIG    1       -1.320   3.464   0.027  0.00  0.00    -0.280 N 
ATOM      3  H   LIG    1       -0.488   3.958   0.100  0.00  0.00    +0.155 HD
ATOM      4  O   LIG    1       -2.351   1.497   0.014  0.00  0.00    -0.270 OA
ENDROOT
BRANCH   2   5
ATOM      5  C   LIG    1       -2.534   4.151  -0.069  0.00  0.00    +0.053 A 
ATOM      6  C   LIG    1       -3.673   3.635   0.521  0.00  0.00    +0.035 A 
ATOM      7  C   LIG    1       -4.869   4.363   0.397  0.00  0.00    +0.002 A 
ATOM      8  C   LIG    1       -6.067   3.902   0.969  0.00  0.00    +0.010 A 
ATOM      9  C   LIG    1       -7.206   4.634   0.828  0.00  0.00    +0.001 A 
ATOM     10  C   LIG    1       -7.200   5.836   0.122  0.00  0.00    +0.002 A 
ATOM     11  C   LIG    1       -6.058   6.312  -0.446  0.00  0.00    +0.028 A 
ATOM     12  C   LIG    1       -4.861   5.585  -0.322  0.00  0.00    +0.071 A 
ATOM     13  N   LIG    1       -3.727   6.031  -0.871  0.00  0.00    -0.253 NA
ATOM     14  C   LIG    1       -2.603   5.367  -0.758  0.00  0.00    +0.134 A 
ENDBRANCH   2   5
BRANCH   1  18
ATOM     15  C   LIG    1        2.397   0.034  -0.000  0.00  0.00    -0.042 A 
ATOM     16  C   LIG    1        1.208  -0.674  -0.000  0.00  0.00    +0.005 A 
ATOM     17  C   LIG    1        0.002  -0.004   0.008  0.00  0.00    +0.013 A 
ATOM     18  C   LIG    1       -0.017   1.392   0.016  0.00  0.00    +0.037 A 
ATOM     19  C   LIG    1        1.186   2.100   0.016  0.00  0.00    +0.013 A 
ATOM     20  C   LIG    1        2.385   1.417   0.008  0.00  0.00    +0.005 A 
BRANCH  15  22
ATOM     21  C   LIG    1        3.796  -1.576  -1.264  0.00  0.00    +0.015 C 
ATOM     22  C   LIG    1        3.710  -0.705  -0.009  0.00  0.00    -0.013 C 
ATOM     23  C   LIG    1        3.805  -1.591   1.234  0.00  0.00    +0.015 C 
ATOM     24  C   LIG    1        4.862   0.302  -0.007  0.00  0.00    +0.015 C 
ENDBRANCH  15  22
ENDBRANCH   1  18
TORSDOF 3
