REMARK  Name = ZINC00089763
REMARK                            x       y       z     vdW  Elec       q    Type
REMARK                         _______ _______ _______ _____ _____    ______ ____
ROOT
ATOM      1  S   LIG    1       -0.738  -4.787  -0.022  0.00  0.00    +0.074 S 
ATOM      2  O   LIG    1       -0.062  -4.933   1.218  0.00  0.00    -0.150 OA
ATOM      3  O   LIG    1       -0.075  -4.918  -1.272  0.00  0.00    -0.150 OA
ENDROOT
BRANCH   1   4
ATOM      4  C   LIG    1       -2.050  -5.963  -0.022  0.00  0.00    +0.109 A 
ATOM      5  C   LIG    1       -2.562  -6.426   1.176  0.00  0.00    +0.030 A 
ATOM      6  C   LIG    1       -3.590  -7.347   1.180  0.00  0.00    +0.024 A 
ATOM      7  C   LIG    1       -4.111  -7.809  -0.022  0.00  0.00    +0.025 A 
ATOM      8  C   LIG    1       -3.595  -7.342  -1.224  0.00  0.00    +0.024 A 
ATOM      9  C   LIG    1       -2.571  -6.416  -1.221  0.00  0.00    +0.030 A 
BRANCH   7  10
ATOM     10  N   LIG    1       -5.151  -8.742  -0.022  0.00  0.00    -0.358 N 
ATOM     11  H   LIG    1       -5.514  -9.064  -0.862  0.00  0.00    +0.142 HD
ATOM     12  H   LIG    1       -5.510  -9.068   0.818  0.00  0.00    +0.142 HD
ENDBRANCH   7  10
ENDBRANCH   1   4
BRANCH   1  13
ATOM     13  N   LIG    1       -1.430  -3.282  -0.010  0.00  0.00    -0.197 N 
ATOM     14  H   LIG    1       -2.410  -3.190  -0.004  0.00  0.00    +0.175 HD
BRANCH  13  18
ATOM     15  C   LIG    1       -0.018   1.503   0.010  0.00  0.00    +0.089 C 
ATOM     16  C   LIG    1        0.002  -0.004   0.002  0.00  0.00    +0.136 A 
ATOM     17  C   LIG    1       -1.076  -0.807   0.003  0.00  0.00    +0.092 A 
ATOM     18  C   LIG    1       -0.625  -2.147  -0.008  0.00  0.00    +0.181 A 
ATOM     19  N   LIG    1        0.684  -2.130  -0.014  0.00  0.00    -0.062 NA
ATOM     20  O   LIG    1        1.100  -0.776  -0.013  0.00  0.00    -0.358 OA
ENDBRANCH  13  18
ENDBRANCH   1  13
TORSDOF 4
