REMARK  Name = ZINC00245008
REMARK                            x       y       z     vdW  Elec       q    Type
REMARK                         _______ _______ _______ _____ _____    ______ ____
ROOT
ATOM      1  C   LIG    1        2.390   0.047  -0.006  0.00  0.00    +0.109 A 
ATOM      2  C   LIG    1        1.433  -0.253  -0.935  0.00  0.00    +0.112 A 
ATOM      3  C   LIG    1        0.199   0.414  -0.881  0.00  0.00    +0.256 A 
ATOM      4  N   LIG    1       -0.020   1.333   0.080  0.00  0.00    -0.275 N 
ATOM      5  C   LIG    1        0.933   1.615   0.986  0.00  0.00    +0.328 A 
ATOM      6  O   LIG    1        0.715   2.448   1.845  0.00  0.00    -0.247 OA
ATOM      7  H   LIG    1       -0.899   1.808   0.120  0.00  0.00    +0.173 HD
ATOM      8  O   LIG    1       -0.670   0.163  -1.699  0.00  0.00    -0.268 OA
ATOM      9  N   LIG    1        2.125   0.991   0.956  0.00  0.00    -0.296 N 
ATOM     10  H   LIG    1        2.821   1.215   1.639  0.00  0.00    +0.172 HD
ENDROOT
BRANCH   1  11
ATOM     11  N   LIG    1        3.606  -0.589  -0.035  0.00  0.00    -0.301 N 
ATOM     12  H   LIG    1        3.649  -1.557   0.023  0.00  0.00    +0.154 HD
BRANCH  11  19
ATOM     13  C   LIG    1        4.731   1.545  -0.147  0.00  0.00    +0.024 A 
ATOM     14  C   LIG    1        5.896   2.279  -0.252  0.00  0.00    +0.017 A 
ATOM     15  C   LIG    1        7.114   1.634  -0.371  0.00  0.00    +0.018 A 
ATOM     16 BR   LIG    1        8.706   2.643  -0.522  0.00  0.00    -0.050 Br
ATOM     17  C   LIG    1        7.169   0.251  -0.379  0.00  0.00    +0.017 A 
ATOM     18  C   LIG    1        6.008  -0.488  -0.268  0.00  0.00    +0.024 A 
ATOM     19  C   LIG    1        4.784   0.157  -0.148  0.00  0.00    +0.032 A 
ENDBRANCH  11  19
ENDBRANCH   1  11
TORSDOF 2
