REMARK  Name = ZINC00271983
REMARK                            x       y       z     vdW  Elec       q    Type
REMARK                         _______ _______ _______ _____ _____    ______ ____
ROOT
ATOM      1  C   LIG    1        2.216   0.973  -0.969  0.00  0.00    -0.095 C 
ATOM      2  N   LIG    1        1.318   1.684  -0.003  0.00  0.00    +0.382 N 
ATOM      3  H   LIG    1        1.731   1.641   0.936  0.00  0.00    -0.081 HD
ATOM      4  C   LIG    1        1.129   3.080  -0.409  0.00  0.00    -0.065 C 
ATOM      5  C   LIG    1        0.482   3.799   0.786  0.00  0.00    +0.029 C 
ATOM      6  C   LIG    1       -0.890   3.174   1.057  0.00  0.00    +0.174 C 
ATOM      7  C   LIG    1       -0.738   1.648   1.241  0.00  0.00    +0.029 C 
ATOM      8  C   LIG    1        0.072   2.986  -1.533  0.00  0.00    -0.017 C 
ATOM      9  C   LIG    1       -0.682   1.668  -1.258  0.00  0.00    -0.017 C 
ATOM     10  C   LIG    1       -0.013   1.086   0.008  0.00  0.00    -0.065 C 
ENDROOT
BRANCH   6  11
ATOM     11  O   LIG    1       -1.774   3.446  -0.063  0.00  0.00    -0.458 OA
BRANCH  11  12
ATOM     12  C   LIG    1       -3.090   3.550   0.208  0.00  0.00    +0.339 C 
ATOM     13  O   LIG    1       -3.487   3.418   1.348  0.00  0.00    -0.245 OA
BRANCH  12  14
ATOM     14  C   LIG    1       -4.048   3.825  -0.881  0.00  0.00    +0.059 A 
ATOM     15  C   LIG    1       -3.594   3.984  -2.192  0.00  0.00    +0.015 A 
ATOM     16  C   LIG    1       -4.496   4.235  -3.205  0.00  0.00    +0.001 A 
ATOM     17  C   LIG    1       -5.846   4.342  -2.924  0.00  0.00    +0.000 A 
ATOM     18  C   LIG    1       -6.303   4.192  -1.626  0.00  0.00    +0.001 A 
ATOM     19  C   LIG    1       -5.413   3.934  -0.604  0.00  0.00    +0.015 A 
ENDBRANCH  12  14
ENDBRANCH  11  12
ENDBRANCH   6  11
TORSDOF 3
