REMARK  Name = ZINC00155006
REMARK                            x       y       z     vdW  Elec       q    Type
REMARK                         _______ _______ _______ _____ _____    ______ ____
ROOT
ATOM      1  C   LIG    1       -0.018   1.465   0.015  0.00  0.00    -0.092 C 
ATOM      2  N   LIG    1        0.002  -0.004  -0.009  0.00  0.00    +0.378 N 
ATOM      3  C   LIG    1       -1.377  -0.510  -0.006  0.00  0.00    -0.092 C 
ATOM      4  C   LIG    1        0.686  -0.463  -1.225  0.00  0.00    -0.057 C 
ATOM      5  C   LIG    1        2.086   0.156  -1.287  0.00  0.00    +0.087 C 
ATOM      6  N   LIG    1        2.792  -0.162  -0.036  0.00  0.00    -0.333 N 
ATOM      7  C   LIG    1        2.108   0.116   1.236  0.00  0.00    +0.087 C 
ATOM      8  C   LIG    1        0.707  -0.502   1.179  0.00  0.00    -0.057 C 
ENDROOT
BRANCH   6   9
ATOM      9  C   LIG    1        4.076  -0.712  -0.057  0.00  0.00    +0.030 A 
ATOM     10  C   LIG    1        4.660  -1.072  -1.265  0.00  0.00    +0.023 A 
ATOM     11  C   LIG    1        5.930  -1.615  -1.281  0.00  0.00    +0.002 A 
ATOM     12  C   LIG    1        6.619  -1.802  -0.097  0.00  0.00    +0.000 A 
ATOM     13  C   LIG    1        6.040  -1.446   1.107  0.00  0.00    +0.002 A 
ATOM     14  C   LIG    1        4.773  -0.897   1.131  0.00  0.00    +0.023 A 
ENDBRANCH   6   9
TORSDOF 1
