REMARK  Name = ZINC00196523
REMARK                            x       y       z     vdW  Elec       q    Type
REMARK                         _______ _______ _______ _____ _____    ______ ____
ROOT
ATOM      1  C   LIG    1       -0.017   1.379   0.010  0.00  0.00    +0.017 A 
ATOM      2  C   LIG    1        1.172   2.080   0.002  0.00  0.00    +0.024 A 
ATOM      3  C   LIG    1        2.385   1.400  -0.010  0.00  0.00    +0.032 A 
ATOM      4  C   LIG    1        2.406   0.013  -0.005  0.00  0.00    -0.018 A 
ATOM      5  C   LIG    1        3.686  -0.751   0.022  0.00  0.00    +0.049 C 
ATOM      6  C   LIG    1        4.025  -1.340  -1.323  0.00  0.00    -0.023 C 
ATOM      7  C   LIG    1        5.319  -1.308  -1.519  0.00  0.00    -0.030 C 
ATOM      8  C   LIG    1        6.029  -0.689  -0.335  0.00  0.00    +0.033 C 
ATOM      9  C   LIG    1        4.910   0.076   0.408  0.00  0.00    +0.035 C 
ATOM     10  CA  LIG    1        4.878   1.496  -0.118  0.00  0.00    +0.184 C 
ATOM     11  C   LIG    1        1.206  -0.682  -0.006  0.00  0.00    +0.021 A 
ATOM     12  N   LIG    1        3.574   2.120  -0.037  0.00  0.00    -0.331 N 
ATOM     13  H   LIG    1        3.526   3.089  -0.023  0.00  0.00    +0.147 HD
ATOM     14  C   LIG    1        0.002  -0.004   0.002  0.00  0.00    +0.018 A 
ATOM     15 BR   LIG    1       -1.624  -0.969   0.003  0.00  0.00    -0.050 Br
ENDROOT
BRANCH  10  16
ATOM     16  C   LIG    1        5.835   2.330   0.695  0.00  0.00    +0.326 C 
ATOM     17  O   LIG    1        6.999   2.435   0.348  0.00  0.00    -0.249 OA
BRANCH  16  18
ATOM     18  OXT LIG    1        5.444   2.901   1.699  0.00  0.00    -0.479 OA
ATOM     19  HXT LIG    1        4.550   2.820   1.965  0.00  0.00    +0.295 HD
ENDBRANCH  16  18
ENDBRANCH  10  16
TORSDOF 2
