REMARK  Name = ZINC00113355
REMARK                            x       y       z     vdW  Elec       q    Type
REMARK                         _______ _______ _______ _____ _____    ______ ____
ROOT
ATOM      1  C   LIG    1       -1.355  -2.042   0.004  0.00  0.00    +0.128 C 
ENDROOT
BRANCH   1   2
ATOM      2  C   LIG    1       -2.769  -2.564   0.015  0.00  0.00    -0.018 A 
ATOM      3  C   LIG    1       -3.463  -2.704  -1.173  0.00  0.00    +0.006 A 
ATOM      4  C   LIG    1       -4.760  -3.182  -1.167  0.00  0.00    +0.004 A 
ATOM      5  C   LIG    1       -5.367  -3.521   0.027  0.00  0.00    +0.045 A 
ATOM      6  C   LIG    1       -4.673  -3.381   1.220  0.00  0.00    +0.117 A 
ATOM      7  C   LIG    1       -3.369  -2.907   1.211  0.00  0.00    +0.051 A 
BRANCH   6   8
ATOM      8  O   LIG    1       -5.267  -3.714   2.396  0.00  0.00    -0.507 OA
ATOM      9  H   LIG    1       -5.136  -4.636   2.657  0.00  0.00    +0.292 HD
ENDBRANCH   6   8
ENDBRANCH   1   2
BRANCH   1  10
ATOM     10  O   LIG    1       -0.686  -2.503  -1.172  0.00  0.00    -0.389 OA
ATOM     11  H   LIG    1       -1.102  -2.219  -1.997  0.00  0.00    +0.210 HD
ENDBRANCH   1  10
BRANCH   1  12
ATOM     12  C   LIG    1       -1.376  -0.512   0.012  0.00  0.00    -0.046 C 
BRANCH  12  14
ATOM     13  C   LIG    1       -0.018   1.465   0.010  0.00  0.00    -0.100 C 
ATOM     14  N   LIG    1        0.002  -0.004   0.002  0.00  0.00    +0.379 N 
ATOM     15  H   LIG    1        0.490  -0.338   0.820  0.00  0.00    -0.086 HD
ATOM     16  H   LIG    1        0.474  -0.330  -0.828  0.00  0.00    -0.086 HD
ENDBRANCH  12  14
ENDBRANCH   1  12
TORSDOF 5
