REMARK  Name = ZINC00264448
REMARK                            x       y       z     vdW  Elec       q    Type
REMARK                         _______ _______ _______ _____ _____    ______ ____
ROOT
ATOM      1  C   LIG    1       -1.228   1.746   0.017  0.00  0.00    +0.001 A 
ATOM      2  C   LIG    1       -0.013   1.076   0.008  0.00  0.00    +0.002 A 
ATOM      3  C   LIG    1        1.175   1.774   0.000  0.00  0.00    +0.027 A 
ATOM      4  C   LIG    1        1.159   3.165   0.008  0.00  0.00    +0.054 A 
ATOM      5  C   LIG    1       -0.075   3.840   0.023  0.00  0.00    +0.000 A 
ATOM      6  C   LIG    1        0.245   5.270   0.028  0.00  0.00    +0.028 A 
ATOM      7  C   LIG    1        1.583   5.374   0.016  0.00  0.00    +0.092 A 
ATOM      8  N   LIG    1        2.148   4.125   0.004  0.00  0.00    -0.316 N 
ATOM      9  C   LIG    1       -1.267   3.112   0.032  0.00  0.00    +0.010 A 
ENDROOT
BRANCH   8  10
ATOM     10  C   LIG    1        3.524   3.865  -0.010  0.00  0.00    +0.047 A 
ATOM     11  C   LIG    1        4.073   2.976   0.904  0.00  0.00    +0.027 A 
ATOM     12  C   LIG    1        5.430   2.717   0.886  0.00  0.00    +0.022 A 
ATOM     13  C   LIG    1        6.243   3.350  -0.037  0.00  0.00    +0.041 A 
ATOM     14 CL   LIG    1        7.949   3.028  -0.054  0.00  0.00    -0.084 Cl
ATOM     15  C   LIG    1        5.699   4.240  -0.947  0.00  0.00    +0.022 A 
ATOM     16  C   LIG    1        4.343   4.499  -0.935  0.00  0.00    +0.027 A 
ENDBRANCH   8  10
TORSDOF 1
