REMARK  Name = ZINC00110227
REMARK                            x       y       z     vdW  Elec       q    Type
REMARK                         _______ _______ _______ _____ _____    ______ ____
ROOT
ATOM      1  C   LIG    1       -0.144   2.166   5.335  0.00  0.00    +0.224 A 
ATOM      2  N   LIG    1        0.861   1.670   4.635  0.00  0.00    -0.220 NA
ATOM      3  C   LIG    1        0.772   1.450   3.332  0.00  0.00    +0.128 A 
ATOM      4  C   LIG    1       -0.444   1.758   2.664  0.00  0.00    +0.051 A 
ATOM      5  C   LIG    1       -0.767   1.599   1.238  0.00  0.00    -0.025 A 
ATOM      6  C   LIG    1       -2.000   1.970   0.850  0.00  0.00    -0.004 A 
ATOM      7  C   LIG    1       -2.218   1.766  -0.626  0.00  0.00    +0.043 C 
ATOM      8  C   LIG    1       -0.796   1.615  -1.209  0.00  0.00    +0.010 C 
ATOM      9  S   LIG    1       -2.799   2.541   2.333  0.00  0.00    -0.073 S 
ATOM     10  C   LIG    1       -0.013   1.086   0.008  0.00  0.00    +0.037 C 
ATOM     11  C   LIG    1       -1.468   2.282   3.473  0.00  0.00    +0.114 A 
ATOM     12  N   LIG    1       -1.295   2.470   4.768  0.00  0.00    -0.228 NA
ENDROOT
BRANCH   3  13
ATOM     13  N   LIG    1        1.846   0.929   2.633  0.00  0.00    -0.343 N 
ATOM     14  H   LIG    1        2.672   0.722   3.097  0.00  0.00    +0.144 HD
ATOM     15  H   LIG    1        1.772   0.771   1.679  0.00  0.00    +0.144 HD
ENDBRANCH   3  13
TORSDOF 1
