REMARK  Name = ZINC00141563
REMARK                            x       y       z     vdW  Elec       q    Type
REMARK                         _______ _______ _______ _____ _____    ______ ____
ROOT
ATOM      1  C   LIG    1       -2.533   1.387   0.021  0.00  0.00    +0.087 C 
ENDROOT
BRANCH   1   7
ATOM      2  C   LIG    1       -3.788   1.022  -2.119  0.00  0.00    +0.124 A 
ATOM      3  C   LIG    1       -4.438   1.505  -3.246  0.00  0.00    +0.046 A 
ATOM      4  C   LIG    1       -4.538   2.867  -3.453  0.00  0.00    +0.004 A 
ATOM      5  C   LIG    1       -3.991   3.749  -2.539  0.00  0.00    +0.001 A 
ATOM      6  C   LIG    1       -3.347   3.270  -1.413  0.00  0.00    +0.008 A 
ATOM      7  C   LIG    1       -3.240   1.908  -1.204  0.00  0.00    +0.005 A 
BRANCH   2   9
ATOM      8  C   LIG    1       -4.276  -1.171  -2.898  0.00  0.00    +0.277 C 
ATOM      9  O   LIG    1       -3.688  -0.318  -1.914  0.00  0.00    -0.495 OA
ENDBRANCH   2   9
ENDBRANCH   1   7
BRANCH   1  10
ATOM     10  C   LIG    1       -1.103   1.863   0.017  0.00  0.00    +0.112 A 
ATOM     11  C   LIG    1       -0.013   1.076   0.008  0.00  0.00    +0.045 A 
ATOM     12  C   LIG    1        1.111   1.934   0.002  0.00  0.00    +0.041 A 
ATOM     13  C   LIG    1        0.640   3.193   0.012  0.00  0.00    +0.195 A 
ATOM     14  O   LIG    1       -0.702   3.144   0.024  0.00  0.00    -0.467 OA
ENDBRANCH   1  10
BRANCH   1  15
ATOM     15  C   LIG    1       -3.240   1.904   1.276  0.00  0.00    -0.004 C 
BRANCH  15  16
ATOM     16  C   LIG    1       -4.652   1.320   1.343  0.00  0.00    -0.085 C 
BRANCH  16  17
ATOM     17  N   LIG    1       -5.330   1.841   2.543  0.00  0.00    +0.378 N 
ATOM     18  H   LIG    1       -5.404   2.862   2.472  0.00  0.00    -0.090 HD
ATOM     19  H   LIG    1       -4.795   1.604   3.377  0.00  0.00    -0.090 HD
ATOM     20  H   LIG    1       -6.265   1.444   2.616  0.00  0.00    -0.090 HD
ENDBRANCH  16  17
ENDBRANCH  15  16
ENDBRANCH   1  15
TORSDOF 6
