REMARK  Name = ZINC00119618
REMARK                            x       y       z     vdW  Elec       q    Type
REMARK                         _______ _______ _______ _____ _____    ______ ____
ROOT
ATOM      1  C   LIG    1        4.484  -8.921  -0.090  0.00  0.00    +0.001 A 
ATOM      2  C   LIG    1        5.457  -7.929  -0.094  0.00  0.00    +0.002 A 
ATOM      3  C   LIG    1        5.115  -6.615  -0.083  0.00  0.00    +0.028 A 
ATOM      4  C   LIG    1        3.756  -6.210  -0.068  0.00  0.00    +0.078 A 
ATOM      5  C   LIG    1        2.785  -7.226  -0.065  0.00  0.00    +0.054 A 
ATOM      6  C   LIG    1        1.332  -6.929  -0.050  0.00  0.00    +0.229 A 
ATOM      7  S   LIG    1        0.968  -5.180  -0.037  0.00  0.00    -0.011 S 
ATOM      8  C   LIG    1        2.454  -4.191  -0.045  0.00  0.00    +0.169 A 
ATOM      9  O   LIG    1        0.472  -7.792  -0.047  0.00  0.00    -0.279 OA
ATOM     10  N   LIG    1        3.571  -4.877  -0.065  0.00  0.00    -0.225 NA
ATOM     11  C   LIG    1        3.165  -8.575  -0.076  0.00  0.00    +0.014 A 
ENDROOT
BRANCH   8  12
ATOM     12  N   LIG    1        2.429  -2.812  -0.037  0.00  0.00    -0.261 N 
ATOM     13  H   LIG    1        3.260  -2.312  -0.042  0.00  0.00    +0.157 HD
ATOM     14  C   LIG    1        1.249  -2.160  -0.022  0.00  0.00    +0.250 C 
ATOM     15  O   LIG    1        0.208  -2.787  -0.016  0.00  0.00    -0.270 OA
BRANCH  14  16
ATOM     16  C   LIG    1        1.222  -0.683  -0.013  0.00  0.00    +0.037 A 
ATOM     17  C   LIG    1        0.002  -0.004   0.002  0.00  0.00    +0.014 A 
ATOM     18  C   LIG    1       -0.017   1.375   0.010  0.00  0.00    +0.021 A 
ATOM     19  C   LIG    1        1.172   2.086   0.002  0.00  0.00    +0.041 A 
ATOM     20 CL   LIG    1        1.140   3.822   0.012  0.00  0.00    -0.084 Cl
ATOM     21  C   LIG    1        2.385   1.419  -0.013  0.00  0.00    +0.021 A 
ATOM     22  C   LIG    1        2.417   0.040  -0.021  0.00  0.00    +0.014 A 
ENDBRANCH  14  16
ENDBRANCH   8  12
TORSDOF 2
