REMARK  Name = ZINC00171079
REMARK                            x       y       z     vdW  Elec       q    Type
REMARK                         _______ _______ _______ _____ _____    ______ ____
ROOT
ATOM      1  N   LIG    1        0.025  -0.014   2.418  0.00  0.00    -0.244 N 
ATOM      2  C   LIG    1       -1.175   0.306   3.034  0.00  0.00    +0.172 A 
ATOM      3  C   LIG    1       -1.146   0.992   4.242  0.00  0.00    +0.149 A 
ATOM      4  N   LIG    1       -2.463   1.173   4.615  0.00  0.00    -0.339 N 
ATOM      5  C   LIG    1       -3.224   0.611   3.656  0.00  0.00    +0.199 A 
ATOM      6  H   LIG    1       -2.779   1.620   5.416  0.00  0.00    +0.167 HD
ATOM      7  C   LIG    1        0.101   1.342   4.805  0.00  0.00    +0.283 A 
ATOM      8  N   LIG    1        1.234   1.002   4.157  0.00  0.00    -0.254 N 
ATOM      9  O   LIG    1        0.152   1.943   5.863  0.00  0.00    -0.265 OA
ATOM     10  N   LIG    1       -2.458   0.101   2.726  0.00  0.00    -0.218 NA
ATOM     11  C   LIG    1        1.192   0.334   2.992  0.00  0.00    +0.338 A 
ATOM     12  O   LIG    1        2.235   0.040   2.439  0.00  0.00    -0.246 OA
ENDROOT
BRANCH   1  19
ATOM     13  C   LIG    1       -0.018   1.503   0.010  0.00  0.00    +0.046 C 
ATOM     14  C   LIG    1        0.002  -0.004   0.002  0.00  0.00    -0.026 A 
ATOM     15  C   LIG    1        0.006  -0.689  -1.198  0.00  0.00    +0.005 A 
ATOM     16  C   LIG    1        0.025  -2.071  -1.206  0.00  0.00    +0.000 A 
ATOM     17  C   LIG    1        0.040  -2.773  -0.014  0.00  0.00    +0.002 A 
ATOM     18  C   LIG    1        0.036  -2.094   1.188  0.00  0.00    +0.026 A 
ATOM     19  C   LIG    1        0.023  -0.705   1.200  0.00  0.00    +0.056 A 
ENDBRANCH   1  19
BRANCH   8  20
ATOM     20  C   LIG    1        2.531   1.362   4.736  0.00  0.00    +0.165 C 
BRANCH  20  21
ATOM     21  C   LIG    1        3.006   0.251   5.636  0.00  0.00    -0.028 A 
ATOM     22  C   LIG    1        2.663   0.251   6.974  0.00  0.00    +0.005 A 
ATOM     23  C   LIG    1        3.099  -0.769   7.800  0.00  0.00    +0.000 A 
ATOM     24  C   LIG    1        3.877  -1.789   7.286  0.00  0.00    +0.000 A 
ATOM     25  C   LIG    1        4.220  -1.790   5.947  0.00  0.00    +0.000 A 
ATOM     26  C   LIG    1        3.780  -0.772   5.120  0.00  0.00    +0.005 A 
ENDBRANCH  20  21
ENDBRANCH   8  20
TORSDOF 3
