REMARK  Name = ZINC00192156
REMARK                            x       y       z     vdW  Elec       q    Type
REMARK                         _______ _______ _______ _____ _____    ______ ____
ROOT
ATOM      1  C   LIG    1       -2.798  -2.398   0.013  0.00  0.00    +0.125 A 
ATOM      2  C   LIG    1       -3.197  -3.738  -0.076  0.00  0.00    +0.094 A 
ATOM      3  N   LIG    1       -4.495  -3.954  -0.036  0.00  0.00    -0.224 NA
ATOM      4  C   LIG    1       -5.356  -2.963   0.080  0.00  0.00    +0.166 A 
ATOM      5  S   LIG    1       -4.385  -1.591   0.154  0.00  0.00    -0.045 S 
ENDROOT
BRANCH   2   6
ATOM      6  C   LIG    1       -2.219  -4.842  -0.207  0.00  0.00    +0.002 A 
ATOM      7  C   LIG    1       -1.084  -4.872   0.604  0.00  0.00    +0.010 A 
ATOM      8  C   LIG    1       -0.176  -5.904   0.477  0.00  0.00    +0.001 A 
ATOM      9  C   LIG    1       -0.391  -6.908  -0.451  0.00  0.00    +0.000 A 
ATOM     10  C   LIG    1       -1.514  -6.883  -1.257  0.00  0.00    +0.001 A 
ATOM     11  C   LIG    1       -2.432  -5.860  -1.137  0.00  0.00    +0.010 A 
ENDBRANCH   2   6
BRANCH   4  12
ATOM     12  N   LIG    1       -6.735  -3.034   0.134  0.00  0.00    -0.258 N 
ATOM     13  H   LIG    1       -7.179  -3.895   0.085  0.00  0.00    +0.157 HD
ATOM     14  C   LIG    1       -7.464  -1.907   0.256  0.00  0.00    +0.285 C 
ATOM     15  O   LIG    1       -6.908  -0.826   0.318  0.00  0.00    -0.266 OA
BRANCH  14  16
ATOM     16  C   LIG    1       -8.927  -1.982   0.313  0.00  0.00    +0.189 A 
ATOM     17  C   LIG    1       -9.781  -0.923   0.429  0.00  0.00    +0.054 A 
ATOM     18  C   LIG    1      -11.081  -1.453   0.446  0.00  0.00    +0.042 A 
ATOM     19  C   LIG    1      -10.964  -2.795   0.341  0.00  0.00    +0.196 A 
ATOM     20  O   LIG    1       -9.665  -3.110   0.255  0.00  0.00    -0.458 OA
ENDBRANCH  14  16
ENDBRANCH   4  12
BRANCH   1  21
ATOM     21  C   LIG    1       -1.498  -1.839   0.001  0.00  0.00    +0.348 C 
ATOM     22  O   LIG    1       -0.532  -2.548  -0.216  0.00  0.00    -0.244 OA
BRANCH  21  23
ATOM     23  O   LIG    1       -1.328  -0.519   0.230  0.00  0.00    -0.461 OA
BRANCH  23  25
ATOM     24  C   LIG    1        0.004   1.481   0.481  0.00  0.00    +0.048 C 
ATOM     25  C   LIG    1        0.012  -0.023   0.202  0.00  0.00    +0.229 C 
ENDBRANCH  23  25
ENDBRANCH  21  23
ENDBRANCH   1  21
TORSDOF 6
