REMARK  Name = ZINC00096804
REMARK                            x       y       z     vdW  Elec       q    Type
REMARK                         _______ _______ _______ _____ _____    ______ ____
ROOT
ATOM      1  C   LIG    1       -0.069   5.348   0.031  0.00  0.00    +0.112 C 
ENDROOT
BRANCH   1   4
ATOM      2  C   LIG    1        1.175   1.783   0.000  0.00  0.00    +0.002 A 
ATOM      3  C   LIG    1        1.156   3.166   0.008  0.00  0.00    +0.004 A 
ATOM      4  C   LIG    1       -0.050   3.841   0.023  0.00  0.00    -0.036 A 
ATOM      5  C   LIG    1       -1.238   3.135   0.030  0.00  0.00    +0.024 A 
ATOM      6  C   LIG    1       -1.220   1.752   0.017  0.00  0.00    +0.041 A 
ATOM      7 CL   LIG    1       -2.712   0.864   0.019  0.00  0.00    -0.084 Cl
ATOM      8  C   LIG    1       -0.013   1.076   0.008  0.00  0.00    +0.020 A 
ENDBRANCH   1   4
BRANCH   1   9
ATOM      9  S   LIG    1       -0.093   5.960  -1.673  0.00  0.00    -0.088 S 
BRANCH   9  10
ATOM     10  C   LIG    1       -0.113   7.696  -1.374  0.00  0.00    +0.123 C 
ATOM     11  N   LIG    1       -0.107   8.147  -0.150  0.00  0.00    -0.382 N 
ATOM     12  H   LIG    1       -0.090   7.444   0.696  0.00  0.00    +0.158 HD
ATOM     13  H   LIG    1       -0.119   9.231   0.037  0.00  0.00    +0.158 HD
BRANCH  10  14
ATOM     14  N   LIG    1       -0.134   8.576  -2.431  0.00  0.00    -0.340 N 
ATOM     15  H   LIG    1       -0.139   8.195  -3.463  0.00  0.00    +0.144 HD
ATOM     16  H   LIG    1       -0.146   9.660  -2.244  0.00  0.00    +0.144 HD
ENDBRANCH  10  14
ENDBRANCH   9  10
ENDBRANCH   1   9
TORSDOF 4
