REMARK  Name = ZINC00315580
REMARK                            x       y       z     vdW  Elec       q    Type
REMARK                         _______ _______ _______ _____ _____    ______ ____
ROOT
ATOM      1  C   LIG    1       -0.019   1.526   0.010  0.00  0.00    +0.018 C 
ATOM      2  C   LIG    1        0.002  -0.004   0.002  0.00  0.00    +0.068 C 
ATOM      3  C   LIG    1       -1.409  -0.521   0.004  0.00  0.00    +0.094 C 
ATOM      4  C   LIG    1       -1.966  -0.996   1.145  0.00  0.00    +0.198 C 
ATOM      5  O   LIG    1       -1.275  -1.017   2.297  0.00  0.00    -0.445 OA
ATOM      6  C   LIG    1        0.072  -0.978   2.283  0.00  0.00    +0.115 C 
ATOM      7  C   LIG    1        0.811  -1.491   3.496  0.00  0.00    +0.083 C 
ATOM      8  C   LIG    1        2.112  -0.721   3.669  0.00  0.00    +0.034 C 
ATOM      9  C   LIG    1        2.951  -0.905   2.400  0.00  0.00    +0.088 C 
ATOM     10  C   LIG    1        2.147  -0.447   1.214  0.00  0.00    +0.164 C 
ATOM     11  O   LIG    1        2.722  -0.023   0.231  0.00  0.00    -0.292 OA
ATOM     12  C   LIG    1        0.740  -0.501   1.222  0.00  0.00    +0.041 C 
ENDROOT
BRANCH   8  13
ATOM     13  C   LIG    1        2.868  -1.256   4.857  0.00  0.00    -0.043 A 
ATOM     14  C   LIG    1        3.246  -2.585   4.895  0.00  0.00    +0.004 A 
ATOM     15  C   LIG    1        3.940  -3.076   5.985  0.00  0.00    +0.000 A 
ATOM     16  C   LIG    1        4.255  -2.238   7.038  0.00  0.00    +0.000 A 
ATOM     17  C   LIG    1        3.878  -0.909   7.001  0.00  0.00    +0.000 A 
ATOM     18  C   LIG    1        3.188  -0.417   5.908  0.00  0.00    +0.004 A 
ENDBRANCH   8  13
BRANCH   4  19
ATOM     19  N   LIG    1       -3.256  -1.464   1.123  0.00  0.00    -0.328 N 
ATOM     20  H   LIG    1       -3.662  -1.806   1.935  0.00  0.00    +0.145 HD
ATOM     21  H   LIG    1       -3.762  -1.453   0.295  0.00  0.00    +0.145 HD
ENDBRANCH   4  19
BRANCH   3  22
ATOM     22  C   LIG    1       -2.172  -0.510  -1.208  0.00  0.00    +0.100 C 
ATOM     23  N   LIG    1       -2.777  -0.502  -2.169  0.00  0.00    -0.191 NA
ENDBRANCH   3  22
TORSDOF 3
