REMARK  Name = ZINC00097254
REMARK                            x       y       z     vdW  Elec       q    Type
REMARK                         _______ _______ _______ _____ _____    ______ ____
ROOT
ATOM      1  C   LIG    1       -0.718   1.572   1.248  0.00  0.00    -0.045 A 
ATOM      2  C   LIG    1       -0.855   2.929   1.477  0.00  0.00    +0.006 A 
ATOM      3  C   LIG    1       -1.505   3.377   2.610  0.00  0.00    +0.024 A 
ATOM      4  C   LIG    1       -2.012   2.464   3.525  0.00  0.00    +0.044 A 
ATOM      5  C   LIG    1       -1.868   1.103   3.295  0.00  0.00    +0.024 A 
ATOM      6  C   LIG    1       -1.222   0.660   2.157  0.00  0.00    +0.006 A 
ENDROOT
BRANCH   4   7
ATOM      7  N   LIG    1       -2.667   2.916   4.679  0.00  0.00    -0.203 N 
ATOM      8  C   LIG    1       -3.200   2.126   5.628  0.00  0.00    +0.250 C 
ATOM      9  C   LIG    1       -3.793   2.987   6.675  0.00  0.00    +0.073 C 
ATOM     10  C   LIG    1       -3.590   4.259   6.292  0.00  0.00    +0.073 C 
ATOM     11  O   LIG    1       -3.194   0.912   5.627  0.00  0.00    -0.270 OA
ATOM     12  C   LIG    1       -2.863   4.207   5.004  0.00  0.00    +0.250 C 
ATOM     13  O   LIG    1       -2.504   5.166   4.351  0.00  0.00    -0.270 OA
ENDBRANCH   4   7
BRANCH   1  15
ATOM     14  C   LIG    1        1.423   1.615  -0.003  0.00  0.00    +0.012 C 
ATOM     15  C   LIG    1       -0.013   1.086   0.008  0.00  0.00    +0.013 C 
ATOM     16  C   LIG    1       -0.753   1.593  -1.232  0.00  0.00    +0.012 C 
ENDBRANCH   1  15
TORSDOF 2
