REMARK  Name = ZINC00095386
REMARK                            x       y       z     vdW  Elec       q    Type
REMARK                         _______ _______ _______ _____ _____    ______ ____
ROOT
ATOM      1  C   LIG    1       -0.718   1.572   1.248  0.00  0.00    +0.193 A 
ATOM      2  N   LIG    1       -0.472   2.718   1.902  0.00  0.00    -0.190 NA
ATOM      3  C   LIG    1       -1.318   2.735   2.917  0.00  0.00    +0.259 A 
ATOM      4  O   LIG    1       -2.032   1.601   2.841  0.00  0.00    -0.333 OA
ATOM      5  N   LIG    1       -1.671   0.954   1.881  0.00  0.00    -0.059 NA
ENDROOT
BRANCH   3   6
ATOM      6  C   LIG    1       -1.448   3.793   3.940  0.00  0.00    +0.040 A 
ATOM      7  C   LIG    1       -0.625   4.920   3.891  0.00  0.00    +0.015 A 
ATOM      8  C   LIG    1       -0.754   5.907   4.846  0.00  0.00    +0.021 A 
ATOM      9  C   LIG    1       -1.690   5.777   5.858  0.00  0.00    +0.041 A 
ATOM     10 CL   LIG    1       -1.843   7.020   7.060  0.00  0.00    -0.084 Cl
ATOM     11  C   LIG    1       -2.506   4.659   5.915  0.00  0.00    +0.021 A 
ATOM     12  C   LIG    1       -2.390   3.668   4.962  0.00  0.00    +0.015 A 
ENDBRANCH   3   6
BRANCH   1  13
ATOM     13  C   LIG    1       -0.013   1.086   0.008  0.00  0.00    +0.253 C 
BRANCH  13  14
ATOM     14  S   LIG    1       -0.890   1.687  -1.462  0.00  0.00    +0.021 S 
ATOM     15  O   LIG    1       -0.765   3.099  -1.563  0.00  0.00    -0.167 OA
ATOM     16  O   LIG    1       -2.163   1.063  -1.561  0.00  0.00    -0.167 OA
BRANCH  14  21
ATOM     17  C   LIG    1        1.780   1.294  -4.431  0.00  0.00    +0.005 A 
ATOM     18  C   LIG    1        1.425   0.051  -4.933  0.00  0.00    +0.020 A 
ATOM     19  C   LIG    1        0.377  -0.636  -4.351  0.00  0.00    +0.113 A 
ATOM     20  N   LIG    1       -0.282  -0.124  -3.330  0.00  0.00    -0.237 NA
ATOM     21  C   LIG    1        0.028   1.055  -2.827  0.00  0.00    +0.177 A 
ATOM     22  C   LIG    1        1.060   1.803  -3.361  0.00  0.00    +0.047 A 
ENDBRANCH  14  21
ENDBRANCH  13  14
ENDBRANCH   1  13
TORSDOF 4
