REMARK  Name = ZINC00340351
REMARK                            x       y       z     vdW  Elec       q    Type
REMARK                         _______ _______ _______ _____ _____    ______ ____
ROOT
ATOM      1  C   LIG    1        3.438  -1.982   2.291  0.00  0.00    +0.048 A 
ATOM      2  C   LIG    1        2.064  -1.996   2.088  0.00  0.00    +0.026 A 
ATOM      3  C   LIG    1        1.270  -2.865   2.810  0.00  0.00    +0.030 A 
ATOM      4  C   LIG    1        1.841  -3.721   3.734  0.00  0.00    +0.105 A 
ATOM      5  C   LIG    1        3.209  -3.709   3.939  0.00  0.00    +0.030 A 
ATOM      6  C   LIG    1        4.010  -2.846   3.217  0.00  0.00    +0.026 A 
ENDROOT
BRANCH   4   7
ATOM      7  S   LIG    1        0.824  -4.827   4.654  0.00  0.00    +0.056 S 
ATOM      8  O   LIG    1       -0.479  -4.262   4.670  0.00  0.00    -0.153 OA
ATOM      9  O   LIG    1        1.535  -5.139   5.844  0.00  0.00    -0.153 OA
BRANCH   7  10
ATOM     10  N   LIG    1        0.719  -6.233   3.784  0.00  0.00    -0.204 NA
ATOM     11  H   LIG    1        0.197  -6.976   4.124  0.00  0.00    +0.144 HD
ATOM     12  H   LIG    1        1.179  -6.313   2.934  0.00  0.00    +0.144 HD
ENDBRANCH   7  10
ENDBRANCH   4   7
BRANCH   1  13
ATOM     13  N   LIG    1        4.245  -1.104   1.563  0.00  0.00    -0.216 N 
ATOM     14  H   LIG    1        4.609  -0.313   1.990  0.00  0.00    +0.174 HD
BRANCH  13  15
ATOM     15  S   LIG    1        4.578  -1.414  -0.029  0.00  0.00    +0.072 S 
ATOM     16  O   LIG    1        3.330  -1.651  -0.667  0.00  0.00    -0.150 OA
ATOM     17  O   LIG    1        5.474  -0.400  -0.462  0.00  0.00    -0.150 OA
BRANCH  15  21
ATOM     18  C   LIG    1        6.871  -5.314  -0.184  0.00  0.00    +0.000 A 
ATOM     19  C   LIG    1        5.501  -5.310  -0.370  0.00  0.00    +0.002 A 
ATOM     20  C   LIG    1        4.801  -4.119  -0.322  0.00  0.00    +0.029 A 
ATOM     21  C   LIG    1        5.470  -2.933  -0.088  0.00  0.00    +0.108 A 
ATOM     22  C   LIG    1        6.840  -2.937   0.098  0.00  0.00    +0.029 A 
ATOM     23  C   LIG    1        7.540  -4.128   0.049  0.00  0.00    +0.002 A 
ENDBRANCH  15  21
ENDBRANCH  13  15
ENDBRANCH   1  13
TORSDOF 5
