REMARK  Name = ZINC00167633
REMARK                            x       y       z     vdW  Elec       q    Type
REMARK                         _______ _______ _______ _____ _____    ______ ____
ROOT
ATOM      1  N   LIG    1        4.152  -0.952   1.338  0.00  0.00    -0.326 N 
ATOM      2  C   LIG    1        5.001  -0.175   2.063  0.00  0.00    +0.200 A 
ATOM      3  N   LIG    1        5.175  -0.687   3.247  0.00  0.00    -0.236 NA
ATOM      4  C   LIG    1        4.448  -1.828   3.362  0.00  0.00    +0.089 A 
ATOM      5  C   LIG    1        4.269  -2.757   4.390  0.00  0.00    +0.030 A 
ATOM      6  C   LIG    1        3.442  -3.828   4.204  0.00  0.00    +0.002 A 
ATOM      7  C   LIG    1        2.782  -4.011   2.997  0.00  0.00    +0.002 A 
ATOM      8  C   LIG    1        2.946  -3.109   1.967  0.00  0.00    +0.028 A 
ATOM      9  C   LIG    1        3.778  -2.012   2.140  0.00  0.00    +0.069 A 
ENDROOT
BRANCH   1  10
ATOM     10  C   LIG    1        3.711  -0.707  -0.038  0.00  0.00    +0.158 C 
BRANCH  10  14
ATOM     11  C   LIG    1       -0.017   1.378   0.010  0.00  0.00    +0.000 A 
ATOM     12  C   LIG    1        1.171   2.086   0.002  0.00  0.00    +0.000 A 
ATOM     13  C   LIG    1        2.377   1.411  -0.013  0.00  0.00    +0.005 A 
ATOM     14  C   LIG    1        2.396   0.029  -0.020  0.00  0.00    -0.028 A 
ATOM     15  C   LIG    1        1.208  -0.679  -0.012  0.00  0.00    +0.005 A 
ATOM     16  C   LIG    1        0.002  -0.004   0.002  0.00  0.00    +0.000 A 
ENDBRANCH  10  14
ENDBRANCH   1  10
TORSDOF 2
