REMARK  Name = ZINC00109589
REMARK                            x       y       z     vdW  Elec       q    Type
REMARK                         _______ _______ _______ _____ _____    ______ ____
ROOT
ATOM      1  C   LIG    1        5.337  -1.615   1.574  0.00  0.00    +0.130 A 
ATOM      2  C   LIG    1        5.779  -1.868   2.896  0.00  0.00    +0.040 A 
ATOM      3  C   LIG    1        5.044  -1.464   4.016  0.00  0.00    +0.013 A 
ATOM      4  C   LIG    1        5.519  -1.735   5.265  0.00  0.00    +0.001 A 
ATOM      5  C   LIG    1        6.725  -2.408   5.440  0.00  0.00    +0.002 A 
ATOM      6  C   LIG    1        7.465  -2.815   4.370  0.00  0.00    +0.028 A 
ATOM      7  C   LIG    1        7.005  -2.553   3.072  0.00  0.00    +0.076 A 
ATOM      8  N   LIG    1        7.693  -2.932   1.985  0.00  0.00    -0.235 NA
ATOM      9  C   LIG    1        7.236  -2.671   0.783  0.00  0.00    +0.223 A 
ATOM     10  N   LIG    1        6.093  -2.039   0.570  0.00  0.00    -0.220 NA
ENDROOT
BRANCH   1  11
ATOM     11  N   LIG    1        4.152  -0.952   1.338  0.00  0.00    -0.324 N 
ATOM     12  H   LIG    1        3.610  -0.648   2.082  0.00  0.00    +0.148 HD
BRANCH  11  13
ATOM     13  C   LIG    1        3.711  -0.707  -0.038  0.00  0.00    +0.138 C 
BRANCH  13  17
ATOM     14  C   LIG    1       -0.017   1.378   0.010  0.00  0.00    +0.000 A 
ATOM     15  C   LIG    1        1.171   2.086   0.002  0.00  0.00    +0.000 A 
ATOM     16  C   LIG    1        2.377   1.411  -0.013  0.00  0.00    +0.005 A 
ATOM     17  C   LIG    1        2.396   0.029  -0.020  0.00  0.00    -0.030 A 
ATOM     18  C   LIG    1        1.208  -0.679  -0.012  0.00  0.00    +0.005 A 
ATOM     19  C   LIG    1        0.002  -0.004   0.002  0.00  0.00    +0.000 A 
ENDBRANCH  13  17
ENDBRANCH  11  13
ENDBRANCH   1  11
TORSDOF 3
