REMARK  Name = ZINC00284966
REMARK                            x       y       z     vdW  Elec       q    Type
REMARK                         _______ _______ _______ _____ _____    ______ ____
ROOT
ATOM      1  C   LIG    1       -1.137  -0.743   0.043  0.00  0.00    +0.129 A 
ATOM      2  C   LIG    1       -2.375  -0.113   0.021  0.00  0.00    +0.046 A 
ATOM      3  C   LIG    1       -3.538  -0.860   0.062  0.00  0.00    +0.004 A 
ATOM      4  C   LIG    1       -3.477  -2.237   0.125  0.00  0.00    +0.015 A 
ATOM      5  C   LIG    1       -2.237  -2.880   0.147  0.00  0.00    +0.062 A 
ATOM      6  C   LIG    1       -1.064  -2.125   0.100  0.00  0.00    +0.061 A 
ENDROOT
BRANCH   5   7
ATOM      7  C   LIG    1       -2.168  -4.354   0.214  0.00  0.00    +0.337 C 
ATOM      8  O   LIG    1       -1.089  -4.911   0.233  0.00  0.00    -0.245 OA
BRANCH   7   9
ATOM      9  O   LIG    1       -3.302  -5.081   0.254  0.00  0.00    -0.477 OA
ATOM     10  H   LIG    1       -4.134  -4.651   0.239  0.00  0.00    +0.295 HD
ENDBRANCH   7   9
ENDBRANCH   5   7
BRANCH   1  11
ATOM     11  O   LIG    1        0.002  -0.004   0.002  0.00  0.00    -0.456 OA
BRANCH  11  15
ATOM     12  C   LIG    1        1.647   1.218   3.583  0.00  0.00    +0.000 A 
ATOM     13  C   LIG    1        2.251   1.570   2.390  0.00  0.00    +0.004 A 
ATOM     14  C   LIG    1        1.702   1.162   1.189  0.00  0.00    +0.046 A 
ATOM     15  C   LIG    1        0.544   0.398   1.181  0.00  0.00    +0.128 A 
ATOM     16  C   LIG    1       -0.063   0.050   2.380  0.00  0.00    +0.046 A 
ATOM     17  C   LIG    1        0.493   0.456   3.578  0.00  0.00    +0.004 A 
ENDBRANCH  11  15
ENDBRANCH   1  11
TORSDOF 4
