REMARK  Name = ZINC00079248
REMARK                            x       y       z     vdW  Elec       q    Type
REMARK                         _______ _______ _______ _____ _____    ______ ____
ROOT
ATOM      1  C   LIG    1        2.420   4.232   0.002  0.00  0.00    +0.153 C 
ENDROOT
BRANCH   1   2
ATOM      2  C   LIG    1        2.217   5.550  -0.700  0.00  0.00    +0.022 A 
ATOM      3  C   LIG    1        0.968   6.164  -0.658  0.00  0.00    +0.010 A 
ATOM      4  C   LIG    1        0.753   7.355  -1.281  0.00  0.00    +0.010 A 
ATOM      5  C   LIG    1        1.802   7.977  -1.977  0.00  0.00    +0.004 A 
ATOM      6  C   LIG    1        1.617   9.209  -2.633  0.00  0.00    +0.011 A 
ATOM      7  C   LIG    1        2.683   9.756  -3.289  0.00  0.00    +0.020 A 
ATOM      8  C   LIG    1        3.909   9.094  -3.296  0.00  0.00    +0.111 A 
ATOM      9  N   LIG    1        4.077   7.947  -2.684  0.00  0.00    -0.251 NA
ATOM     10  C   LIG    1        3.075   7.359  -2.024  0.00  0.00    +0.113 A 
ATOM     11  C   LIG    1        3.263   6.127  -1.362  0.00  0.00    +0.148 A 
BRANCH  11  12
ATOM     12  O   LIG    1        4.476   5.516  -1.388  0.00  0.00    -0.504 OA
ATOM     13  H   LIG    1        4.596   4.911  -2.133  0.00  0.00    +0.292 HD
ENDBRANCH  11  12
ENDBRANCH   1   2
BRANCH   1  18
ATOM     14  C   LIG    1        2.713   4.177   3.759  0.00  0.00    +0.003 A 
ATOM     15  C   LIG    1        3.858   4.944   3.912  0.00  0.00    +0.020 A 
ATOM     16  C   LIG    1        4.487   5.446   2.789  0.00  0.00    +0.111 A 
ATOM     17  N   LIG    1        4.010   5.204   1.583  0.00  0.00    -0.258 NA
ATOM     18  C   LIG    1        2.924   4.479   1.400  0.00  0.00    +0.066 A 
ATOM     19  C   LIG    1        2.238   3.948   2.477  0.00  0.00    +0.025 A 
ENDBRANCH   1  18
BRANCH   1  20
ATOM     20  N   LIG    1        1.147   3.509   0.061  0.00  0.00    -0.332 N 
ATOM     21  H   LIG    1        0.311   4.000   0.071  0.00  0.00    +0.147 HD
BRANCH  20  22
ATOM     22  C   LIG    1        1.138   2.113   0.105  0.00  0.00    +0.031 A 
ATOM     23  C   LIG    1       -0.069   1.427   0.162  0.00  0.00    +0.023 A 
ATOM     24  C   LIG    1       -0.076   0.047   0.205  0.00  0.00    +0.005 A 
ATOM     25  C   LIG    1        1.115  -0.654   0.192  0.00  0.00    +0.038 A 
ATOM     26  C   LIG    1        2.321   0.026   0.135  0.00  0.00    +0.125 A 
ATOM     27  F   LIG    1        3.484  -0.661   0.122  0.00  0.00    -0.205 F 
ATOM     28  C   LIG    1        2.334   1.409   0.092  0.00  0.00    +0.061 A 
ENDBRANCH  20  22
ENDBRANCH   1  20
TORSDOF 5
