REMARK  Name = ZINC00235502
REMARK                            x       y       z     vdW  Elec       q    Type
REMARK                         _______ _______ _______ _____ _____    ______ ____
ROOT
ATOM      1  C   LIG    1       -1.600   0.739   1.222  0.00  0.00    +0.028 C 
ATOM      2  C   LIG    1       -0.962  -0.561   0.727  0.00  0.00    +0.074 C 
ATOM      3  C   LIG    1       -0.134  -0.280  -0.531  0.00  0.00    +0.022 C 
ATOM      4  C   LIG    1        0.612  -1.552  -0.939  0.00  0.00    +0.004 C 
ATOM      5  C   LIG    1        1.565  -1.970   0.183  0.00  0.00    +0.034 C 
ATOM      6  C   LIG    1        0.756  -2.269   1.449  0.00  0.00    +0.185 C 
ATOM      7  N   LIG    1       -0.078  -1.102   1.768  0.00  0.00    -0.285 N 
ATOM      8  C   LIG    1       -0.030  -0.536   2.991  0.00  0.00    +0.217 C 
ATOM      9  O   LIG    1        0.915  -0.750   3.721  0.00  0.00    -0.276 OA
ENDROOT
BRANCH   6  10
ATOM     10  C   LIG    1        1.696  -2.551   2.594  0.00  0.00    +0.325 C 
ATOM     11  O   LIG    1        2.598  -1.771   2.848  0.00  0.00    -0.249 OA
BRANCH  10  12
ATOM     12  O   LIG    1        1.553  -3.558   3.265  0.00  0.00    -0.479 OA
ATOM     13  H   LIG    1        0.860  -4.158   3.070  0.00  0.00    +0.295 HD
ENDBRANCH  10  12
ENDBRANCH   6  10
BRANCH   8  14
ATOM     14  C   LIG    1       -1.149   0.361   3.450  0.00  0.00    +0.106 C 
BRANCH  14  15
ATOM     15  C   LIG    1       -1.048   0.569   4.963  0.00  0.00    +0.075 C 
BRANCH  15  16
ATOM     16  S   LIG    1       -2.397   1.649   5.516  0.00  0.00    -0.178 S 
ATOM     17  H   LIG    1       -2.204   1.756   6.843  0.00  0.00    +0.102 HD
ENDBRANCH  15  16
ENDBRANCH  14  15
ENDBRANCH   8  14
TORSDOF 5
