REMARK  Name = ZINC00245648
REMARK                            x       y       z     vdW  Elec       q    Type
REMARK                         _______ _______ _______ _____ _____    ______ ____
ROOT
ATOM      1  C   LIG    1       -0.138   1.435   0.578  0.00  0.00    +0.062 C 
ATOM      2  C   LIG    1       -0.050  -0.034   0.251  0.00  0.00    +0.027 C 
ATOM      3  C   LIG    1       -1.130  -0.878   0.028  0.00  0.00    +0.021 C 
ATOM      4  C   LIG    1       -0.611  -2.150  -0.242  0.00  0.00    +0.046 C 
ATOM      5  N   LIG    1        0.783  -2.037  -0.176  0.00  0.00    -0.341 NA
ATOM      6  H   LIG    1        1.188  -2.285  -1.066  0.00  0.00    +0.144 HD
ATOM      7  H   LIG    1        1.140  -2.648   0.544  0.00  0.00    +0.144 HD
ATOM      8  C   LIG    1       -1.346  -3.312  -0.527  0.00  0.00    +0.038 C 
ATOM      9  C   LIG    1       -2.741  -3.238  -0.717  0.00  0.00    +0.017 C 
ATOM     10  C   LIG    1       -3.450  -4.363  -0.991  0.00  0.00    +0.051 C 
ATOM     11  C   LIG    1       -2.796  -5.607  -1.087  0.00  0.00    +0.182 C 
ATOM     12  C   LIG    1       -1.408  -5.689  -0.899  0.00  0.00    +0.096 C 
ATOM     13  O   LIG    1       -3.440  -6.619  -1.335  0.00  0.00    -0.288 OA
ATOM     14  C   LIG    1       -0.687  -4.561  -0.628  0.00  0.00    +0.129 C 
ATOM     15  N   LIG    1        1.087  -0.741   0.120  0.00  0.00    -0.287 N 
ATOM     16  H   LIG    1        1.984  -0.385   0.222  0.00  0.00    +0.168 HD
ENDROOT
BRANCH   3  17
ATOM     17  C   LIG    1       -2.565  -0.504   0.070  0.00  0.00    -0.011 A 
ATOM     18  C   LIG    1       -3.376  -0.959   1.108  0.00  0.00    +0.012 A 
ATOM     19  C   LIG    1       -4.710  -0.611   1.145  0.00  0.00    +0.050 A 
ATOM     20  C   LIG    1       -5.250   0.194   0.151  0.00  0.00    +0.162 A 
ATOM     21  C   LIG    1       -4.445   0.653  -0.886  0.00  0.00    +0.163 A 
ATOM     22  O   LIG    1       -4.957   1.449  -1.865  0.00  0.00    -0.485 OA
ATOM     23  C   LIG    1       -6.382   1.473  -1.996  0.00  0.00    +0.270 C 
ATOM     24  C   LIG    1       -6.990   1.633  -0.596  0.00  0.00    +0.270 C 
ATOM     25  O   LIG    1       -6.570   0.522   0.204  0.00  0.00    -0.485 OA
ATOM     26  C   LIG    1       -3.104   0.309  -0.925  0.00  0.00    +0.058 A 
ENDBRANCH   3  17
BRANCH  14  27
ATOM     27  O   LIG    1        0.655  -4.638  -0.452  0.00  0.00    -0.506 OA
ATOM     28  H   LIG    1        1.149  -3.864  -0.267  0.00  0.00    +0.292 HD
ENDBRANCH  14  27
TORSDOF 2
