REMARK  Name = ZINC00089683
REMARK                            x       y       z     vdW  Elec       q    Type
REMARK                         _______ _______ _______ _____ _____    ______ ____
ROOT
ATOM      1  C   LIG    1        1.011  -2.407  -2.812  0.00  0.00    +0.124 C 
ATOM      2  C   LIG    1        1.509  -3.690  -2.897  0.00  0.00    +0.023 C 
ATOM      3  C   LIG    1        1.149  -4.809  -1.954  0.00  0.00    +0.061 C 
ATOM      4  N   LIG    1        2.357  -3.811  -3.929  0.00  0.00    -0.314 N 
ATOM      5  H   LIG    1        2.820  -4.629  -4.170  0.00  0.00    +0.152 HD
ATOM      6  C   LIG    1        2.482  -2.603  -4.609  0.00  0.00    +0.080 C 
ATOM      7  C   LIG    1        3.255  -2.361  -5.702  0.00  0.00    +0.038 C 
ATOM      8  C   LIG    1        1.610  -1.641  -3.917  0.00  0.00    +0.215 C 
ATOM      9  O   LIG    1        1.425  -0.468  -4.197  0.00  0.00    -0.285 OA
ENDROOT
BRANCH   7  10
ATOM     10  C   LIG    1        3.405  -0.992  -6.205  0.00  0.00    +0.022 A 
ATOM     11  C   LIG    1        3.577   0.072  -5.310  0.00  0.00    +0.057 A 
ATOM     12  C   LIG    1        3.718   1.359  -5.793  0.00  0.00    +0.121 A 
ATOM     13  C   LIG    1        3.690   1.600  -7.162  0.00  0.00    +0.049 A 
ATOM     14  C   LIG    1        3.521   0.557  -8.052  0.00  0.00    +0.050 A 
ATOM     15  C   LIG    1        3.384  -0.741  -7.587  0.00  0.00    +0.127 A 
BRANCH  12  16
ATOM     16  O   LIG    1        3.885   2.393  -4.926  0.00  0.00    -0.495 OA
ATOM     17  C   LIG    1        4.024   3.698  -5.492  0.00  0.00    +0.277 C 
ENDBRANCH  12  16
BRANCH  15  18
ATOM     18  O   LIG    1        3.224  -1.765  -8.464  0.00  0.00    -0.495 OA
ATOM     19  C   LIG    1        3.212  -1.433  -9.854  0.00  0.00    +0.277 C 
ENDBRANCH  15  18
ENDBRANCH   7  10
BRANCH   1  20
ATOM     20  C   LIG    1        0.061  -1.903  -1.814  0.00  0.00    +0.344 C 
ATOM     21  O   LIG    1       -0.361  -2.644  -0.947  0.00  0.00    -0.245 OA
BRANCH  20  22
ATOM     22  O   LIG    1       -0.345  -0.618  -1.857  0.00  0.00    -0.461 OA
BRANCH  22  24
ATOM     23  C   LIG    1       -1.612   1.282  -1.065  0.00  0.00    +0.048 C 
ATOM     24  C   LIG    1       -1.271  -0.195  -0.855  0.00  0.00    +0.229 C 
ENDBRANCH  22  24
ENDBRANCH  20  22
ENDBRANCH   1  20
TORSDOF 6
