REMARK  Name = ZINC00146714
REMARK                            x       y       z     vdW  Elec       q    Type
REMARK                         _______ _______ _______ _____ _____    ______ ____
ROOT
ATOM      1  C   LIG    1        3.697  -0.687  -0.038  0.00  0.00    +0.058 A 
ATOM      2  C   LIG    1        4.647  -0.664  -1.067  0.00  0.00    +0.176 A 
ATOM      3  N   LIG    1        5.660  -1.421  -0.724  0.00  0.00    -0.157 NA
ATOM      4  N   LIG    1        5.419  -1.970   0.540  0.00  0.00    -0.181 N 
ATOM      5  C   LIG    1        6.148  -2.812   1.335  0.00  0.00    +0.217 A 
ATOM      6  C   LIG    1        5.647  -3.172   2.554  0.00  0.00    +0.099 A 
ATOM      7  C   LIG    1        4.401  -2.683   2.953  0.00  0.00    +0.151 A 
ATOM      8  N   LIG    1        3.721  -1.879   2.166  0.00  0.00    -0.223 NA
ATOM      9  C   LIG    1        4.202  -1.512   0.974  0.00  0.00    +0.168 A 
ENDROOT
BRANCH   1  13
ATOM     10  C   LIG    1       -0.017   1.379   0.010  0.00  0.00    +0.000 A 
ATOM     11  C   LIG    1        1.169   2.093   0.002  0.00  0.00    +0.001 A 
ATOM     12  C   LIG    1        2.377   1.428  -0.013  0.00  0.00    +0.009 A 
ATOM     13  C   LIG    1        2.403   0.033  -0.021  0.00  0.00    -0.012 A 
ATOM     14  C   LIG    1        1.205  -0.680  -0.013  0.00  0.00    +0.009 A 
ATOM     15  C   LIG    1        0.002  -0.004   0.002  0.00  0.00    +0.001 A 
ENDBRANCH   1  13
BRANCH   2  16
ATOM     16  C   LIG    1        4.524   0.105  -2.357  0.00  0.00    +0.437 C 
ATOM     17  F   LIG    1        3.174   0.218  -2.706  0.00  0.00    -0.164 F 
ATOM     18  F   LIG    1        5.212  -0.571  -3.370  0.00  0.00    -0.164 F 
ATOM     19  F   LIG    1        5.071   1.382  -2.193  0.00  0.00    -0.164 F 
ENDBRANCH   2  16
BRANCH   7  20
ATOM     20  C   LIG    1        3.835  -3.080   4.292  0.00  0.00    +0.434 C 
ATOM     21  F   LIG    1        4.704  -2.666   5.307  0.00  0.00    -0.164 F 
ATOM     22  F   LIG    1        3.687  -4.470   4.343  0.00  0.00    -0.164 F 
ATOM     23  F   LIG    1        2.587  -2.471   4.469  0.00  0.00    -0.164 F 
ENDBRANCH   7  20
BRANCH   5  24
ATOM     24  O   LIG    1        7.353  -3.269   0.926  0.00  0.00    -0.492 OA
ATOM     25  H   LIG    1        7.690  -3.018   0.088  0.00  0.00    +0.294 HD
ENDBRANCH   5  24
TORSDOF 4
