REMARK  Name = ZINC00079360
REMARK                            x       y       z     vdW  Elec       q    Type
REMARK                         _______ _______ _______ _____ _____    ______ ____
ROOT
ATOM      1  C   LIG    1        0.408   0.198   4.742  0.00  0.00    +0.034 A 
ATOM      2  C   LIG    1        0.295   1.585   4.767  0.00  0.00    +0.024 A 
ATOM      3  C   LIG    1        0.300   2.256   5.970  0.00  0.00    +0.015 A 
ATOM      4  C   LIG    1        0.429   1.543   7.165  0.00  0.00    +0.037 A 
ATOM      5  C   LIG    1        0.548   0.150   7.135  0.00  0.00    +0.015 A 
ATOM      6  C   LIG    1        0.537  -0.514   5.930  0.00  0.00    +0.024 A 
ENDROOT
BRANCH   1   8
ATOM      7  C   LIG    1       -0.378  -0.035   2.514  0.00  0.00    +0.249 C 
ATOM      8  N   LIG    1        0.398  -0.478   3.523  0.00  0.00    -0.281 N 
ATOM      9  H   LIG    1        0.948  -1.267   3.401  0.00  0.00    +0.155 HD
ATOM     10  O   LIG    1       -0.999   1.003   2.634  0.00  0.00    -0.270 OA
BRANCH   7  17
ATOM     11  C   LIG    1       -1.910   1.013   0.294  0.00  0.00    +0.044 C 
ATOM     12  C   LIG    1       -1.210  -0.316   0.183  0.00  0.00    -0.038 A 
ATOM     13  C   LIG    1       -1.300  -1.049  -0.983  0.00  0.00    +0.004 A 
ATOM     14  C   LIG    1       -0.654  -2.268  -1.089  0.00  0.00    +0.000 A 
ATOM     15  C   LIG    1        0.078  -2.765  -0.025  0.00  0.00    +0.001 A 
ATOM     16  C   LIG    1        0.172  -2.045   1.148  0.00  0.00    +0.013 A 
ATOM     17  C   LIG    1       -0.474  -0.812   1.260  0.00  0.00    +0.040 A 
ENDBRANCH   7  17
ENDBRANCH   1   8
BRANCH   4  18
ATOM     18  C   LIG    1        0.441   2.258   8.455  0.00  0.00    +0.250 C 
ATOM     19  N   LIG    1        0.326   3.601   8.482  0.00  0.00    -0.261 N 
ATOM     20  H   LIG    1        0.236   4.097   7.653  0.00  0.00    +0.157 HD
ATOM     21  O   LIG    1        0.554   1.637   9.494  0.00  0.00    -0.270 OA
BRANCH  19  22
ATOM     22  C   LIG    1        0.337   4.275   9.696  0.00  0.00    +0.165 A 
ATOM     23  N   LIG    1        0.443   3.783  10.916  0.00  0.00    -0.233 NA
ATOM     24  C   LIG    1        0.439   4.572  11.973  0.00  0.00    +0.120 A 
ATOM     25  C   LIG    1        0.313   5.908  11.782  0.00  0.00    +0.068 A 
ATOM     26  S   LIG    1        0.207   5.980   9.999  0.00  0.00    -0.061 S 
ENDBRANCH  19  22
ENDBRANCH   4  18
TORSDOF 4
