REMARK  Name = ZINC00267589
REMARK                            x       y       z     vdW  Elec       q    Type
REMARK                         _______ _______ _______ _____ _____    ______ ____
ROOT
ATOM      1  N   LIG    1        3.536   2.092  -0.020  0.00  0.00    -0.296 N 
ATOM      2  H   LIG    1        3.357   2.846   0.563  0.00  0.00    +0.154 HD
ENDROOT
BRANCH   1   6
ATOM      3  C   LIG    1        2.206  -0.719  -3.815  0.00  0.00    +0.066 C 
ATOM      4  C   LIG    1        1.902   0.339  -2.786  0.00  0.00    +0.045 A 
ATOM      5  C   LIG    1        2.885   0.719  -1.875  0.00  0.00    +0.067 A 
ATOM      6  C   LIG    1        2.589   1.691  -0.938  0.00  0.00    +0.130 A 
ATOM      7  N   LIG    1        1.341   2.245  -0.938  0.00  0.00    -0.182 N 
ATOM      8  C   LIG    1        0.410   1.839  -1.852  0.00  0.00    +0.255 A 
ATOM      9  N   LIG    1       -0.695   2.542  -1.624  0.00  0.00    -0.197 NA
ATOM     10  C   LIG    1       -0.499   3.365  -0.601  0.00  0.00    +0.247 A 
ATOM     11  N   LIG    1        0.724   3.225  -0.151  0.00  0.00    -0.151 NA
ATOM     12  N   LIG    1        0.711   0.898  -2.754  0.00  0.00    -0.216 NA
ENDBRANCH   1   6
BRANCH   1  13
ATOM     13  C   LIG    1        4.754   1.412   0.071  0.00  0.00    +0.075 A 
ATOM     14  C   LIG    1        4.766   0.046   0.068  0.00  0.00    +0.035 A 
ATOM     15  C   LIG    1        5.990  -0.639   0.154  0.00  0.00    -0.016 A 
ATOM     16  C   LIG    1        6.040  -2.043   0.149  0.00  0.00    +0.008 A 
ATOM     17  C   LIG    1        7.242  -2.676   0.238  0.00  0.00    +0.001 A 
ATOM     18  C   LIG    1        8.428  -1.951   0.335  0.00  0.00    +0.001 A 
ATOM     19  C   LIG    1        8.419  -0.590   0.343  0.00  0.00    +0.008 A 
ATOM     20  C   LIG    1        7.197   0.098   0.253  0.00  0.00    -0.014 A 
ATOM     21  C   LIG    1        7.152   1.503   0.258  0.00  0.00    +0.055 A 
ATOM     22  C   LIG    1        5.950   2.142   0.169  0.00  0.00    +0.139 A 
BRANCH  22  23
ATOM     23  O   LIG    1        5.909   3.500   0.175  0.00  0.00    -0.505 OA
ATOM     24  H   LIG    1        5.829   3.887   1.057  0.00  0.00    +0.292 HD
ENDBRANCH  22  23
ENDBRANCH   1  13
TORSDOF 3
