REMARK  Name = ZINC00160340
REMARK                            x       y       z     vdW  Elec       q    Type
REMARK                         _______ _______ _______ _____ _____    ______ ____
ROOT
ATOM      1  C   LIG    1       -0.017   1.379   0.010  0.00  0.00    +0.000 A 
ATOM      2  C   LIG    1        1.170   2.089   0.002  0.00  0.00    +0.002 A 
ATOM      3  C   LIG    1        2.377   1.419  -0.013  0.00  0.00    +0.026 A 
ATOM      4  C   LIG    1        2.399   0.031  -0.021  0.00  0.00    +0.047 A 
ATOM      5  C   LIG    1        1.207  -0.680  -0.013  0.00  0.00    +0.026 A 
ATOM      6  C   LIG    1        0.002  -0.004   0.002  0.00  0.00    +0.002 A 
ENDROOT
BRANCH   4   7
ATOM      7  N   LIG    1        3.624  -0.652  -0.037  0.00  0.00    -0.307 N 
ATOM      8  C   LIG    1        4.873  -0.087  -0.041  0.00  0.00    +0.110 A 
ATOM      9  C   LIG    1        5.760  -1.100  -0.058  0.00  0.00    +0.102 A 
ATOM     10  N   LIG    1        5.077  -2.254  -0.065  0.00  0.00    -0.352 N 
ATOM     11  H   LIG    1        5.473  -3.140  -0.077  0.00  0.00    +0.166 HD
ATOM     12  C   LIG    1        3.797  -2.000  -0.046  0.00  0.00    +0.178 A 
ENDBRANCH   4   7
TORSDOF 1
