REMARK  Name = ZINC00206684
REMARK                            x       y       z     vdW  Elec       q    Type
REMARK                         _______ _______ _______ _____ _____    ______ ____
ROOT
ATOM      1  N   LIG    1       -2.241   4.078   0.044  0.00  0.00    -0.322 N 
ATOM      2  C   LIG    1       -1.236   3.132   0.030  0.00  0.00    +0.069 A 
ATOM      3  C   LIG    1       -1.218   1.744   0.017  0.00  0.00    +0.028 A 
ATOM      4  C   LIG    1       -0.013   1.076   0.008  0.00  0.00    +0.002 A 
ATOM      5  C   LIG    1        1.183   1.781   0.000  0.00  0.00    +0.002 A 
ATOM      6  C   LIG    1        1.187   3.147   0.007  0.00  0.00    +0.030 A 
ATOM      7  C   LIG    1       -0.025   3.847   0.022  0.00  0.00    +0.090 A 
ATOM      8  N   LIG    1       -0.338   5.165   0.032  0.00  0.00    -0.226 NA
ATOM      9  C   LIG    1       -1.640   5.307   0.045  0.00  0.00    +0.167 A 
ENDROOT
BRANCH   9  10
ATOM     10  C   LIG    1       -2.354   6.603   0.059  0.00  0.00    +0.190 A 
ATOM     11  C   LIG    1       -1.789   7.973   0.067  0.00  0.00    +0.191 A 
ATOM     12  N   LIG    1       -2.865   8.725   0.077  0.00  0.00    -0.033 NA
ATOM     13  O   LIG    1       -3.848   8.022   0.083  0.00  0.00    -0.240 OA
ATOM     14  N   LIG    1       -3.650   6.830   0.074  0.00  0.00    -0.044 NA
BRANCH  11  15
ATOM     15  N   LIG    1       -0.457   8.364   0.064  0.00  0.00    -0.339 N 
ATOM     16  H   LIG    1       -0.227   9.306   0.070  0.00  0.00    +0.144 HD
ATOM     17  H   LIG    1        0.245   7.694   0.054  0.00  0.00    +0.144 HD
ENDBRANCH  11  15
ENDBRANCH   9  10
BRANCH   1  19
ATOM     18  C   LIG    1       -4.197   3.731  -1.382  0.00  0.00    +0.027 C 
ATOM     19  C   LIG    1       -3.682   3.814   0.056  0.00  0.00    +0.120 C 
ENDBRANCH   1  19
TORSDOF 3
