REMARK  Name = ZINC00274067
REMARK                            x       y       z     vdW  Elec       q    Type
REMARK                         _______ _______ _______ _____ _____    ______ ____
ROOT
ATOM      1  C   LIG    1        5.337  -1.615   1.574  0.00  0.00    +0.131 A 
ATOM      2  C   LIG    1        5.778  -1.867   2.898  0.00  0.00    +0.040 A 
ATOM      3  C   LIG    1        5.041  -1.461   4.015  0.00  0.00    +0.013 A 
ATOM      4  C   LIG    1        5.512  -1.731   5.266  0.00  0.00    +0.001 A 
ATOM      5  C   LIG    1        6.717  -2.405   5.447  0.00  0.00    +0.002 A 
ATOM      6  C   LIG    1        7.460  -2.813   4.379  0.00  0.00    +0.028 A 
ATOM      7  C   LIG    1        7.004  -2.553   3.079  0.00  0.00    +0.077 A 
ATOM      8  N   LIG    1        7.696  -2.935   1.996  0.00  0.00    -0.227 NA
ATOM      9  C   LIG    1        7.240  -2.675   0.786  0.00  0.00    +0.162 A 
ATOM     10  N   LIG    1        6.091  -2.038   0.570  0.00  0.00    -0.212 NA
ENDROOT
BRANCH   9  11
ATOM     11  C   LIG    1        8.038  -3.116  -0.384  0.00  0.00    +0.019 A 
ATOM     12  C   LIG    1        7.589  -2.852  -1.677  0.00  0.00    +0.011 A 
ATOM     13  C   LIG    1        8.336  -3.265  -2.761  0.00  0.00    +0.001 A 
ATOM     14  C   LIG    1        9.528  -3.939  -2.568  0.00  0.00    +0.000 A 
ATOM     15  C   LIG    1        9.979  -4.203  -1.287  0.00  0.00    +0.001 A 
ATOM     16  C   LIG    1        9.243  -3.790  -0.195  0.00  0.00    +0.011 A 
ENDBRANCH   9  11
BRANCH   1  17
ATOM     17  N   LIG    1        4.152  -0.952   1.338  0.00  0.00    -0.324 N 
ATOM     18  H   LIG    1        3.610  -0.648   2.082  0.00  0.00    +0.148 HD
BRANCH  17  19
ATOM     19  C   LIG    1        3.711  -0.707  -0.038  0.00  0.00    +0.138 C 
BRANCH  19  23
ATOM     20  C   LIG    1       -0.017   1.378   0.010  0.00  0.00    +0.000 A 
ATOM     21  C   LIG    1        1.171   2.086   0.002  0.00  0.00    +0.000 A 
ATOM     22  C   LIG    1        2.377   1.411  -0.013  0.00  0.00    +0.005 A 
ATOM     23  C   LIG    1        2.396   0.029  -0.020  0.00  0.00    -0.030 A 
ATOM     24  C   LIG    1        1.208  -0.679  -0.012  0.00  0.00    +0.005 A 
ATOM     25  C   LIG    1        0.002  -0.004   0.002  0.00  0.00    +0.000 A 
ENDBRANCH  19  23
ENDBRANCH  17  19
ENDBRANCH   1  17
TORSDOF 4
