REMARK  Name = ZINC00161662
REMARK                            x       y       z     vdW  Elec       q    Type
REMARK                         _______ _______ _______ _____ _____    ______ ____
ROOT
ATOM      1  N   LIG    1       -1.372  -0.511   0.012  0.00  0.00    -0.241 N 
ATOM      2  C   LIG    1       -1.958  -1.310  -0.937  0.00  0.00    +0.089 A 
ATOM      3  C   LIG    1       -1.510  -1.872  -2.131  0.00  0.00    +0.030 A 
ATOM      4  C   LIG    1       -2.347  -2.642  -2.881  0.00  0.00    +0.017 A 
ATOM      5  C   LIG    1       -3.665  -2.878  -2.460  0.00  0.00    +0.061 A 
ATOM      6  C   LIG    1       -4.130  -2.327  -1.271  0.00  0.00    +0.046 A 
ATOM      7  C   LIG    1       -3.276  -1.536  -0.498  0.00  0.00    +0.113 A 
ATOM      8  N   LIG    1       -3.435  -0.878   0.675  0.00  0.00    -0.129 NA
ATOM      9  N   LIG    1       -2.343  -0.279   0.998  0.00  0.00    -0.064 NA
ENDROOT
BRANCH   1  11
ATOM     10  C   LIG    1       -0.019   1.526   0.010  0.00  0.00    +0.032 C 
ATOM     11  C   LIG    1        0.002  -0.004   0.002  0.00  0.00    +0.103 C 
ATOM     12  C   LIG    1        0.742  -0.511   1.242  0.00  0.00    +0.032 C 
ENDBRANCH   1  11
BRANCH   5  13
ATOM     13  C   LIG    1       -4.560  -3.713  -3.281  0.00  0.00    +0.337 C 
ATOM     14  O   LIG    1       -4.154  -4.199  -4.328  0.00  0.00    -0.245 OA
BRANCH  13  15
ATOM     15  O   LIG    1       -5.709  -3.920  -2.917  0.00  0.00    -0.477 OA
ATOM     16  H   LIG    1       -6.020  -3.548  -2.115  0.00  0.00    +0.295 HD
ENDBRANCH  13  15
ENDBRANCH   5  13
TORSDOF 3
