REMARK  Name = ZINC00127333
REMARK                            x       y       z     vdW  Elec       q    Type
REMARK                         _______ _______ _______ _____ _____    ______ ____
ROOT
ATOM      1  C   LIG    1       -1.098   1.708   0.962  0.00  0.00    +0.085 A 
ATOM      2  C   LIG    1       -2.368   1.198   1.196  0.00  0.00    +0.068 A 
ATOM      3  C   LIG    1       -3.440   2.149   1.437  0.00  0.00    -0.023 A 
ATOM      4  C   LIG    1       -3.075   3.449   1.395  0.00  0.00    -0.004 A 
ATOM      5  C   LIG    1       -3.958   4.642   1.598  0.00  0.00    +0.043 C 
ATOM      6  C   LIG    1       -5.421   4.184   1.491  0.00  0.00    +0.005 C 
ATOM      7  C   LIG    1       -5.610   2.932   2.352  0.00  0.00    +0.005 C 
ATOM      8  C   LIG    1       -4.883   1.747   1.714  0.00  0.00    +0.037 C 
ATOM      9  S   LIG    1       -1.339   3.422   1.050  0.00  0.00    -0.077 S 
ENDROOT
BRANCH   2  10
ATOM     10  C   LIG    1       -2.618  -0.246   1.202  0.00  0.00    +0.244 C 
ATOM     11  N   LIG    1       -2.956  -0.877   0.060  0.00  0.00    -0.325 N 
ATOM     12  H   LIG    1       -3.121  -1.833   0.065  0.00  0.00    +0.145 HD
ATOM     13  H   LIG    1       -3.034  -0.376  -0.766  0.00  0.00    +0.145 HD
ATOM     14  O   LIG    1       -2.519  -0.876   2.239  0.00  0.00    -0.270 OA
ENDBRANCH   2  10
BRANCH   1  16
ATOM     15  C   LIG    1        1.222   1.689   0.496  0.00  0.00    +0.249 C 
ATOM     16  N   LIG    1        0.075   1.016   0.713  0.00  0.00    -0.275 N 
ATOM     17  H   LIG    1        0.071   0.046   0.691  0.00  0.00    +0.156 HD
ATOM     18  O   LIG    1        1.228   2.905   0.524  0.00  0.00    -0.270 OA
BRANCH  15  25
ATOM     19  C   LIG    1        3.617   3.146  -0.223  0.00  0.00    +0.044 C 
ATOM     20  C   LIG    1        3.635   1.642  -0.123  0.00  0.00    -0.038 A 
ATOM     21  C   LIG    1        4.799   0.946  -0.375  0.00  0.00    +0.004 A 
ATOM     22  C   LIG    1        4.817  -0.434  -0.284  0.00  0.00    +0.000 A 
ATOM     23  C   LIG    1        3.669  -1.126   0.060  0.00  0.00    +0.001 A 
ATOM     24  C   LIG    1        2.500  -0.442   0.320  0.00  0.00    +0.013 A 
ATOM     25  C   LIG    1        2.473   0.950   0.224  0.00  0.00    +0.040 A 
ENDBRANCH  15  25
ENDBRANCH   1  16
TORSDOF 3
