REMARK  Name = ZINC00076663
REMARK                            x       y       z     vdW  Elec       q    Type
REMARK                         _______ _______ _______ _____ _____    ______ ____
ROOT
ATOM      1  C   LIG    1        0.174   0.961   2.735  0.00  0.00    +0.193 A 
ATOM      2  N   LIG    1       -0.099   1.156   4.024  0.00  0.00    -0.207 NA
ATOM      3  C   LIG    1        0.674   0.621   4.953  0.00  0.00    +0.132 A 
ATOM      4  C   LIG    1        0.358   0.840   6.410  0.00  0.00    +0.088 C 
ATOM      5  N   LIG    1        1.725  -0.102   4.608  0.00  0.00    -0.200 NA
ATOM      6  C   LIG    1        2.007  -0.297   3.321  0.00  0.00    +0.217 A 
ATOM      7  N   LIG    1        1.231   0.234   2.384  0.00  0.00    -0.189 NA
ENDROOT
BRANCH   6   8
ATOM      8  N   LIG    1        3.106  -1.052   2.962  0.00  0.00    -0.327 N 
ATOM      9  H   LIG    1        3.673  -1.440   3.647  0.00  0.00    +0.145 HD
ATOM     10  H   LIG    1        3.311  -1.194   2.025  0.00  0.00    +0.145 HD
ENDBRANCH   6   8
BRANCH   1  11
ATOM     11  S   LIG    1       -0.860   1.669   1.497  0.00  0.00    -0.086 S 
BRANCH  11  13
ATOM     12  C   LIG    1       -0.753   1.593  -1.232  0.00  0.00    +0.016 C 
ATOM     13  C   LIG    1       -0.013   1.086   0.008  0.00  0.00    +0.074 C 
ENDBRANCH  11  13
ENDBRANCH   1  11
TORSDOF 3
