REMARK  Name = ZINC00143548
REMARK                            x       y       z     vdW  Elec       q    Type
REMARK                         _______ _______ _______ _____ _____    ______ ____
ROOT
ATOM      1  N   LIG    1        4.282   2.434   1.581  0.00  0.00    -0.216 N 
ATOM      2  H   LIG    1        3.779   3.139   2.016  0.00  0.00    +0.174 HD
ENDROOT
BRANCH   1   3
ATOM      3  C   LIG    1        4.641   1.289   2.296  0.00  0.00    +0.048 A 
ATOM      4  C   LIG    1        3.968   0.093   2.079  0.00  0.00    +0.026 A 
ATOM      5  C   LIG    1        4.325  -1.037   2.787  0.00  0.00    +0.030 A 
ATOM      6  C   LIG    1        5.352  -0.980   3.712  0.00  0.00    +0.105 A 
ATOM      7  C   LIG    1        6.024   0.209   3.930  0.00  0.00    +0.030 A 
ATOM      8  C   LIG    1        5.676   1.341   3.221  0.00  0.00    +0.026 A 
BRANCH   6   9
ATOM      9  S   LIG    1        5.804  -2.424   4.614  0.00  0.00    +0.056 S 
ATOM     10  O   LIG    1        4.664  -3.272   4.622  0.00  0.00    -0.153 OA
ATOM     11  O   LIG    1        6.429  -1.977   5.809  0.00  0.00    -0.153 OA
BRANCH   9  12
ATOM     12  N   LIG    1        6.969  -3.206   3.734  0.00  0.00    -0.204 NA
ATOM     13  H   LIG    1        6.976  -3.136   2.767  0.00  0.00    +0.144 HD
ATOM     14  H   LIG    1        7.645  -3.735   4.186  0.00  0.00    +0.144 HD
ENDBRANCH   9  12
ENDBRANCH   6   9
ENDBRANCH   1   3
BRANCH   1  15
ATOM     15  S   LIG    1        4.717   2.586  -0.010  0.00  0.00    +0.072 S 
ATOM     16  O   LIG    1        4.299   1.395  -0.662  0.00  0.00    -0.150 OA
ATOM     17  O   LIG    1        4.284   3.874  -0.427  0.00  0.00    -0.150 OA
BRANCH  15  20
ATOM     18  C   LIG    1        8.550   1.440  -0.367  0.00  0.00    +0.024 A 
ATOM     19  C   LIG    1        7.170   1.431  -0.319  0.00  0.00    +0.030 A 
ATOM     20  C   LIG    1        6.478   2.602  -0.070  0.00  0.00    +0.109 A 
ATOM     21  C   LIG    1        7.164   3.786   0.130  0.00  0.00    +0.030 A 
ATOM     22  C   LIG    1        8.544   3.802   0.083  0.00  0.00    +0.024 A 
ATOM     23  C   LIG    1        9.243   2.627  -0.166  0.00  0.00    +0.025 A 
BRANCH  23  24
ATOM     24  N   LIG    1       10.639   2.640  -0.214  0.00  0.00    -0.358 N 
ATOM     25  H   LIG    1       11.121   3.470  -0.074  0.00  0.00    +0.142 HD
ATOM     26  H   LIG    1       11.125   1.819  -0.388  0.00  0.00    +0.142 HD
ENDBRANCH  23  24
ENDBRANCH  15  20
ENDBRANCH   1  15
TORSDOF 6
