REMARK  Name = ZINC00134036
REMARK                            x       y       z     vdW  Elec       q    Type
REMARK                         _______ _______ _______ _____ _____    ______ ____
ROOT
ATOM      1  C   LIG    1       -1.081  -2.089   0.091  0.00  0.00    +0.033 A 
ATOM      2  C   LIG    1        0.155  -2.716   0.178  0.00  0.00    +0.025 A 
ATOM      3  C   LIG    1        0.225  -4.092   0.259  0.00  0.00    +0.030 A 
ATOM      4  C   LIG    1       -0.934  -4.847   0.254  0.00  0.00    +0.105 A 
ATOM      5  C   LIG    1       -2.166  -4.226   0.168  0.00  0.00    +0.030 A 
ATOM      6  C   LIG    1       -2.244  -2.849   0.093  0.00  0.00    +0.025 A 
ENDROOT
BRANCH   1   9
ATOM      7  C   LIG    1       -2.194   1.470   0.609  0.00  0.00    +0.109 C 
ATOM      8  C   LIG    1       -2.169  -0.037   0.608  0.00  0.00    +0.214 C 
ATOM      9  N   LIG    1       -1.156  -0.694   0.009  0.00  0.00    -0.286 N 
ATOM     10  H   LIG    1       -0.478  -0.200  -0.478  0.00  0.00    +0.155 HD
ATOM     11  O   LIG    1       -3.061  -0.658   1.145  0.00  0.00    -0.276 OA
ENDBRANCH   1   9
BRANCH   4  12
ATOM     12  S   LIG    1       -0.840  -6.603   0.357  0.00  0.00    +0.056 S 
ATOM     13  O   LIG    1        0.447  -6.970  -0.121  0.00  0.00    -0.153 OA
ATOM     14  O   LIG    1       -2.038  -7.108  -0.216  0.00  0.00    -0.153 OA
BRANCH  12  15
ATOM     15  N   LIG    1       -0.878  -7.002   1.964  0.00  0.00    -0.204 NA
ATOM     16  H   LIG    1       -0.837  -7.933   2.234  0.00  0.00    +0.144 HD
ATOM     17  H   LIG    1       -0.943  -6.305   2.635  0.00  0.00    +0.144 HD
ENDBRANCH  12  15
ENDBRANCH   4  12
TORSDOF 3
