REMARK  Name = ZINC00146377
REMARK                            x       y       z     vdW  Elec       q    Type
REMARK                         _______ _______ _______ _____ _____    ______ ____
ROOT
ATOM      1  N   LIG    1       -2.927   0.722   1.401  0.00  0.00    -0.210 N 
ATOM      2  C   LIG    1       -3.708   1.613   2.037  0.00  0.00    +0.346 A 
ATOM      3  N   LIG    1       -4.108   1.403   3.305  0.00  0.00    -0.273 N 
ATOM      4  C   LIG    1       -3.718   0.291   3.961  0.00  0.00    +0.272 A 
ATOM      5  C   LIG    1       -2.862  -0.680   3.274  0.00  0.00    +0.203 A 
ATOM      6  O   LIG    1       -4.072   0.097   5.109  0.00  0.00    -0.266 OA
ATOM      7  H   LIG    1       -4.675   2.054   3.749  0.00  0.00    +0.174 HD
ATOM      8  O   LIG    1       -4.062   2.621   1.456  0.00  0.00    -0.245 OA
ATOM      9  N   LIG    1       -2.498  -0.445   2.044  0.00  0.00    -0.170 NA
ENDROOT
BRANCH   1  10
ATOM     10  C   LIG    1       -2.514   0.980   0.019  0.00  0.00    +0.184 C 
BRANCH  10  14
ATOM     11  C   LIG    1        1.156   3.165   0.008  0.00  0.00    +0.000 A 
ATOM     12  C   LIG    1        1.175   1.783   0.000  0.00  0.00    +0.000 A 
ATOM     13  C   LIG    1       -0.013   1.076   0.008  0.00  0.00    +0.005 A 
ATOM     14  C   LIG    1       -1.219   1.751   0.017  0.00  0.00    -0.026 A 
ATOM     15  C   LIG    1       -1.238   3.133   0.030  0.00  0.00    +0.005 A 
ATOM     16  C   LIG    1       -0.050   3.840   0.022  0.00  0.00    +0.000 A 
ENDBRANCH  10  14
ENDBRANCH   1  10
TORSDOF 2
