REMARK  Name = ZINC00165878
REMARK                            x       y       z     vdW  Elec       q    Type
REMARK                         _______ _______ _______ _____ _____    ______ ____
ROOT
ATOM      1  N   LIG    1        3.571  -1.161  -3.289  0.00  0.00    -0.254 N 
ATOM      2  H   LIG    1        3.636  -1.551  -4.175  0.00  0.00    +0.158 HD
ATOM      3  C   LIG    1        4.688  -0.776  -2.640  0.00  0.00    +0.309 C 
ATOM      4  N   LIG    1        5.894  -0.933  -3.221  0.00  0.00    -0.269 N 
ATOM      5  H   LIG    1        5.964  -1.384  -4.077  0.00  0.00    +0.156 HD
ATOM      6  O   LIG    1        4.608  -0.287  -1.530  0.00  0.00    -0.252 OA
ENDROOT
BRANCH   4   7
ATOM      7  C   LIG    1        7.044  -0.446  -2.590  0.00  0.00    +0.035 A 
ATOM      8  C   LIG    1        7.147  -0.484  -1.206  0.00  0.00    +0.025 A 
ATOM      9  C   LIG    1        8.283  -0.003  -0.585  0.00  0.00    +0.022 A 
ATOM     10  C   LIG    1        9.319   0.516  -1.342  0.00  0.00    +0.041 A 
ATOM     11 CL   LIG    1       10.746   1.120  -0.559  0.00  0.00    -0.084 Cl
ATOM     12  C   LIG    1        9.219   0.555  -2.721  0.00  0.00    +0.022 A 
ATOM     13  C   LIG    1        8.087   0.070  -3.347  0.00  0.00    +0.025 A 
ENDBRANCH   4   7
BRANCH   1  16
ATOM     14  C   LIG    1        0.707  -0.488  -1.239  0.00  0.00    +0.070 A 
ATOM     15  C   LIG    1        2.088  -0.468  -1.456  0.00  0.00    +0.069 A 
ATOM     16  C   LIG    1        2.324  -0.998  -2.687  0.00  0.00    +0.124 A 
ATOM     17  N   LIG    1        1.129  -1.338  -3.221  0.00  0.00    -0.253 N 
ATOM     18  C   LIG    1        0.914  -1.944  -4.538  0.00  0.00    +0.174 C 
ATOM     19  N   LIG    1        0.133  -1.013  -2.291  0.00  0.00    -0.174 NA
BRANCH  14  21
ATOM     20  C   LIG    1       -0.023   1.534  -0.004  0.00  0.00    +0.017 C 
ATOM     21  C   LIG    1        0.001   0.004  -0.002  0.00  0.00    +0.006 C 
ATOM     22  C   LIG    1       -1.433  -0.528   0.013  0.00  0.00    +0.017 C 
ATOM     23  C   LIG    1        0.743  -0.493   1.240  0.00  0.00    +0.017 C 
ENDBRANCH  14  21
ENDBRANCH   1  16
TORSDOF 3
