REMARK  Name = ZINC00122408
REMARK                            x       y       z     vdW  Elec       q    Type
REMARK                         _______ _______ _______ _____ _____    ______ ____
ROOT
ATOM      1  C   LIG    1        0.967   3.540  -0.816  0.00  0.00    -0.023 A 
ATOM      2  C   LIG    1        2.064   4.377  -0.755  0.00  0.00    +0.006 A 
ATOM      3  C   LIG    1        3.247   3.929  -0.196  0.00  0.00    +0.001 A 
ATOM      4  C   LIG    1        3.334   2.644   0.307  0.00  0.00    +0.006 A 
ATOM      5  C   LIG    1        2.239   1.804   0.253  0.00  0.00    -0.023 A 
ATOM      6  C   LIG    1        1.050   2.251  -0.307  0.00  0.00    +0.042 A 
ENDROOT
BRANCH   6   7
ATOM      7  N   LIG    1       -0.061   1.402  -0.364  0.00  0.00    -0.269 N 
ATOM      8  H   LIG    1       -0.002   0.556  -0.836  0.00  0.00    +0.156 HD
ATOM      9  C   LIG    1       -1.216   1.761   0.232  0.00  0.00    +0.308 C 
ATOM     10  N   LIG    1       -2.260   0.910   0.246  0.00  0.00    -0.269 N 
ATOM     11  H   LIG    1       -2.208   0.069  -0.235  0.00  0.00    +0.156 HD
ATOM     12  O   LIG    1       -1.314   2.854   0.756  0.00  0.00    -0.252 OA
BRANCH  10  13
ATOM     13  C   LIG    1       -3.421   1.238   0.956  0.00  0.00    +0.035 A 
ATOM     14  C   LIG    1       -3.333   1.976   2.129  0.00  0.00    +0.023 A 
ATOM     15  C   LIG    1       -4.481   2.304   2.824  0.00  0.00    +0.002 A 
ATOM     16  C   LIG    1       -5.715   1.888   2.359  0.00  0.00    +0.000 A 
ATOM     17  C   LIG    1       -5.805   1.148   1.195  0.00  0.00    +0.002 A 
ATOM     18  C   LIG    1       -4.662   0.822   0.492  0.00  0.00    +0.023 A 
ENDBRANCH  10  13
ENDBRANCH   6   7
BRANCH   1  20
ATOM     19  C   LIG    1       -0.734   5.344  -0.771  0.00  0.00    +0.012 C 
ATOM     20  C   LIG    1       -0.320   4.027  -1.430  0.00  0.00    +0.015 C 
ATOM     21  C   LIG    1       -0.117   4.250  -2.930  0.00  0.00    +0.012 C 
ENDBRANCH   1  20
BRANCH   5  22
ATOM     22  C   LIG    1        2.335   0.403   0.801  0.00  0.00    +0.015 C 
ATOM     23  C   LIG    1        2.683   0.460   2.290  0.00  0.00    +0.012 C 
ATOM     24  C   LIG    1        3.427  -0.364   0.052  0.00  0.00    +0.012 C 
ENDBRANCH   5  22
TORSDOF 4
