REMARK  Name = ZINC00141475
REMARK                            x       y       z     vdW  Elec       q    Type
REMARK                         _______ _______ _______ _____ _____    ______ ____
ROOT
ATOM      1  C   LIG    1        0.801  -1.818   1.305  0.00  0.00    +0.323 A 
ATOM      2  N   LIG    1        0.282  -2.629   0.391  0.00  0.00    -0.165 NA
ATOM      3  C   LIG    1        0.388  -3.947   0.532  0.00  0.00    +0.239 A 
ATOM      4  N   LIG    1        1.015  -4.452   1.590  0.00  0.00    -0.185 NA
ATOM      5  C   LIG    1        1.534  -3.640   2.505  0.00  0.00    +0.225 A 
ATOM      6  N   LIG    1        1.431  -2.322   2.358  0.00  0.00    -0.161 NA
ENDROOT
BRANCH   5   7
ATOM      7  N   LIG    1        2.185  -4.163   3.603  0.00  0.00    -0.299 N 
ATOM      8  C   LIG    1        2.759  -3.278   4.626  0.00  0.00    +0.108 C 
ATOM      9  C   LIG    1        2.215  -3.690   5.997  0.00  0.00    +0.019 C 
ATOM     10  C   LIG    1        2.493  -5.178   6.226  0.00  0.00    +0.003 C 
ATOM     11  C   LIG    1        1.778  -6.003   5.154  0.00  0.00    +0.019 C 
ATOM     12  C   LIG    1        2.311  -5.617   3.776  0.00  0.00    +0.108 C 
ENDBRANCH   5   7
BRANCH   3  13
ATOM     13  C   LIG    1       -0.173  -4.821  -0.454  0.00  0.00    +0.140 C 
ATOM     14  N   LIG    1       -0.617  -5.514  -1.236  0.00  0.00    -0.188 NA
ENDBRANCH   3  13
BRANCH   1  15
ATOM     15  O   LIG    1        0.693  -0.477   1.160  0.00  0.00    -0.463 OA
BRANCH  15  17
ATOM     16  C   LIG    1       -0.019   1.526   0.010  0.00  0.00    +0.048 C 
ATOM     17  C   LIG    1        0.002  -0.004   0.002  0.00  0.00    +0.229 C 
ENDBRANCH  15  17
ENDBRANCH   1  15
TORSDOF 4
