REMARK  Name = ZINC00172632
REMARK                            x       y       z     vdW  Elec       q    Type
REMARK                         _______ _______ _______ _____ _____    ______ ____
ROOT
ATOM      1  C   LIG    1       -0.014   1.386  -0.172  0.00  0.00    +0.004 C 
ATOM      2  C   LIG    1        1.144   2.106  -0.118  0.00  0.00    +0.019 C 
ATOM      3  C   LIG    1        2.376   1.443  -0.072  0.00  0.00    +0.065 C 
ATOM      4  C   LIG    1        2.406   0.028  -0.083  0.00  0.00    +0.066 C 
ATOM      5  C   LIG    1        3.663  -0.619  -0.036  0.00  0.00    +0.128 C 
ATOM      6  N   LIG    1        4.755   0.131   0.017  0.00  0.00    -0.274 NA
ATOM      7  H   LIG    1        5.318  -0.122  -0.796  0.00  0.00    +0.126 HD
ATOM      8  C   LIG    1        4.684   1.459   0.025  0.00  0.00    +0.193 C 
ATOM      9  C   LIG    1        1.201  -0.691  -0.139  0.00  0.00    +0.126 C 
ATOM     10  N   LIG    1        3.538   2.113  -0.017  0.00  0.00    -0.286 NA
ATOM     11  H   LIG    1        3.536   3.083  -0.009  0.00  0.00    +0.125 HD
ATOM     12  C   LIG    1        0.005  -0.003  -0.183  0.00  0.00    +0.032 C 
ENDROOT
BRANCH   5  13
ATOM     13  N   LIG    1        3.751  -1.995  -0.043  0.00  0.00    -0.315 NA
ATOM     14  H   LIG    1        4.545  -2.432   0.302  0.00  0.00    +0.120 HD
ATOM     15  H   LIG    1        3.019  -2.526  -0.394  0.00  0.00    +0.120 HD
ENDBRANCH   5  13
BRANCH   8  16
ATOM     16  N   LIG    1        5.859   2.186   0.081  0.00  0.00    -0.303 NA
ATOM     17  H   LIG    1        5.830   3.155   0.088  0.00  0.00    +0.121 HD
ATOM     18  H   LIG    1        6.713   1.726   0.113  0.00  0.00    +0.121 HD
ENDBRANCH   8  16
BRANCH   9  19
ATOM     19  O   LIG    1        1.213  -2.049  -0.151  0.00  0.00    -0.372 OA
BRANCH  19  20
ATOM     20  C   LIG    1       -0.054  -2.707  -0.210  0.00  0.00    +0.195 C 
BRANCH  20  21
ATOM     21  C   LIG    1        0.155  -4.199  -0.214  0.00  0.00    -0.022 A 
ATOM     22  C   LIG    1        0.307  -4.872  -1.412  0.00  0.00    +0.006 A 
ATOM     23  C   LIG    1        0.499  -6.241  -1.417  0.00  0.00    +0.013 A 
ATOM     24  C   LIG    1        0.540  -6.937  -0.223  0.00  0.00    +0.055 A 
ATOM     25  C   LIG    1        0.390  -6.264   0.975  0.00  0.00    +0.013 A 
ATOM     26  C   LIG    1        0.202  -4.895   0.980  0.00  0.00    +0.006 A 
BRANCH  24  27
ATOM     27  C   LIG    1        0.749  -8.430  -0.228  0.00  0.00    +0.417 C 
ATOM     28  F   LIG    1        0.213  -8.972  -1.401  0.00  0.00    -0.166 F 
ATOM     29  F   LIG    1        0.109  -8.994   0.881  0.00  0.00    -0.166 F 
ATOM     30  F   LIG    1        2.118  -8.709  -0.168  0.00  0.00    -0.166 F 
ENDBRANCH  24  27
ENDBRANCH  20  21
ENDBRANCH  19  20
ENDBRANCH   9  19
TORSDOF 6
