REMARK  Name = ZINC00114547
REMARK                            x       y       z     vdW  Elec       q    Type
REMARK                         _______ _______ _______ _____ _____    ______ ____
ROOT
ATOM      1  C   LIG    1       -3.605   0.634   0.041  0.00  0.00    +0.266 C 
ATOM      2  N   LIG    1       -4.248  -0.550   0.042  0.00  0.00    -0.259 N 
ATOM      3  H   LIG    1       -3.742  -1.377   0.033  0.00  0.00    +0.157 HD
ATOM      4  O   LIG    1       -4.240   1.671   0.053  0.00  0.00    -0.268 OA
ENDROOT
BRANCH   1  11
ATOM      5  C   LIG    1        2.386   1.430  -0.013  0.00  0.00    +0.121 A 
ATOM      6  C   LIG    1        2.399   0.036  -0.021  0.00  0.00    +0.047 A 
ATOM      7  C   LIG    1        1.221  -0.675  -0.014  0.00  0.00    +0.030 A 
ATOM      8  C   LIG    1        0.002  -0.004   0.002  0.00  0.00    +0.047 A 
ATOM      9  C   LIG    1       -0.017   1.404   0.010  0.00  0.00    +0.004 A 
ATOM     10  C   LIG    1       -1.376   1.799   0.031  0.00  0.00    +0.041 A 
ATOM     11  C   LIG    1       -2.136   0.672   0.027  0.00  0.00    +0.103 A 
ATOM     12  N   LIG    1       -1.306  -0.433   0.013  0.00  0.00    -0.351 N 
ATOM     13  H   LIG    1       -1.598  -1.358   0.011  0.00  0.00    +0.166 HD
ATOM     14  C   LIG    1        1.190   2.115   0.002  0.00  0.00    +0.055 A 
BRANCH   5  16
ATOM     15  C   LIG    1        4.763   1.346  -0.036  0.00  0.00    +0.277 C 
ATOM     16  O   LIG    1        3.560   2.117  -0.020  0.00  0.00    -0.495 OA
ENDBRANCH   5  16
ENDBRANCH   1  11
BRANCH   2  17
ATOM     17  C   LIG    1       -5.632  -0.586   0.055  0.00  0.00    +0.166 A 
ATOM     18  N   LIG    1       -6.429  -1.629   0.058  0.00  0.00    -0.225 NA
ATOM     19  C   LIG    1       -7.774  -1.515   0.072  0.00  0.00    +0.080 A 
ATOM     20  C   LIG    1       -8.739  -2.549   0.077  0.00  0.00    +0.029 A 
ATOM     21  C   LIG    1      -10.078  -2.258   0.092  0.00  0.00    +0.002 A 
ATOM     22  C   LIG    1      -10.535  -0.948   0.103  0.00  0.00    +0.001 A 
ATOM     23  C   LIG    1       -9.620   0.089   0.098  0.00  0.00    +0.017 A 
ATOM     24  C   LIG    1       -8.277  -0.193   0.083  0.00  0.00    +0.041 A 
ATOM     25  S   LIG    1       -6.788   0.777   0.081  0.00  0.00    -0.052 S 
ENDBRANCH   2  17
TORSDOF 3
