REMARK  Name = ZINC00165587
REMARK                            x       y       z     vdW  Elec       q    Type
REMARK                         _______ _______ _______ _____ _____    ______ ____
ROOT
ATOM      1  C   LIG    1       -0.017   1.380   0.010  0.00  0.00    +0.001 A 
ATOM      2  C   LIG    1        1.165   2.100   0.002  0.00  0.00    +0.001 A 
ATOM      3  C   LIG    1        2.386   1.448  -0.013  0.00  0.00    +0.012 A 
ATOM      4  C   LIG    1        2.425   0.058  -0.021  0.00  0.00    +0.028 A 
ATOM      5  C   LIG    1        1.220  -0.677  -0.013  0.00  0.00    +0.028 A 
ATOM      6  C   LIG    1        1.272  -2.151  -0.020  0.00  0.00    +0.164 C 
ATOM      7  C   LIG    1        2.568  -2.826  -0.410  0.00  0.00    +0.087 C 
ATOM      8  C   LIG    1        3.721  -2.132   0.329  0.00  0.00    +0.087 C 
ATOM      9  O   LIG    1        0.298  -2.806   0.281  0.00  0.00    -0.292 OA
ATOM     10  C   LIG    1        3.711  -0.664  -0.039  0.00  0.00    +0.164 C 
ATOM     11  O   LIG    1        4.738  -0.095  -0.340  0.00  0.00    -0.292 OA
ATOM     12  C   LIG    1        0.002  -0.004   0.002  0.00  0.00    +0.012 A 
ENDROOT
TORSDOF 0
