REMARK  Name = ZINC00084444
REMARK                            x       y       z     vdW  Elec       q    Type
REMARK                         _______ _______ _______ _____ _____    ______ ____
ROOT
ATOM      1  C   LIG    1       -0.016   1.357   0.009  0.00  0.00    +0.001 A 
ATOM      2  C   LIG    1        1.169   2.091   0.002  0.00  0.00    +0.001 A 
ATOM      3  C   LIG    1        2.378   1.468  -0.013  0.00  0.00    +0.008 A 
ATOM      4  C   LIG    1        2.438   0.063  -0.021  0.00  0.00    -0.016 A 
ATOM      5  C   LIG    1        3.668  -0.615  -0.036  0.00  0.00    +0.037 A 
ATOM      6  C   LIG    1        3.687  -1.976  -0.043  0.00  0.00    +0.106 A 
ATOM      7  C   LIG    1        2.502  -2.710  -0.036  0.00  0.00    +0.029 A 
ATOM      8  C   LIG    1        1.292  -2.087  -0.021  0.00  0.00    +0.010 A 
ATOM      9  C   LIG    1        1.233  -0.683  -0.013  0.00  0.00    -0.018 A 
ATOM     10  C   LIG    1        0.002  -0.004   0.002  0.00  0.00    +0.008 A 
ENDROOT
BRANCH   6  11
ATOM     11  S   LIG    1        5.231  -2.823  -0.063  0.00  0.00    +0.059 S 
ATOM     12  O   LIG    1        6.181  -1.923  -0.619  0.00  0.00    -0.153 OA
ATOM     13  O   LIG    1        4.984  -4.107  -0.618  0.00  0.00    -0.153 OA
BRANCH  11  14
ATOM     14  N   LIG    1        5.677  -3.066   1.513  0.00  0.00    -0.179 NA
ATOM     15  H   LIG    1        6.469  -2.632   1.866  0.00  0.00    +0.149 HD
BRANCH  14  16
ATOM     16  C   LIG    1        4.873  -3.937   2.375  0.00  0.00    +0.226 C 
BRANCH  16  17
ATOM     17  C   LIG    1        5.662  -4.286   3.611  0.00  0.00    +0.320 C 
ATOM     18  O   LIG    1        6.790  -3.848   3.758  0.00  0.00    -0.250 OA
BRANCH  17  19
ATOM     19  O   LIG    1        5.171  -5.006   4.464  0.00  0.00    -0.480 OA
ATOM     20  H   LIG    1        4.304  -5.343   4.351  0.00  0.00    +0.295 HD
ENDBRANCH  17  19
ENDBRANCH  16  17
ENDBRANCH  14  16
ENDBRANCH  11  14
ENDBRANCH   6  11
TORSDOF 5
