REMARK  Name = ZINC00281656
REMARK                            x       y       z     vdW  Elec       q    Type
REMARK                         _______ _______ _______ _____ _____    ______ ____
ROOT
ATOM      1  C   LIG    1       -4.955  -2.616   0.038  0.00  0.00    +0.248 C 
ATOM      2  N   LIG    1       -5.008  -3.962   0.033  0.00  0.00    -0.280 N 
ATOM      3  H   LIG    1       -4.191  -4.479  -0.050  0.00  0.00    +0.155 HD
ATOM      4  O   LIG    1       -5.984  -1.967   0.040  0.00  0.00    -0.270 OA
ENDROOT
BRANCH   1   8
ATOM      5  C   LIG    1       -1.198  -0.637   0.047  0.00  0.00    +0.120 A 
ATOM      6  C   LIG    1       -2.372   0.106   0.049  0.00  0.00    +0.046 A 
ATOM      7  C   LIG    1       -3.593  -0.532   0.046  0.00  0.00    +0.016 A 
ATOM      8  C   LIG    1       -3.649  -1.928   0.041  0.00  0.00    +0.037 A 
ATOM      9  C   LIG    1       -2.466  -2.672   0.039  0.00  0.00    +0.016 A 
ATOM     10  C   LIG    1       -1.250  -2.026   0.037  0.00  0.00    +0.046 A 
BRANCH   5  12
ATOM     11  C   LIG    1       -0.016   1.423   0.061  0.00  0.00    +0.277 C 
ATOM     12  O   LIG    1        0.003  -0.005   0.050  0.00  0.00    -0.495 OA
ENDBRANCH   5  12
ENDBRANCH   1   8
BRANCH   2  13
ATOM     13  C   LIG    1       -6.242  -4.616   0.147  0.00  0.00    +0.055 A 
ATOM     14  C   LIG    1       -7.311  -3.981   0.761  0.00  0.00    +0.025 A 
ATOM     15  C   LIG    1       -8.528  -4.627   0.872  0.00  0.00    +0.002 A 
ATOM     16  C   LIG    1       -8.684  -5.907   0.373  0.00  0.00    +0.002 A 
ATOM     17  C   LIG    1       -7.623  -6.548  -0.240  0.00  0.00    +0.024 A 
ATOM     18  C   LIG    1       -6.401  -5.905  -0.362  0.00  0.00    +0.046 A 
BRANCH  18  19
ATOM     19  N   LIG    1       -5.328  -6.549  -0.988  0.00  0.00    -0.357 N 
ATOM     20  H   LIG    1       -5.440  -7.445  -1.341  0.00  0.00    +0.142 HD
ATOM     21  H   LIG    1       -4.472  -6.099  -1.068  0.00  0.00    +0.142 HD
ENDBRANCH  18  19
ENDBRANCH   2  13
TORSDOF 4
