REMARK  Name = ZINC00159718
REMARK                            x       y       z     vdW  Elec       q    Type
REMARK                         _______ _______ _______ _____ _____    ______ ____
ROOT
ATOM      1  C   LIG    1       -1.554   7.619   0.498  0.00  0.00    +0.001 A 
ATOM      2  C   LIG    1       -0.549   8.438   0.009  0.00  0.00    +0.001 A 
ATOM      3  C   LIG    1        0.626   7.889  -0.468  0.00  0.00    +0.015 A 
ATOM      4  C   LIG    1        0.797   6.513  -0.456  0.00  0.00    +0.017 A 
ATOM      5  C   LIG    1       -0.220   5.675   0.021  0.00  0.00    +0.012 A 
ATOM      6  C   LIG    1       -0.082   4.208   0.020  0.00  0.00    +0.055 A 
ATOM      7  C   LIG    1        1.134   3.567   0.008  0.00  0.00    -0.004 A 
ATOM      8  C   LIG    1        2.448   4.307   0.002  0.00  0.00    +0.112 C 
ATOM      9  C   LIG    1        1.182   2.161   0.002  0.00  0.00    +0.012 A 
ATOM     10  C   LIG    1       -0.017   1.428   0.010  0.00  0.00    +0.124 A 
ATOM     11  C   LIG    1       -1.245   2.133   0.019  0.00  0.00    +0.267 A 
ATOM     12  O   LIG    1       -2.299   1.521   0.023  0.00  0.00    -0.266 OA
ATOM     13  N   LIG    1       -1.248   3.474   0.030  0.00  0.00    -0.321 N 
ATOM     14  H   LIG    1       -2.124   3.956   0.046  0.00  0.00    +0.169 HD
ATOM     15  S   LIG    1        2.303   5.795  -1.028  0.00  0.00    -0.120 S 
ATOM     16  C   LIG    1       -1.402   6.250   0.507  0.00  0.00    +0.011 A 
ENDROOT
BRANCH   9  17
ATOM     17  C   LIG    1        2.485   1.459  -0.012  0.00  0.00    +0.002 A 
ATOM     18  C   LIG    1        2.860   0.677  -1.111  0.00  0.00    +0.011 A 
ATOM     19  C   LIG    1        4.089   0.042  -1.075  0.00  0.00    +0.020 A 
ATOM     20  C   LIG    1        4.899   0.197   0.035  0.00  0.00    +0.111 A 
ATOM     21  N   LIG    1        4.519   0.941   1.057  0.00  0.00    -0.263 NA
ATOM     22  C   LIG    1        3.362   1.570   1.067  0.00  0.00    +0.119 A 
ENDBRANCH   9  17
BRANCH  10  23
ATOM     23  C   LIG    1        0.002  -0.004   0.002  0.00  0.00    +0.105 C 
ATOM     24  N   LIG    1        0.018  -1.140  -0.004  0.00  0.00    -0.191 NA
ENDBRANCH  10  23
TORSDOF 2
