REMARK  Name = ZINC00209572
REMARK                            x       y       z     vdW  Elec       q    Type
REMARK                         _______ _______ _______ _____ _____    ______ ____
ROOT
ATOM      1  C   LIG    1       -4.893   3.958  -0.149  0.00  0.00    +0.076 C 
ATOM      2  C   LIG    1       -4.911   4.929   1.036  0.00  0.00    +0.049 C 
ATOM      3  C   LIG    1       -4.965   4.126   2.341  0.00  0.00    +0.161 C 
ATOM      4  O   LIG    1       -6.117   3.282   2.333  0.00  0.00    -0.380 OA
ATOM      5  C   LIG    1       -6.131   2.323   1.273  0.00  0.00    +0.161 C 
ATOM      6  C   LIG    1       -6.125   3.052  -0.073  0.00  0.00    +0.049 C 
ENDROOT
BRANCH   1  10
ATOM      7  C   LIG    1       -4.964   6.164  -3.806  0.00  0.00    +0.000 A 
ATOM      8  C   LIG    1       -4.029   6.468  -2.833  0.00  0.00    +0.000 A 
ATOM      9  C   LIG    1       -4.007   5.755  -1.650  0.00  0.00    +0.004 A 
ATOM     10  C   LIG    1       -4.918   4.737  -1.439  0.00  0.00    -0.032 A 
ATOM     11  C   LIG    1       -5.849   4.429  -2.413  0.00  0.00    +0.004 A 
ATOM     12  C   LIG    1       -5.875   5.146  -3.595  0.00  0.00    +0.000 A 
ENDBRANCH   1  10
BRANCH   1  13
ATOM     13  C   LIG    1       -3.643   3.117  -0.092  0.00  0.00    +0.228 C 
ATOM     14  N   LIG    1       -2.439   3.707   0.038  0.00  0.00    -0.285 N 
ATOM     15  H   LIG    1       -2.381   4.663   0.192  0.00  0.00    +0.155 HD
ATOM     16  O   LIG    1       -3.722   1.909  -0.163  0.00  0.00    -0.274 OA
BRANCH  14  17
ATOM     17  C   LIG    1       -1.274   2.943  -0.050  0.00  0.00    +0.036 A 
ATOM     18  C   LIG    1       -1.247   1.627   0.407  0.00  0.00    +0.043 A 
ATOM     19  C   LIG    1       -0.075   0.906   0.306  0.00  0.00    +0.112 A 
ATOM     20  N   LIG    1        1.007   1.446  -0.223  0.00  0.00    -0.263 NA
ATOM     21  C   LIG    1        1.020   2.687  -0.670  0.00  0.00    +0.112 A 
ATOM     22  C   LIG    1       -0.110   3.475  -0.602  0.00  0.00    +0.043 A 
ENDBRANCH  14  17
ENDBRANCH   1  13
TORSDOF 3
