REMARK  Name = ZINC00076963
REMARK                            x       y       z     vdW  Elec       q    Type
REMARK                         _______ _______ _______ _____ _____    ______ ____
ROOT
ATOM      1  C   LIG    1        1.097   5.848   0.523  0.00  0.00    +0.162 A 
ATOM      2  N   LIG    1       -0.050   5.194   0.530  0.00  0.00    -0.227 NA
ATOM      3  C   LIG    1       -0.074   3.866   0.356  0.00  0.00    +0.077 A 
ATOM      4  C   LIG    1       -1.273   3.139   0.359  0.00  0.00    +0.028 A 
ATOM      5  C   LIG    1       -1.243   1.789   0.173  0.00  0.00    +0.002 A 
ATOM      6  C   LIG    1       -0.038   1.117  -0.009  0.00  0.00    +0.001 A 
ATOM      7  C   LIG    1        1.147   1.793  -0.017  0.00  0.00    +0.013 A 
ATOM      8  C   LIG    1        1.151   3.179   0.166  0.00  0.00    +0.040 A 
ATOM      9  C   LIG    1        2.351   3.933   0.167  0.00  0.00    +0.135 A 
ATOM     10  N   LIG    1        2.270   5.243   0.347  0.00  0.00    -0.212 NA
ENDROOT
BRANCH   1  14
ATOM     11  C   LIG    1        1.041  10.062   1.086  0.00  0.00    +0.000 A 
ATOM     12  C   LIG    1       -0.145   9.351   1.089  0.00  0.00    +0.001 A 
ATOM     13  C   LIG    1       -0.133   7.983   0.906  0.00  0.00    +0.011 A 
ATOM     14  C   LIG    1        1.077   7.318   0.719  0.00  0.00    +0.019 A 
ATOM     15  C   LIG    1        2.270   8.039   0.723  0.00  0.00    +0.011 A 
ATOM     16  C   LIG    1        2.246   9.407   0.900  0.00  0.00    +0.001 A 
ENDBRANCH   1  14
BRANCH   9  17
ATOM     17  N   LIG    1        3.573   3.319  -0.014  0.00  0.00    -0.299 N 
ATOM     18  H   LIG    1        3.627   2.352  -0.064  0.00  0.00    +0.154 HD
BRANCH  17  19
ATOM     19  C   LIG    1        4.734   4.090  -0.126  0.00  0.00    +0.035 A 
ATOM     20  C   LIG    1        4.682   5.343  -0.725  0.00  0.00    +0.023 A 
ATOM     21  C   LIG    1        5.830   6.102  -0.833  0.00  0.00    +0.004 A 
ATOM     22  C   LIG    1        7.031   5.617  -0.347  0.00  0.00    +0.033 A 
ATOM     23  C   LIG    1        7.085   4.371   0.250  0.00  0.00    +0.123 A 
ATOM     24  C   LIG    1        5.940   3.608   0.366  0.00  0.00    +0.055 A 
BRANCH  23  25
ATOM     25  N   LIG    1        8.372   3.857   0.770  0.00  0.00    +0.006 N 
ATOM     26  O   LIG    1        9.382   4.531   0.673  0.00  0.00    -0.130 OA
BRANCH  25  27
ATOM     27  O   LIG    1        8.421   2.759   1.296  0.00  0.00    -0.396 OA
ATOM     28  H   LIG    1        7.644   2.240   1.371  0.00  0.00    +0.329 HD
ENDBRANCH  25  27
ENDBRANCH  23  25
ENDBRANCH  17  19
ENDBRANCH   9  17
TORSDOF 5
