REMARK  Name = ZINC00143531
REMARK                            x       y       z     vdW  Elec       q    Type
REMARK                         _______ _______ _______ _____ _____    ______ ____
ROOT
ATOM      1  N   LIG    1       -1.183  -0.721  -0.151  0.00  0.00    -0.269 N 
ATOM      2  H   LIG    1       -2.007  -0.253   0.056  0.00  0.00    +0.156 HD
ATOM      3  C   LIG    1       -1.182  -2.064  -0.264  0.00  0.00    +0.308 C 
ATOM      4  N   LIG    1       -2.341  -2.748  -0.193  0.00  0.00    -0.269 N 
ATOM      5  H   LIG    1       -3.183  -2.270  -0.136  0.00  0.00    +0.156 HD
ATOM      6  O   LIG    1       -0.134  -2.659  -0.429  0.00  0.00    -0.252 OA
ENDROOT
BRANCH   4   7
ATOM      7  C   LIG    1       -2.329  -4.148  -0.201  0.00  0.00    +0.035 A 
ATOM      8  C   LIG    1       -3.368  -4.848  -0.800  0.00  0.00    +0.025 A 
ATOM      9  C   LIG    1       -3.354  -6.229  -0.807  0.00  0.00    +0.022 A 
ATOM     10  C   LIG    1       -2.306  -6.915  -0.216  0.00  0.00    +0.041 A 
ATOM     11 CL   LIG    1       -2.292  -8.651  -0.226  0.00  0.00    -0.084 Cl
ATOM     12  C   LIG    1       -1.270  -6.219   0.381  0.00  0.00    +0.022 A 
ATOM     13  C   LIG    1       -1.277  -4.838   0.386  0.00  0.00    +0.025 A 
ENDBRANCH   4   7
BRANCH   1  19
ATOM     14  C   LIG    1        0.958  -0.452  -1.235  0.00  0.00    +0.025 A 
ATOM     15  C   LIG    1        2.128   0.260  -1.412  0.00  0.00    +0.030 A 
ATOM     16  C   LIG    1        2.349   1.420  -0.692  0.00  0.00    +0.105 A 
ATOM     17  C   LIG    1        1.401   1.870   0.207  0.00  0.00    +0.030 A 
ATOM     18  C   LIG    1        0.228   1.163   0.389  0.00  0.00    +0.025 A 
ATOM     19  C   LIG    1        0.003  -0.002  -0.333  0.00  0.00    +0.035 A 
BRANCH  16  20
ATOM     20  S   LIG    1        3.844   2.325  -0.921  0.00  0.00    +0.056 S 
ATOM     21  O   LIG    1        4.806   1.403  -1.415  0.00  0.00    -0.153 OA
ATOM     22  O   LIG    1        4.049   3.077   0.268  0.00  0.00    -0.153 OA
BRANCH  20  23
ATOM     23  N   LIG    1        3.572   3.421  -2.132  0.00  0.00    -0.204 NA
ATOM     24  H   LIG    1        2.937   3.217  -2.837  0.00  0.00    +0.144 HD
ATOM     25  H   LIG    1        4.047   4.266  -2.138  0.00  0.00    +0.144 HD
ENDBRANCH  20  23
ENDBRANCH  16  20
ENDBRANCH   1  19
TORSDOF 4
