REMARK  Name = ZINC00094333
REMARK                            x       y       z     vdW  Elec       q    Type
REMARK                         _______ _______ _______ _____ _____    ______ ____
ROOT
ATOM      1  C   LIG    1       -3.566  -1.178   0.600  0.00  0.00    +0.124 C 
ATOM      2  N   LIG    1       -3.452  -0.836  -0.651  0.00  0.00    -0.178 NA
ATOM      3  N   LIG    1       -2.995   0.406  -1.055  0.00  0.00    -0.239 N 
ATOM      4  H   LIG    1       -2.913   0.654  -1.989  0.00  0.00    +0.170 HD
ATOM      5  C   LIG    1       -2.647   1.315   0.036  0.00  0.00    +0.203 C 
ATOM      6  C   LIG    1       -1.215   1.747   0.017  0.00  0.00    +0.018 A 
ATOM      7  C   LIG    1       -0.013   1.076   0.008  0.00  0.00    +0.009 A 
ATOM      8  C   LIG    1        1.177   1.782   0.000  0.00  0.00    +0.000 A 
ATOM      9  C   LIG    1        1.156   3.165   0.007  0.00  0.00    +0.002 A 
ATOM     10  C   LIG    1       -0.045   3.843   0.021  0.00  0.00    +0.024 A 
ATOM     11  C   LIG    1       -1.248   3.140   0.029  0.00  0.00    +0.040 A 
ATOM     12  N   LIG    1       -2.570   3.593   0.042  0.00  0.00    -0.282 N 
ATOM     13  H   LIG    1       -2.821   4.530   0.048  0.00  0.00    +0.155 HD
ATOM     14  C   LIG    1       -3.456   2.575   0.046  0.00  0.00    +0.257 C 
ATOM     15  O   LIG    1       -4.665   2.663   0.056  0.00  0.00    -0.272 OA
ATOM     16  S   LIG    1       -3.019   0.272   1.492  0.00  0.00    -0.063 S 
ENDROOT
BRANCH   1  21
ATOM     17  C   LIG    1       -5.402  -6.188   2.756  0.00  0.00    +0.044 C 
ATOM     18  C   LIG    1       -4.921  -4.876   2.191  0.00  0.00    -0.050 A 
ATOM     19  C   LIG    1       -4.868  -4.694   0.821  0.00  0.00    +0.004 A 
ATOM     20  C   LIG    1       -4.429  -3.495   0.297  0.00  0.00    +0.011 A 
ATOM     21  C   LIG    1       -4.038  -2.465   1.154  0.00  0.00    +0.008 A 
ATOM     22  C   LIG    1       -4.088  -2.658   2.535  0.00  0.00    +0.011 A 
ATOM     23  C   LIG    1       -4.535  -3.859   3.046  0.00  0.00    +0.004 A 
ENDBRANCH   1  21
TORSDOF 1
