REMARK  Name = ZINC00180701
REMARK                            x       y       z     vdW  Elec       q    Type
REMARK                         _______ _______ _______ _____ _____    ______ ____
ROOT
ATOM      1  C   LIG    1       -2.800  -2.431   0.231  0.00  0.00    +0.078 C 
ATOM      2  C   LIG    1       -2.985  -3.731  -0.085  0.00  0.00    +0.021 C 
ATOM      3  C   LIG    1       -1.789  -4.640  -0.210  0.00  0.00    +0.061 C 
ATOM      4  N   LIG    1       -4.237  -4.235  -0.292  0.00  0.00    -0.273 N 
ATOM      5  H   LIG    1       -4.320  -5.175  -0.516  0.00  0.00    +0.156 HD
ATOM      6  C   LIG    1       -5.355  -3.504  -0.204  0.00  0.00    +0.304 C 
ATOM      7  N   LIG    1       -5.332  -2.192   0.103  0.00  0.00    -0.288 N 
ATOM      8  H   LIG    1       -6.155  -1.681   0.161  0.00  0.00    +0.151 HD
ATOM      9  O   LIG    1       -6.426  -4.042  -0.406  0.00  0.00    -0.252 OA
ATOM     10  C   LIG    1       -4.029  -1.553   0.352  0.00  0.00    +0.143 C 
ENDROOT
BRANCH  10  11
ATOM     11  C   LIG    1       -4.049  -0.971   1.742  0.00  0.00    -0.022 A 
ATOM     12  C   LIG    1       -4.501  -1.733   2.803  0.00  0.00    +0.008 A 
ATOM     13  C   LIG    1       -4.520  -1.199   4.078  0.00  0.00    +0.033 A 
ATOM     14  C   LIG    1       -4.086   0.096   4.292  0.00  0.00    +0.122 A 
ATOM     15  C   LIG    1       -3.634   0.857   3.231  0.00  0.00    +0.033 A 
ATOM     16  C   LIG    1       -3.611   0.322   1.956  0.00  0.00    +0.008 A 
BRANCH  14  17
ATOM     17  N   LIG    1       -4.107   0.667   5.657  0.00  0.00    +0.006 N 
ATOM     18  O   LIG    1       -4.504   0.002   6.585  0.00  0.00    -0.130 OA
BRANCH  17  19
ATOM     19  O   LIG    1       -3.728   1.800   5.844  0.00  0.00    -0.396 OA
ATOM     20  H   LIG    1       -3.421   2.316   5.125  0.00  0.00    +0.329 HD
ENDBRANCH  17  19
ENDBRANCH  14  17
ENDBRANCH  10  11
BRANCH   1  21
ATOM     21  C   LIG    1       -1.503  -1.907   0.446  0.00  0.00    +0.339 C 
ATOM     22  O   LIG    1       -0.543  -2.654   0.473  0.00  0.00    -0.245 OA
BRANCH  21  23
ATOM     23  O   LIG    1       -1.332  -0.581   0.622  0.00  0.00    -0.462 OA
BRANCH  23  25
ATOM     24  C   LIG    1       -0.000   1.398   1.013  0.00  0.00    +0.048 C 
ATOM     25  C   LIG    1        0.005  -0.122   0.835  0.00  0.00    +0.229 C 
ENDBRANCH  23  25
ENDBRANCH  21  23
ENDBRANCH   1  21
TORSDOF 6
