REMARK  Name = ZINC00302074
REMARK                            x       y       z     vdW  Elec       q    Type
REMARK                         _______ _______ _______ _____ _____    ______ ____
ROOT
ATOM      1  N   LIG    1       -2.927   0.722   1.401  0.00  0.00    -0.320 N 
ATOM      2  C   LIG    1       -3.726   1.533   2.181  0.00  0.00    +0.067 A 
ATOM      3  C   LIG    1       -4.361   2.749   1.972  0.00  0.00    +0.028 A 
ATOM      4  C   LIG    1       -5.109   3.312   2.984  0.00  0.00    +0.002 A 
ATOM      5  C   LIG    1       -5.232   2.672   4.209  0.00  0.00    +0.002 A 
ATOM      6  C   LIG    1       -4.615   1.475   4.435  0.00  0.00    +0.028 A 
ATOM      7  C   LIG    1       -3.850   0.883   3.423  0.00  0.00    +0.065 A 
ATOM      8  N   LIG    1       -3.137  -0.267   3.347  0.00  0.00    -0.338 N 
ATOM      9  H   LIG    1       -3.036  -0.952   4.105  0.00  0.00    +0.167 HD
ATOM     10  C   LIG    1       -2.597  -0.370   2.158  0.00  0.00    +0.138 A 
ENDROOT
BRANCH  10  11
ATOM     11  C   LIG    1       -1.752  -1.497   1.702  0.00  0.00    +0.104 A 
ATOM     12  C   LIG    1       -1.482  -2.554   2.571  0.00  0.00    +0.031 A 
ATOM     13  C   LIG    1       -0.695  -3.603   2.129  0.00  0.00    +0.004 A 
ATOM     14  C   LIG    1       -0.195  -3.557   0.835  0.00  0.00    +0.020 A 
ATOM     15  C   LIG    1       -0.498  -2.474   0.029  0.00  0.00    +0.111 A 
ATOM     16  N   LIG    1       -1.254  -1.491   0.472  0.00  0.00    -0.252 NA
ENDBRANCH  10  11
BRANCH   1  17
ATOM     17  C   LIG    1       -2.514   0.980   0.019  0.00  0.00    +0.159 C 
BRANCH  17  21
ATOM     18  C   LIG    1        1.156   3.165   0.008  0.00  0.00    +0.000 A 
ATOM     19  C   LIG    1        1.175   1.783   0.000  0.00  0.00    +0.000 A 
ATOM     20  C   LIG    1       -0.013   1.076   0.008  0.00  0.00    +0.005 A 
ATOM     21  C   LIG    1       -1.219   1.751   0.017  0.00  0.00    -0.028 A 
ATOM     22  C   LIG    1       -1.238   3.133   0.030  0.00  0.00    +0.005 A 
ATOM     23  C   LIG    1       -0.050   3.840   0.022  0.00  0.00    +0.000 A 
ENDBRANCH  17  21
ENDBRANCH   1  17
TORSDOF 3
