REMARK  Name = ZINC00295268
REMARK                            x       y       z     vdW  Elec       q    Type
REMARK                         _______ _______ _______ _____ _____    ______ ____
ROOT
ATOM      1  C   LIG    1        3.698  -0.688  -0.037  0.00  0.00    +0.077 A 
ATOM      2  C   LIG    1        3.732  -2.083  -0.051  0.00  0.00    +0.057 A 
ATOM      3  C   LIG    1        4.975  -2.716  -0.067  0.00  0.00    +0.077 A 
ATOM      4  N   LIG    1        6.080  -1.971  -0.069  0.00  0.00    -0.215 NA
ATOM      5  C   LIG    1        6.008  -0.650  -0.056  0.00  0.00    +0.214 A 
ATOM      6  N   LIG    1        4.847  -0.013  -0.045  0.00  0.00    -0.215 NA
ENDROOT
BRANCH   1  10
ATOM      7  C   LIG    1       -0.017   1.379   0.010  0.00  0.00    +0.000 A 
ATOM      8  C   LIG    1        1.169   2.092   0.002  0.00  0.00    +0.001 A 
ATOM      9  C   LIG    1        2.377   1.426  -0.013  0.00  0.00    +0.010 A 
ATOM     10  C   LIG    1        2.402   0.033  -0.021  0.00  0.00    +0.001 A 
ATOM     11  C   LIG    1        1.205  -0.680  -0.013  0.00  0.00    +0.010 A 
ATOM     12  C   LIG    1        0.002  -0.004   0.002  0.00  0.00    +0.001 A 
ENDBRANCH   1  10
BRANCH   3  13
ATOM     13  C   LIG    1        5.065  -4.196  -0.082  0.00  0.00    +0.001 A 
ATOM     14  C   LIG    1        3.905  -4.967  -0.085  0.00  0.00    +0.010 A 
ATOM     15  C   LIG    1        3.995  -6.345  -0.099  0.00  0.00    +0.001 A 
ATOM     16  C   LIG    1        5.234  -6.959  -0.109  0.00  0.00    +0.000 A 
ATOM     17  C   LIG    1        6.389  -6.198  -0.106  0.00  0.00    +0.001 A 
ATOM     18  C   LIG    1        6.311  -4.820  -0.098  0.00  0.00    +0.010 A 
ENDBRANCH   3  13
BRANCH   5  19
ATOM     19  N   LIG    1        7.179   0.088  -0.058  0.00  0.00    -0.327 N 
ATOM     20  H   LIG    1        7.142   1.057  -0.048  0.00  0.00    +0.145 HD
ATOM     21  H   LIG    1        8.037  -0.364  -0.069  0.00  0.00    +0.145 HD
ENDBRANCH   5  19
TORSDOF 3
