REMARK  Name = ZINC00077081
REMARK                            x       y       z     vdW  Elec       q    Type
REMARK                         _______ _______ _______ _____ _____    ______ ____
ROOT
ATOM      1  C   LIG    1        2.433   1.126  -0.015  0.00  0.00    +0.083 A 
ATOM      2  C   LIG    1        3.608   1.863  -0.004  0.00  0.00    +0.037 A 
ATOM      3  C   LIG    1        3.578   3.241   0.003  0.00  0.00    +0.043 A 
ATOM      4 CL   LIG    1        5.050   4.160   0.017  0.00  0.00    -0.083 Cl
ATOM      5  C   LIG    1        2.346   3.877   0.000  0.00  0.00    +0.037 A 
ATOM      6  C   LIG    1        1.171   3.149  -0.010  0.00  0.00    +0.046 A 
ATOM      7  S   LIG    1       -0.517   3.745  -0.016  0.00  0.00    -0.003 S 
ATOM      8  S   LIG    1       -1.420   1.872  -0.040  0.00  0.00    +0.177 S 
ATOM      9  O   LIG    1       -1.934   1.723   1.277  0.00  0.00    -0.225 OA
ATOM     10  N   LIG    1       -0.011   0.966  -0.030  0.00  0.00    -0.253 N 
ATOM     11  H   LIG    1        0.002  -0.004  -0.036  0.00  0.00    +0.163 HD
ATOM     12  C   LIG    1        1.145   1.754  -0.019  0.00  0.00    +0.068 A 
ENDROOT
BRANCH   1  13
ATOM     13  C   LIG    1        2.512  -0.345  -0.023  0.00  0.00    +0.341 C 
ATOM     14  O   LIG    1        1.498  -1.008   0.075  0.00  0.00    -0.245 OA
BRANCH  13  16
ATOM     15  C   LIG    1        3.709  -2.407  -0.139  0.00  0.00    +0.280 C 
ATOM     16  O   LIG    1        3.708  -0.955  -0.139  0.00  0.00    -0.464 OA
ENDBRANCH  13  16
ENDBRANCH   1  13
TORSDOF 2
