REMARK  Name = ZINC00331218
REMARK                            x       y       z     vdW  Elec       q    Type
REMARK                         _______ _______ _______ _____ _____    ______ ____
ROOT
ATOM      1  C   LIG    1        1.120   2.008   0.002  0.00  0.00    +0.075 A 
ATOM      2  C   LIG    1        2.334   1.318  -0.013  0.00  0.00    +0.062 A 
ATOM      3  C   LIG    1        2.302  -0.066  -0.020  0.00  0.00    +0.105 A 
ATOM      4  I   LIG    1        4.083  -1.169  -0.043  0.00  0.00    -0.022 I 
ATOM      5  N   LIG    1        1.131  -0.685  -0.012  0.00  0.00    -0.230 NA
ATOM      6  C   LIG    1        0.002  -0.004   0.002  0.00  0.00    +0.222 A 
ATOM      7  N   LIG    1       -0.016   1.312   0.009  0.00  0.00    -0.235 NA
ENDROOT
BRANCH   1  11
ATOM      8  C   LIG    1        1.051   6.259   0.026  0.00  0.00    +0.000 A 
ATOM      9  C   LIG    1       -0.137   5.551   0.032  0.00  0.00    +0.001 A 
ATOM     10  C   LIG    1       -0.121   4.171   0.025  0.00  0.00    +0.010 A 
ATOM     11  C   LIG    1        1.096   3.491   0.010  0.00  0.00    +0.000 A 
ATOM     12  C   LIG    1        2.290   4.210   0.008  0.00  0.00    +0.010 A 
ATOM     13  C   LIG    1        2.261   5.590   0.011  0.00  0.00    +0.001 A 
ENDBRANCH   1  11
TORSDOF 1
