REMARK  Name = ZINC00088404
REMARK                            x       y       z     vdW  Elec       q    Type
REMARK                         _______ _______ _______ _____ _____    ______ ____
ROOT
ATOM      1  C   LIG    1        0.382   3.739  -0.151  0.00  0.00    +0.163 A 
ATOM      2  N   LIG    1       -0.840   3.240  -0.154  0.00  0.00    -0.225 NA
ATOM      3  C   LIG    1       -1.053   1.940  -0.342  0.00  0.00    +0.080 A 
ATOM      4  C   LIG    1        0.017   1.107  -0.524  0.00  0.00    +0.076 A 
ATOM      5  S   LIG    1        1.368   2.275  -0.429  0.00  0.00    -0.060 S 
ENDROOT
BRANCH   3   6
ATOM      6  C   LIG    1       -2.433   1.399  -0.350  0.00  0.00    +0.004 A 
ATOM      7  C   LIG    1       -2.669   0.035  -0.548  0.00  0.00    +0.030 A 
ATOM      8  C   LIG    1       -3.968  -0.426  -0.543  0.00  0.00    +0.111 A 
ATOM      9  N   LIG    1       -4.980   0.402  -0.365  0.00  0.00    -0.263 NA
ATOM     10  C   LIG    1       -4.801   1.696  -0.180  0.00  0.00    +0.111 A 
ATOM     11  C   LIG    1       -3.535   2.241  -0.166  0.00  0.00    +0.030 A 
ENDBRANCH   3   6
BRANCH   1  12
ATOM     12  N   LIG    1        0.792   5.052   0.021  0.00  0.00    -0.294 N 
ATOM     13  H   LIG    1        0.134   5.762   0.076  0.00  0.00    +0.154 HD
BRANCH  12  19
ATOM     14  C   LIG    1        3.026   4.450   0.714  0.00  0.00    +0.027 A 
ATOM     15  C   LIG    1        4.373   4.745   0.803  0.00  0.00    +0.047 A 
ATOM     16  C   LIG    1        4.854   5.946   0.303  0.00  0.00    +0.117 A 
ATOM     17  C   LIG    1        3.985   6.850  -0.290  0.00  0.00    +0.047 A 
ATOM     18  C   LIG    1        2.639   6.554  -0.384  0.00  0.00    +0.027 A 
ATOM     19  C   LIG    1        2.156   5.352   0.116  0.00  0.00    +0.033 A 
BRANCH  16  20
ATOM     20  O   LIG    1        6.179   6.238   0.395  0.00  0.00    -0.507 OA
ATOM     21  H   LIG    1        6.424   6.704   1.206  0.00  0.00    +0.292 HD
ENDBRANCH  16  20
ENDBRANCH  12  19
ENDBRANCH   1  12
TORSDOF 4
