REMARK  Name = ZINC00136945
REMARK                            x       y       z     vdW  Elec       q    Type
REMARK                         _______ _______ _______ _____ _____    ______ ____
ROOT
ATOM      1  C   LIG    1        0.559  -0.528  -1.127  0.00  0.00    +0.127 A 
ATOM      2  C   LIG    1        0.934   0.199  -2.251  0.00  0.00    +0.092 A 
ATOM      3  C   LIG    1        1.563  -0.430  -3.308  0.00  0.00    +0.134 A 
ATOM      4  C   LIG    1        1.825  -1.814  -3.243  0.00  0.00    +0.059 A 
ATOM      5  C   LIG    1        1.440  -2.541  -2.099  0.00  0.00    +0.134 A 
ATOM      6  C   LIG    1        0.817  -1.891  -1.051  0.00  0.00    +0.092 A 
ENDROOT
BRANCH   4   7
ATOM      7  C   LIG    1        2.468  -2.468  -4.319  0.00  0.00    +0.029 C 
ATOM      8  C   LIG    1        3.738  -2.080  -4.704  0.00  0.00    +0.046 C 
ATOM      9  C   LIG    1        4.635  -1.116  -4.032  0.00  0.00    +0.013 A 
ATOM     10  C   LIG    1        4.529  -0.335  -2.889  0.00  0.00    +0.011 A 
ATOM     11  C   LIG    1        5.576   0.486  -2.522  0.00  0.00    +0.001 A 
ATOM     12  C   LIG    1        6.731   0.531  -3.289  0.00  0.00    +0.002 A 
ATOM     13  C   LIG    1        6.853  -0.236  -4.425  0.00  0.00    +0.028 A 
ATOM     14  C   LIG    1        5.805  -1.077  -4.819  0.00  0.00    +0.076 A 
ATOM     15  N   LIG    1        5.663  -1.922  -5.870  0.00  0.00    -0.212 NA
ATOM     16  C   LIG    1        4.506  -2.538  -5.870  0.00  0.00    +0.221 C 
BRANCH  16  17
ATOM     17  O   LIG    1        4.088  -3.441  -6.790  0.00  0.00    -0.492 OA
ATOM     18  H   LIG    1        4.733  -3.618  -7.489  0.00  0.00    +0.294 HD
ENDBRANCH  16  17
ENDBRANCH   4   7
BRANCH   1  20
ATOM     19  C   LIG    1       -0.295   1.502  -0.235  0.00  0.00    +0.277 C 
ATOM     20  O   LIG    1       -0.059   0.100  -0.095  0.00  0.00    -0.495 OA
ENDBRANCH   1  20
BRANCH   3  21
ATOM     21  O   LIG    1        1.928   0.281  -4.403  0.00  0.00    -0.494 OA
ATOM     22  C   LIG    1        1.630   1.679  -4.398  0.00  0.00    +0.277 C 
ENDBRANCH   3  21
BRANCH   5  23
ATOM     23  O   LIG    1        1.686  -3.873  -2.024  0.00  0.00    -0.494 OA
ATOM     24  C   LIG    1        1.268  -4.544  -0.834  0.00  0.00    +0.277 C 
ENDBRANCH   5  23
TORSDOF 5
