REMARK  Name = ZINC00188371
REMARK                            x       y       z     vdW  Elec       q    Type
REMARK                         _______ _______ _______ _____ _____    ______ ____
ROOT
ATOM      1  C   LIG    1       -2.705   2.941   4.743  0.00  0.00    +0.248 C 
ATOM      2  N   LIG    1       -2.359   4.120   5.297  0.00  0.00    -0.280 N 
ATOM      3  H   LIG    1       -1.609   4.621   4.941  0.00  0.00    +0.155 HD
ATOM      4  O   LIG    1       -3.590   2.272   5.241  0.00  0.00    -0.270 OA
ENDROOT
BRANCH   2   5
ATOM      5  C   LIG    1       -3.082   4.620   6.385  0.00  0.00    +0.053 A 
ATOM      6  C   LIG    1       -3.600   3.757   7.331  0.00  0.00    +0.035 A 
ATOM      7  C   LIG    1       -4.318   4.309   8.406  0.00  0.00    +0.002 A 
ATOM      8  C   LIG    1       -4.875   3.495   9.407  0.00  0.00    +0.010 A 
ATOM      9  C   LIG    1       -5.564   4.065  10.433  0.00  0.00    +0.001 A 
ATOM     10  C   LIG    1       -5.725   5.448  10.504  0.00  0.00    +0.002 A 
ATOM     11  C   LIG    1       -5.199   6.266   9.553  0.00  0.00    +0.028 A 
ATOM     12  C   LIG    1       -4.481   5.715   8.477  0.00  0.00    +0.071 A 
ATOM     13  N   LIG    1       -3.955   6.498   7.529  0.00  0.00    -0.253 NA
ATOM     14  C   LIG    1       -3.279   5.999   6.525  0.00  0.00    +0.134 A 
ENDBRANCH   2   5
BRANCH   1  18
ATOM     15  C   LIG    1       -0.704   1.562   1.260  0.00  0.00    -0.047 A 
ATOM     16  C   LIG    1       -0.343   2.771   1.829  0.00  0.00    +0.004 A 
ATOM     17  C   LIG    1       -0.992   3.227   2.957  0.00  0.00    +0.013 A 
ATOM     18  C   LIG    1       -2.009   2.461   3.531  0.00  0.00    +0.037 A 
ATOM     19  C   LIG    1       -2.365   1.241   2.954  0.00  0.00    +0.013 A 
ATOM     20  C   LIG    1       -1.711   0.799   1.823  0.00  0.00    +0.004 A 
BRANCH  15  21
ATOM     21  C   LIG    1        0.006   1.073   0.024  0.00  0.00    +0.035 C 
BRANCH  21  23
ATOM     22  C   LIG    1       -0.004   1.084  -2.475  0.00  0.00    +0.004 C 
ATOM     23  C   LIG    1       -0.726   1.581  -1.220  0.00  0.00    +0.001 C 
ENDBRANCH  21  23
ENDBRANCH  15  21
ENDBRANCH   1  18
TORSDOF 4
