REMARK  Name = ZINC00319163
REMARK                            x       y       z     vdW  Elec       q    Type
REMARK                         _______ _______ _______ _____ _____    ______ ____
ROOT
ATOM      1  C   LIG    1        1.143  -3.715  -2.937  0.00  0.00    +0.023 A 
ATOM      2  C   LIG    1        0.517  -4.456  -1.938  0.00  0.00    +0.030 A 
ATOM      3  C   LIG    1        0.152  -5.752  -2.152  0.00  0.00    +0.051 A 
ATOM      4 CL   LIG    1       -0.626  -6.658  -0.892  0.00  0.00    -0.083 Cl
ATOM      5  C   LIG    1        0.408  -6.351  -3.397  0.00  0.00    +0.022 A 
ATOM      6  C   LIG    1        0.045  -7.686  -3.657  0.00  0.00    +0.013 A 
ATOM      7  C   LIG    1        0.325  -8.201  -4.890  0.00  0.00    +0.020 A 
ATOM      8  C   LIG    1        0.953  -7.409  -5.849  0.00  0.00    +0.111 A 
ATOM      9  N   LIG    1        1.289  -6.166  -5.603  0.00  0.00    -0.251 NA
ATOM     10  C   LIG    1        1.044  -5.601  -4.417  0.00  0.00    +0.114 A 
ATOM     11  C   LIG    1        1.403  -4.261  -4.161  0.00  0.00    +0.148 A 
ENDROOT
BRANCH  11  12
ATOM     12  O   LIG    1        2.009  -3.520  -5.125  0.00  0.00    -0.504 OA
ATOM     13  H   LIG    1        2.246  -2.631  -4.952  0.00  0.00    +0.292 HD
ENDBRANCH  11  12
BRANCH   1  14
ATOM     14  C   LIG    1        1.532  -2.285  -2.665  0.00  0.00    +0.144 C 
BRANCH  14  15
ATOM     15  C   LIG    1        2.983  -2.227  -2.263  0.00  0.00    +0.015 A 
ATOM     16  C   LIG    1        4.064  -1.893  -3.011  0.00  0.00    +0.013 A 
ATOM     17  C   LIG    1        5.315  -1.909  -2.425  0.00  0.00    +0.008 A 
ATOM     18  C   LIG    1        5.426  -2.259  -1.120  0.00  0.00    +0.045 A 
ATOM     19  S   LIG    1        3.726  -2.574  -0.677  0.00  0.00    -0.099 S 
ENDBRANCH  14  15
BRANCH  14  21
ATOM     20  C   LIG    1       -0.514  -1.241  -1.852  0.00  0.00    +0.213 C 
ATOM     21  N   LIG    1        0.704  -1.750  -1.581  0.00  0.00    -0.304 N 
ATOM     22  H   LIG    1        1.032  -1.763  -0.668  0.00  0.00    +0.150 HD
ATOM     23  O   LIG    1       -0.924  -1.225  -2.993  0.00  0.00    -0.276 OA
BRANCH  20  25
ATOM     24  C   LIG    1       -2.689  -0.179  -1.311  0.00  0.00    +0.013 C 
ATOM     25  C   LIG    1       -1.366  -0.691  -0.737  0.00  0.00    +0.092 C 
ENDBRANCH  20  25
ENDBRANCH  14  21
ENDBRANCH   1  14
TORSDOF 5
