REMARK  Name = ZINC00309764
REMARK                            x       y       z     vdW  Elec       q    Type
REMARK                         _______ _______ _______ _____ _____    ______ ____
ROOT
ATOM      1  C   LIG    1        3.619   6.656  -0.214  0.00  0.00    +0.101 C 
ATOM      2  C   LIG    1        4.479   6.496   1.061  0.00  0.00    +0.110 C 
ATOM      3  C   LIG    1        4.102   7.686   1.915  0.00  0.00    +0.217 C 
ATOM      4  N   LIG    1        3.472   8.610   1.169  0.00  0.00    -0.298 N 
ATOM      5  O   LIG    1        4.335   7.792   3.100  0.00  0.00    -0.276 OA
ATOM      6  C   LIG    1        3.359   8.179  -0.231  0.00  0.00    +0.121 C 
ENDROOT
BRANCH   4   7
ATOM      7  C   LIG    1        2.963   9.883   1.685  0.00  0.00    +0.076 C 
ATOM      8  C   LIG    1        4.121  10.696   2.268  0.00  0.00    +0.022 C 
ATOM      9  C   LIG    1        3.589  12.025   2.808  0.00  0.00    +0.002 C 
ATOM     10  C   LIG    1        2.554  11.755   3.901  0.00  0.00    +0.000 C 
ATOM     11  C   LIG    1        1.396  10.942   3.317  0.00  0.00    +0.002 C 
ATOM     12  C   LIG    1        1.927   9.613   2.778  0.00  0.00    +0.022 C 
ENDBRANCH   4   7
BRANCH   1  15
ATOM     13  N   LIG    1        2.346   4.546   0.003  0.00  0.00    -0.285 N 
ATOM     14  H   LIG    1        3.193   4.076   0.060  0.00  0.00    +0.155 HD
ATOM     15  C   LIG    1        2.326   5.890  -0.092  0.00  0.00    +0.222 C 
ATOM     16  O   LIG    1        1.269   6.483  -0.079  0.00  0.00    -0.275 OA
BRANCH  13  19
ATOM     17  C   LIG    1       -1.160   3.650   0.657  0.00  0.00    +0.003 A 
ATOM     18  C   LIG    1        0.025   4.360   0.643  0.00  0.00    +0.023 A 
ATOM     19  C   LIG    1        1.146   3.828   0.019  0.00  0.00    +0.035 A 
ATOM     20  C   LIG    1        1.072   2.581  -0.588  0.00  0.00    +0.043 A 
ATOM     21  C   LIG    1       -0.116   1.875  -0.571  0.00  0.00    +0.043 A 
ATOM     22 CL   LIG    1       -0.209   0.316  -1.331  0.00  0.00    -0.083 Cl
ATOM     23  C   LIG    1       -1.232   2.411   0.047  0.00  0.00    +0.020 A 
ENDBRANCH  13  19
ENDBRANCH   1  15
TORSDOF 3
