REMARK  Name = ZINC00158702
REMARK                            x       y       z     vdW  Elec       q    Type
REMARK                         _______ _______ _______ _____ _____    ______ ____
ROOT
ATOM      1  C   LIG    1       -2.014   2.465   3.526  0.00  0.00    -0.011 A 
ATOM      2  C   LIG    1       -2.370   1.244   2.951  0.00  0.00    +0.009 A 
ATOM      3  C   LIG    1       -1.720   0.805   1.816  0.00  0.00    +0.002 A 
ATOM      4  C   LIG    1       -0.718   1.572   1.248  0.00  0.00    -0.065 A 
ATOM      5  C   LIG    1       -0.357   2.780   1.817  0.00  0.00    +0.002 A 
ATOM      6  C   LIG    1       -1.003   3.234   2.948  0.00  0.00    +0.009 A 
ENDROOT
BRANCH   1   9
ATOM      7  C   LIG    1       -3.283   4.330   6.566  0.00  0.00    +0.008 A 
ATOM      8  C   LIG    1       -2.505   4.094   5.454  0.00  0.00    +0.016 A 
ATOM      9  C   LIG    1       -2.707   2.942   4.742  0.00  0.00    +0.019 A 
ATOM     10  S   LIG    1       -4.018   2.162   5.669  0.00  0.00    -0.097 S 
ATOM     11  C   LIG    1       -4.216   3.412   6.928  0.00  0.00    +0.046 A 
ENDBRANCH   1   9
BRANCH   4  12
ATOM     12  C   LIG    1       -0.013   1.086   0.008  0.00  0.00    -0.051 C 
BRANCH  12  13
ATOM     13  N   LIG    1       -0.721   1.597  -1.179  0.00  0.00    +0.381 N 
ATOM     14  H   LIG    1       -0.694   2.624  -1.171  0.00  0.00    -0.090 HD
ATOM     15  H   LIG    1       -1.692   1.290  -1.166  0.00  0.00    -0.090 HD
ATOM     16  H   LIG    1       -0.269   1.260  -2.027  0.00  0.00    -0.090 HD
ENDBRANCH  12  13
ENDBRANCH   4  12
TORSDOF 3
