REMARK  Name = ZINC00187107
REMARK                            x       y       z     vdW  Elec       q    Type
REMARK                         _______ _______ _______ _____ _____    ______ ____
ROOT
ATOM      1  C   LIG    1       -0.018   1.503   0.010  0.00  0.00    +0.065 C 
ATOM      2  C   LIG    1        0.002  -0.004   0.002  0.00  0.00    +0.040 A 
ATOM      3  C   LIG    1        0.005  -0.671  -1.206  0.00  0.00    +0.035 A 
ATOM      4  C   LIG    1        0.025  -2.066  -1.205  0.00  0.00    +0.036 A 
ATOM      5  C   LIG    1        0.040  -2.740   0.042  0.00  0.00    +0.102 A 
ATOM      6  C   LIG    1        0.058  -4.166  -0.271  0.00  0.00    +0.348 C 
ATOM      7  O   LIG    1        0.053  -4.316  -1.607  0.00  0.00    -0.422 OA
ATOM      8  O   LIG    1        0.074  -5.070   0.544  0.00  0.00    -0.244 OA
ATOM      9  C   LIG    1        0.036  -1.980   1.219  0.00  0.00    +0.109 A 
ATOM     10  C   LIG    1        0.034  -3.110  -2.228  0.00  0.00    +0.143 C 
ATOM     11  C   LIG    1        0.024  -2.908  -3.572  0.00  0.00    +0.093 C 
ATOM     12  N   LIG    1        0.022  -0.655   1.152  0.00  0.00    -0.245 NA
ENDROOT
BRANCH  11  13
ATOM     13  C   LIG    1        0.034  -4.016  -4.455  0.00  0.00    +0.131 A 
ATOM     14  C   LIG    1        0.032  -3.956  -5.833  0.00  0.00    +0.049 A 
ATOM     15  C   LIG    1        0.046  -5.284  -6.291  0.00  0.00    +0.042 A 
ATOM     16  C   LIG    1        0.057  -6.082  -5.201  0.00  0.00    +0.195 A 
ATOM     17  O   LIG    1        0.055  -5.316  -4.099  0.00  0.00    -0.463 OA
ENDBRANCH  11  13
BRANCH   9  18
ATOM     18  S   LIG    1        0.055  -2.784   2.787  0.00  0.00    -0.123 S 
ATOM     19  H   LIG    1        0.068  -4.131   2.606  0.00  0.00    +0.109 HD
ENDBRANCH   9  18
TORSDOF 2
