REMARK  Name = ZINC00184018
REMARK                            x       y       z     vdW  Elec       q    Type
REMARK                         _______ _______ _______ _____ _____    ______ ____
ROOT
ATOM      1  C   LIG    1        0.015   1.363   0.107  0.00  0.00    +0.026 A 
ATOM      2  C   LIG    1        1.215   2.047   0.123  0.00  0.00    +0.030 A 
ATOM      3  C   LIG    1        2.409   1.354   0.058  0.00  0.00    +0.105 A 
ATOM      4  C   LIG    1        2.408  -0.027  -0.022  0.00  0.00    +0.030 A 
ATOM      5  C   LIG    1        1.212  -0.718  -0.039  0.00  0.00    +0.026 A 
ATOM      6  C   LIG    1        0.010  -0.024   0.026  0.00  0.00    +0.048 A 
ENDROOT
BRANCH   3   7
ATOM      7  S   LIG    1        3.937   2.231   0.078  0.00  0.00    +0.056 S 
ATOM      8  O   LIG    1        3.658   3.543  -0.392  0.00  0.00    -0.153 OA
ATOM      9  O   LIG    1        4.898   1.388  -0.543  0.00  0.00    -0.153 OA
BRANCH   7  10
ATOM     10  N   LIG    1        4.394   2.384   1.662  0.00  0.00    -0.204 NA
ATOM     11  H   LIG    1        5.219   2.842   1.887  0.00  0.00    +0.144 HD
ATOM     12  H   LIG    1        3.837   2.014   2.365  0.00  0.00    +0.144 HD
ENDBRANCH   7  10
ENDBRANCH   3   7
BRANCH   6  13
ATOM     13  N   LIG    1       -1.201  -0.720   0.010  0.00  0.00    -0.216 N 
ATOM     14  H   LIG    1       -1.899  -0.493   0.645  0.00  0.00    +0.174 HD
BRANCH  13  15
ATOM     15  S   LIG    1       -1.446  -1.931  -1.093  0.00  0.00    +0.072 S 
ATOM     16  O   LIG    1       -2.789  -2.365  -0.927  0.00  0.00    -0.150 OA
ATOM     17  O   LIG    1       -0.340  -2.815  -0.977  0.00  0.00    -0.150 OA
BRANCH  15  18
ATOM     18  C   LIG    1       -1.345  -1.204  -2.695  0.00  0.00    +0.109 A 
ATOM     19  C   LIG    1       -2.458  -0.603  -3.252  0.00  0.00    +0.031 A 
ATOM     20  C   LIG    1       -2.380  -0.033  -4.508  0.00  0.00    +0.040 A 
ATOM     21  C   LIG    1       -1.186  -0.064  -5.209  0.00  0.00    +0.124 A 
ATOM     22  F   LIG    1       -1.109   0.493  -6.438  0.00  0.00    -0.205 F 
ATOM     23  C   LIG    1       -0.072  -0.666  -4.650  0.00  0.00    +0.040 A 
ATOM     24  C   LIG    1       -0.151  -1.231  -3.391  0.00  0.00    +0.031 A 
ENDBRANCH  15  18
ENDBRANCH  13  15
ENDBRANCH   6  13
TORSDOF 5
