REMARK  Name = ZINC00136945
REMARK                            x       y       z     vdW  Elec       q    Type
REMARK                         _______ _______ _______ _____ _____    ______ ____
ROOT
ATOM      1  C   LIG    1        0.657  -0.694  -0.977  0.00  0.00    +0.127 A 
ATOM      2  C   LIG    1        0.982   0.085  -2.080  0.00  0.00    +0.092 A 
ATOM      3  C   LIG    1        1.579  -0.489  -3.186  0.00  0.00    +0.134 A 
ATOM      4  C   LIG    1        1.859  -1.870  -3.192  0.00  0.00    +0.059 A 
ATOM      5  C   LIG    1        1.526  -2.651  -2.068  0.00  0.00    +0.134 A 
ATOM      6  C   LIG    1        0.934  -2.056  -0.970  0.00  0.00    +0.092 A 
ENDROOT
BRANCH   4   7
ATOM      7  C   LIG    1        2.470  -2.469  -4.321  0.00  0.00    +0.029 C 
ATOM      8  C   LIG    1        1.816  -3.467  -5.011  0.00  0.00    +0.047 C 
ATOM      9  C   LIG    1        0.425  -3.935  -4.814  0.00  0.00    +0.008 A 
ATOM     10  C   LIG    1       -0.594  -3.558  -3.946  0.00  0.00    +0.010 A 
ATOM     11  C   LIG    1       -1.815  -4.199  -4.005  0.00  0.00    +0.001 A 
ATOM     12  C   LIG    1       -2.023  -5.213  -4.926  0.00  0.00    +0.002 A 
ATOM     13  C   LIG    1       -1.018  -5.594  -5.791  0.00  0.00    +0.024 A 
ATOM     14  C   LIG    1        0.218  -4.960  -5.747  0.00  0.00    +0.042 A 
ATOM     15  N   LIG    1        1.379  -5.144  -6.488  0.00  0.00    -0.281 N 
ATOM     16  H   LIG    1        1.478  -5.800  -7.196  0.00  0.00    +0.155 HD
ATOM     17  C   LIG    1        2.346  -4.293  -6.104  0.00  0.00    +0.249 C 
ATOM     18  O   LIG    1        3.466  -4.221  -6.577  0.00  0.00    -0.270 OA
ENDBRANCH   4   7
BRANCH   1  20
ATOM     19  C   LIG    1       -0.186   1.283   0.035  0.00  0.00    +0.277 C 
ATOM     20  O   LIG    1        0.071  -0.121   0.105  0.00  0.00    -0.495 OA
ENDBRANCH   1  20
BRANCH   3  21
ATOM     21  O   LIG    1        1.895   0.274  -4.262  0.00  0.00    -0.494 OA
ATOM     22  C   LIG    1        1.581   1.666  -4.185  0.00  0.00    +0.277 C 
ENDBRANCH   3  21
BRANCH   5  23
ATOM     23  O   LIG    1        1.789  -3.982  -2.062  0.00  0.00    -0.494 OA
ATOM     24  C   LIG    1        1.424  -4.710  -0.888  0.00  0.00    +0.277 C 
ENDBRANCH   5  23
TORSDOF 4
