REMARK  Name = ZINC00160011
REMARK                            x       y       z     vdW  Elec       q    Type
REMARK                         _______ _______ _______ _____ _____    ______ ____
ROOT
ATOM      1  N   LIG    1       -1.815  -1.169  -1.594  0.00  0.00    -0.216 N 
ATOM      2  H   LIG    1       -2.203  -0.386  -2.014  0.00  0.00    +0.174 HD
ENDROOT
BRANCH   1   3
ATOM      3  C   LIG    1       -0.983  -2.019  -2.333  0.00  0.00    +0.049 A 
ATOM      4  C   LIG    1        0.396  -1.994  -2.124  0.00  0.00    +0.026 A 
ATOM      5  C   LIG    1        1.224  -2.814  -2.834  0.00  0.00    +0.029 A 
ATOM      6  C   LIG    1        0.697  -3.690  -3.780  0.00  0.00    +0.067 A 
ATOM      7  N   LIG    1        1.253  -4.613  -4.631  0.00  0.00    -0.276 N 
ATOM      8  H   LIG    1        2.199  -4.812  -4.704  0.00  0.00    +0.189 HD
ATOM      9  N   LIG    1        0.236  -5.220  -5.375  0.00  0.00    -0.161 NA
ATOM     10  C   LIG    1       -0.922  -4.726  -5.035  0.00  0.00    +0.158 A 
ATOM     11 CL   LIG    1       -2.461  -5.181  -5.696  0.00  0.00    -0.059 Cl
ATOM     12  C   LIG    1       -0.693  -3.723  -3.999  0.00  0.00    +0.040 A 
ATOM     13  C   LIG    1       -1.532  -2.881  -3.261  0.00  0.00    +0.037 A 
ENDBRANCH   1   3
BRANCH   1  14
ATOM     14  S   LIG    1       -2.135  -1.502  -0.004  0.00  0.00    +0.072 S 
ATOM     15  O   LIG    1       -0.883  -1.754   0.619  0.00  0.00    -0.150 OA
ATOM     16  O   LIG    1       -3.023  -0.490   0.451  0.00  0.00    -0.150 OA
BRANCH  14  23
ATOM     17  C   LIG    1       -2.368  -4.209   0.251  0.00  0.00    +0.030 A 
ATOM     18  C   LIG    1       -3.072  -5.398   0.287  0.00  0.00    +0.022 A 
ATOM     19  C   LIG    1       -4.444  -5.394   0.111  0.00  0.00    +0.041 A 
ATOM     20 CL   LIG    1       -5.330  -6.887   0.155  0.00  0.00    -0.084 Cl
ATOM     21  C   LIG    1       -5.111  -4.200  -0.100  0.00  0.00    +0.022 A 
ATOM     22  C   LIG    1       -4.405  -3.012  -0.135  0.00  0.00    +0.030 A 
ATOM     23  C   LIG    1       -3.034  -3.017   0.040  0.00  0.00    +0.109 A 
ENDBRANCH  14  23
ENDBRANCH   1  14
TORSDOF 3
