REMARK  Name = ZINC00094777
REMARK                            x       y       z     vdW  Elec       q    Type
REMARK                         _______ _______ _______ _____ _____    ______ ____
ROOT
ATOM      1  C   LIG    1       -1.267  -0.764   0.026  0.00  0.00    +0.050 A 
ATOM      2  C   LIG    1       -2.520  -0.230   0.029  0.00  0.00    +0.028 A 
ATOM      3  C   LIG    1       -3.430  -1.300   0.015  0.00  0.00    +0.023 A 
ATOM      4  C   LIG    1       -2.716  -2.446   0.003  0.00  0.00    +0.020 A 
ATOM      5  N   LIG    1       -1.390  -2.129   0.004  0.00  0.00    -0.333 N 
ENDROOT
BRANCH   1  12
ATOM      6  C   LIG    1        1.173  -0.604   0.502  0.00  0.00    +0.013 A 
ATOM      7  C   LIG    1        2.354   0.108   0.509  0.00  0.00    +0.039 A 
ATOM      8  C   LIG    1        2.380   1.417   0.055  0.00  0.00    +0.123 A 
ATOM      9  F   LIG    1        3.539   2.111   0.065  0.00  0.00    -0.205 F 
ATOM     10  C   LIG    1        1.220   2.017  -0.409  0.00  0.00    +0.039 A 
ATOM     11  C   LIG    1        0.033   1.314  -0.420  0.00  0.00    +0.013 A 
ATOM     12  C   LIG    1        0.002  -0.004   0.036  0.00  0.00    -0.001 A 
ENDBRANCH   1  12
BRANCH   4  13
ATOM     13  C   LIG    1       -3.289  -3.840  -0.014  0.00  0.00    +0.064 C 
BRANCH  13  14
ATOM     14  C   LIG    1       -3.595  -4.248  -1.456  0.00  0.00    +0.126 C 
BRANCH  14  15
ATOM     15  C   LIG    1       -4.168  -5.642  -1.474  0.00  0.00    +0.305 C 
ATOM     16  O   LIG    1       -4.316  -6.252  -0.429  0.00  0.00    -0.251 OA
BRANCH  15  17
ATOM     17  O   LIG    1       -4.482  -6.159  -2.532  0.00  0.00    -0.481 OA
ATOM     18  H   LIG    1       -4.367  -5.689  -3.335  0.00  0.00    +0.295 HD
ENDBRANCH  15  17
ENDBRANCH  14  15
ENDBRANCH  13  14
ENDBRANCH   4  13
BRANCH   5  19
ATOM     19  C   LIG    1       -0.282  -3.087  -0.011  0.00  0.00    +0.242 C 
BRANCH  19  20
ATOM     20  C   LIG    1        0.030  -3.518   1.399  0.00  0.00    +0.325 C 
ATOM     21  O   LIG    1       -0.613  -3.066   2.330  0.00  0.00    -0.249 OA
BRANCH  20  22
ATOM     22  O   LIG    1        0.926  -4.318   1.608  0.00  0.00    -0.479 OA
ATOM     23  H   LIG    1        1.420  -4.665   0.891  0.00  0.00    +0.295 HD
ENDBRANCH  20  22
ENDBRANCH  19  20
ENDBRANCH   5  19
TORSDOF 8
