REMARK  Name = ZINC00173788
REMARK                            x       y       z     vdW  Elec       q    Type
REMARK                         _______ _______ _______ _____ _____    ______ ____
ROOT
ATOM      1  C   LIG    1       -4.165  -4.548   0.017  0.00  0.00    -0.017 A 
ATOM      2  C   LIG    1       -4.919  -4.877   1.151  0.00  0.00    -0.016 A 
ATOM      3  C   LIG    1       -6.101  -5.382   0.729  0.00  0.00    +0.087 A 
ATOM      4  N   LIG    1       -6.112  -5.381  -0.631  0.00  0.00    -0.359 N 
ATOM      5  H   LIG    1       -6.840  -5.691  -1.192  0.00  0.00    +0.165 HD
ATOM      6  C   LIG    1       -4.920  -4.862  -1.078  0.00  0.00    +0.064 A 
ENDROOT
BRANCH   6   7
ATOM      7  C   LIG    1       -4.528  -4.679  -2.481  0.00  0.00    +0.178 C 
ATOM      8  N   LIG    1       -3.367  -4.178  -2.769  0.00  0.00    -0.094 NA
BRANCH   8   9
ATOM      9  O   LIG    1       -2.988  -4.002  -4.122  0.00  0.00    -0.409 OA
ATOM     10  H   LIG    1       -2.106  -3.622  -4.238  0.00  0.00    +0.328 HD
ENDBRANCH   8   9
ENDBRANCH   6   7
BRANCH   1  11
ATOM     11  C   LIG    1       -2.780  -3.953   0.007  0.00  0.00    +0.049 C 
BRANCH  11  12
ATOM     12  C   LIG    1       -2.881  -2.427   0.017  0.00  0.00    +0.125 C 
BRANCH  12  13
ATOM     13  C   LIG    1       -1.496  -1.832   0.006  0.00  0.00    +0.307 C 
ATOM     14  O   LIG    1       -0.528  -2.555  -0.007  0.00  0.00    -0.251 OA
BRANCH  13  15
ATOM     15  O   LIG    1       -1.339  -0.499   0.012  0.00  0.00    -0.465 OA
BRANCH  15  17
ATOM     16  C   LIG    1       -0.019   1.526   0.010  0.00  0.00    +0.048 C 
ATOM     17  C   LIG    1        0.002  -0.004   0.002  0.00  0.00    +0.229 C 
ENDBRANCH  15  17
ENDBRANCH  13  15
ENDBRANCH  12  13
ENDBRANCH  11  12
ENDBRANCH   1  11
BRANCH   2  18
ATOM     18  C   LIG    1       -4.491  -4.700   2.585  0.00  0.00    +0.157 C 
BRANCH  18  19
ATOM     19  C   LIG    1       -4.798  -3.293   3.031  0.00  0.00    +0.311 C 
ATOM     20  O   LIG    1       -5.312  -2.514   2.263  0.00  0.00    -0.250 OA
BRANCH  19  21
ATOM     21  O   LIG    1       -4.500  -2.905   4.281  0.00  0.00    -0.465 OA
BRANCH  21  22
ATOM     22  C   LIG    1       -4.819  -1.558   4.636  0.00  0.00    +0.229 C 
ATOM     23  C   LIG    1       -4.410  -1.302   6.088  0.00  0.00    +0.048 C 
ENDBRANCH  21  22
ENDBRANCH  19  21
ENDBRANCH  18  19
ENDBRANCH   2  18
TORSDOF 11
