REMARK  Name = ZINC00115750
REMARK                            x       y       z     vdW  Elec       q    Type
REMARK                         _______ _______ _______ _____ _____    ______ ____
ROOT
ATOM      1  C   LIG    1       -2.497   1.015   0.020  0.00  0.00    +0.028 C 
ATOM      2  C   LIG    1       -2.595  -0.158  -0.661  0.00  0.00    +0.078 C 
ATOM      3  C   LIG    1       -1.557  -0.921  -1.390  0.00  0.00    +0.275 C 
ATOM      4  N   LIG    1       -1.946  -2.041  -1.959  0.00  0.00    -0.168 NA
ATOM      5  C   LIG    1       -3.197  -2.469  -1.900  0.00  0.00    +0.102 C 
ATOM      6  O   LIG    1       -0.401  -0.533  -1.456  0.00  0.00    -0.267 OA
ATOM      7  S   LIG    1       -4.016  -1.209  -0.935  0.00  0.00    -0.066 S 
ENDROOT
BRANCH   1  11
ATOM      8  C   LIG    1        1.306   2.762   0.690  0.00  0.00    +0.123 A 
ATOM      9  C   LIG    1        0.216   3.571   0.387  0.00  0.00    +0.046 A 
ATOM     10  C   LIG    1       -1.022   3.010   0.172  0.00  0.00    +0.011 A 
ATOM     11  C   LIG    1       -1.182   1.620   0.254  0.00  0.00    -0.023 A 
ATOM     12  C   LIG    1       -0.081   0.810   0.565  0.00  0.00    +0.015 A 
ATOM     13  C   LIG    1        1.152   1.383   0.778  0.00  0.00    -0.008 A 
ATOM     14  C   LIG    1        2.338   0.514   1.107  0.00  0.00    +0.047 C 
BRANCH   8  15
ATOM     15  O   LIG    1        2.525   3.322   0.901  0.00  0.00    -0.492 OA
BRANCH  15  17
ATOM     16  C   LIG    1        4.052   5.187   1.064  0.00  0.00    +0.048 C 
ATOM     17  C   LIG    1        2.613   4.744   0.796  0.00  0.00    +0.225 C 
ENDBRANCH  15  17
ENDBRANCH   8  15
ENDBRANCH   1  11
BRANCH   5  18
ATOM     18  C   LIG    1       -3.776  -3.693  -2.490  0.00  0.00    +0.005 A 
ATOM     19  C   LIG    1       -5.131  -3.983  -2.315  0.00  0.00    +0.010 A 
ATOM     20  C   LIG    1       -5.666  -5.125  -2.874  0.00  0.00    +0.001 A 
ATOM     21  C   LIG    1       -4.861  -5.988  -3.597  0.00  0.00    +0.000 A 
ATOM     22  C   LIG    1       -3.517  -5.709  -3.770  0.00  0.00    +0.001 A 
ATOM     23  C   LIG    1       -2.970  -4.568  -3.221  0.00  0.00    +0.010 A 
ENDBRANCH   5  18
TORSDOF 4
