REMARK  Name = ZINC00165976
REMARK                            x       y       z     vdW  Elec       q    Type
REMARK                         _______ _______ _______ _____ _____    ______ ____
ROOT
ATOM      1  C   LIG    1       -1.808  -1.019  -1.767  0.00  0.00    +0.151 A 
ATOM      2  C   LIG    1       -1.988  -2.257  -2.354  0.00  0.00    +0.145 A 
ATOM      3  N   LIG    1       -2.633  -2.339  -3.508  0.00  0.00    -0.221 NA
ATOM      4  C   LIG    1       -3.105  -1.253  -4.104  0.00  0.00    +0.214 A 
ATOM      5  N   LIG    1       -2.953  -0.049  -3.575  0.00  0.00    -0.198 NA
ATOM      6  C   LIG    1       -2.321   0.106  -2.415  0.00  0.00    +0.147 A 
ENDROOT
BRANCH   1   7
ATOM      7  S   LIG    1       -0.957  -0.865  -0.232  0.00  0.00    +0.030 S 
ATOM      8  O   LIG    1       -1.771  -0.055   0.604  0.00  0.00    -0.164 OA
ATOM      9  O   LIG    1       -0.548  -2.175   0.139  0.00  0.00    -0.164 OA
BRANCH   7  16
ATOM     10  C   LIG    1        0.534   1.419  -0.337  0.00  0.00    +0.029 A 
ATOM     11  C   LIG    1        1.688   2.139  -0.580  0.00  0.00    +0.022 A 
ATOM     12  C   LIG    1        2.825   1.492  -1.029  0.00  0.00    +0.041 A 
ATOM     13 CL   LIG    1        4.276   2.396  -1.335  0.00  0.00    -0.084 Cl
ATOM     14  C   LIG    1        2.806   0.124  -1.235  0.00  0.00    +0.022 A 
ATOM     15  C   LIG    1        1.651  -0.595  -0.992  0.00  0.00    +0.029 A 
ATOM     16  C   LIG    1        0.515   0.052  -0.543  0.00  0.00    +0.094 A 
ENDBRANCH   7  16
ENDBRANCH   1   7
BRANCH   4  17
ATOM     17  N   LIG    1       -3.773  -1.381  -5.309  0.00  0.00    -0.327 N 
ATOM     18  H   LIG    1       -4.124  -0.595  -5.755  0.00  0.00    +0.145 HD
ATOM     19  H   LIG    1       -3.891  -2.258  -5.707  0.00  0.00    +0.145 HD
ENDBRANCH   4  17
BRANCH   6  20
ATOM     20  N   LIG    1       -2.169   1.367  -1.861  0.00  0.00    -0.341 N 
ATOM     21  H   LIG    1       -2.427   2.153  -2.367  0.00  0.00    +0.144 HD
ATOM     22  H   LIG    1       -1.804   1.463  -0.968  0.00  0.00    +0.144 HD
ENDBRANCH   6  20
TORSDOF 4
