REMARK  Name = ZINC00262568
REMARK                            x       y       z     vdW  Elec       q    Type
REMARK                         _______ _______ _______ _____ _____    ______ ____
ROOT
ATOM      1  N   LIG    1        0.057  -4.170  -0.022  0.00  0.00    -0.301 N 
ATOM      2  H   LIG    1       -0.625  -4.647  -0.519  0.00  0.00    +0.154 HD
ENDROOT
BRANCH   1   3
ATOM      3  C   LIG    1        1.146  -4.845   0.471  0.00  0.00    +0.109 A 
ATOM      4  C   LIG    1        1.215  -6.207   0.373  0.00  0.00    +0.112 A 
ATOM      5  C   LIG    1        2.341  -6.871   0.885  0.00  0.00    +0.256 A 
ATOM      6  N   LIG    1        3.329  -6.159   1.462  0.00  0.00    -0.275 N 
ATOM      7  C   LIG    1        3.244  -4.819   1.550  0.00  0.00    +0.328 A 
ATOM      8  O   LIG    1        4.147  -4.196   2.074  0.00  0.00    -0.247 OA
ATOM      9  H   LIG    1        4.107  -6.616   1.817  0.00  0.00    +0.173 HD
ATOM     10  O   LIG    1        2.424  -8.085   0.809  0.00  0.00    -0.268 OA
ATOM     11  N   LIG    1        2.179  -4.158   1.062  0.00  0.00    -0.296 N 
ATOM     12  H   LIG    1        2.138  -3.191   1.131  0.00  0.00    +0.172 HD
ENDBRANCH   1   3
BRANCH   1  17
ATOM     13  C   LIG    1       -0.453   1.413   0.848  0.00  0.00    +0.045 C 
ATOM     14  C   LIG    1       -0.317  -0.070   0.617  0.00  0.00    -0.032 A 
ATOM     15  C   LIG    1       -0.651  -0.611  -0.611  0.00  0.00    +0.006 A 
ATOM     16  C   LIG    1       -0.528  -1.969  -0.826  0.00  0.00    +0.023 A 
ATOM     17  C   LIG    1       -0.068  -2.794   0.193  0.00  0.00    +0.034 A 
ATOM     18  C   LIG    1        0.267  -2.249   1.425  0.00  0.00    +0.043 A 
ATOM     19  C   LIG    1        0.147  -0.887   1.633  0.00  0.00    +0.046 A 
ATOM     20 CL   LIG    1        0.572  -0.203   3.170  0.00  0.00    -0.083 Cl
ENDBRANCH   1  17
TORSDOF 2
