REMARK  Name = ZINC00143992
REMARK                            x       y       z     vdW  Elec       q    Type
REMARK                         _______ _______ _______ _____ _____    ______ ____
ROOT
ATOM      1  C   LIG    1        1.147   3.633  -0.137  0.00  0.00    +0.194 C 
ATOM      2  O   LIG    1        0.128   4.281   0.006  0.00  0.00    -0.287 OA
ENDROOT
BRANCH   1   6
ATOM      3  C   LIG    1        4.826   5.603  -0.913  0.00  0.00    +0.120 A 
ATOM      4  C   LIG    1        3.686   6.349  -0.633  0.00  0.00    +0.046 A 
ATOM      5  C   LIG    1        2.491   5.714  -0.381  0.00  0.00    +0.015 A 
ATOM      6  C   LIG    1        2.424   4.317  -0.407  0.00  0.00    +0.023 A 
ATOM      7  C   LIG    1        3.575   3.571  -0.684  0.00  0.00    +0.015 A 
ATOM      8  C   LIG    1        4.764   4.214  -0.940  0.00  0.00    +0.046 A 
BRANCH   3  10
ATOM      9  C   LIG    1        7.134   5.407  -1.441  0.00  0.00    +0.277 C 
ATOM     10  O   LIG    1        6.002   6.233  -1.161  0.00  0.00    -0.495 OA
ENDBRANCH   3  10
ENDBRANCH   1   6
BRANCH   1  11
ATOM     11  C   LIG    1        1.104   2.158  -0.041  0.00  0.00    +0.036 A 
ATOM     12  C   LIG    1        0.602   1.401  -1.097  0.00  0.00    +0.012 A 
ATOM     13  C   LIG    1        0.564   0.022  -1.002  0.00  0.00    +0.001 A 
ATOM     14  C   LIG    1        1.021  -0.614   0.138  0.00  0.00    +0.001 A 
ATOM     15  C   LIG    1        1.522   0.120   1.196  0.00  0.00    +0.016 A 
ATOM     16  C   LIG    1        1.569   1.510   1.119  0.00  0.00    +0.070 A 
BRANCH  16  17
ATOM     17  C   LIG    1        2.099   2.300   2.251  0.00  0.00    +0.337 C 
ATOM     18  O   LIG    1        2.216   3.504   2.148  0.00  0.00    -0.245 OA
BRANCH  17  19
ATOM     19  O   LIG    1        2.451   1.684   3.396  0.00  0.00    -0.477 OA
ATOM     20  H   LIG    1        2.361   0.755   3.475  0.00  0.00    +0.295 HD
ENDBRANCH  17  19
ENDBRANCH  16  17
ENDBRANCH   1  11
TORSDOF 5
