REMARK  Name = ZINC00192778
REMARK                            x       y       z     vdW  Elec       q    Type
REMARK                         _______ _______ _______ _____ _____    ______ ____
ROOT
ATOM      1  C   LIG    1       -1.270  -0.766   0.011  0.00  0.00    +0.080 A 
ATOM      2  C   LIG    1       -1.256  -2.133   0.008  0.00  0.00    +0.077 A 
ATOM      3  S   LIG    1       -3.010  -2.483   0.021  0.00  0.00    -0.059 S 
ATOM      4  C   LIG    1       -3.576  -0.788   0.028  0.00  0.00    +0.178 A 
ATOM      5  N   LIG    1       -2.431  -0.128   0.026  0.00  0.00    -0.224 NA
ENDROOT
BRANCH   1  11
ATOM      6  C   LIG    1       -0.017   1.390   0.010  0.00  0.00    +0.012 A 
ATOM      7  C   LIG    1        1.170   2.093   0.002  0.00  0.00    +0.033 A 
ATOM      8  C   LIG    1        2.378   1.418  -0.013  0.00  0.00    +0.122 A 
ATOM      9  C   LIG    1        2.402   0.035  -0.021  0.00  0.00    +0.033 A 
ATOM     10  C   LIG    1        1.222  -0.679  -0.014  0.00  0.00    +0.012 A 
ATOM     11  C   LIG    1        0.002  -0.004   0.002  0.00  0.00    +0.001 A 
BRANCH   8  12
ATOM     12  N   LIG    1        3.654   2.182  -0.021  0.00  0.00    +0.006 N 
ATOM     13  O   LIG    1        3.635   3.391  -0.014  0.00  0.00    -0.130 OA
BRANCH  12  14
ATOM     14  O   LIG    1        4.710   1.594  -0.034  0.00  0.00    -0.396 OA
ATOM     15  H   LIG    1        4.725   0.657  -0.040  0.00  0.00    +0.329 HD
ENDBRANCH  12  14
ENDBRANCH   8  12
ENDBRANCH   1  11
BRANCH   4  16
ATOM     16  N   LIG    1       -4.871  -0.296   0.039  0.00  0.00    -0.215 N 
ATOM     17  H   LIG    1       -5.026   0.661   0.041  0.00  0.00    +0.176 HD
BRANCH  16  18
ATOM     18  N   LIG    1       -5.956  -1.182   0.046  0.00  0.00    -0.190 NA
ATOM     19  C   LIG    1       -7.153  -0.728   0.056  0.00  0.00    +0.037 C 
ATOM     20  C   LIG    1       -7.559   0.731   0.054  0.00  0.00    +0.052 C 
ATOM     21  C   LIG    1       -9.101   0.766   0.078  0.00  0.00    +0.006 C 
ATOM     22  C   LIG    1       -9.492  -0.607   0.683  0.00  0.00    +0.006 C 
ATOM     23  C   LIG    1       -8.428  -1.552   0.065  0.00  0.00    +0.052 C 
ENDBRANCH  16  18
ENDBRANCH   4  16
TORSDOF 5
