REMARK  Name = ZINC00131032
REMARK                            x       y       z     vdW  Elec       q    Type
REMARK                         _______ _______ _______ _____ _____    ______ ____
ROOT
ATOM      1  C   LIG    1       -1.261  -0.761   0.011  0.00  0.00    +0.119 C 
ATOM      2  N   LIG    1       -1.240  -2.064   0.003  0.00  0.00    -0.255 NA
ENDROOT
BRANCH   1   8
ATOM      3  C   LIG    1       -0.017   1.394   0.010  0.00  0.00    +0.011 A 
ATOM      4  C   LIG    1        1.170   2.096   0.002  0.00  0.00    +0.033 A 
ATOM      5  C   LIG    1        2.378   1.420  -0.013  0.00  0.00    +0.122 A 
ATOM      6  C   LIG    1        2.405   0.037  -0.021  0.00  0.00    +0.033 A 
ATOM      7  C   LIG    1        1.226  -0.679  -0.014  0.00  0.00    +0.011 A 
ATOM      8  C   LIG    1        0.002  -0.004   0.002  0.00  0.00    -0.007 A 
BRANCH   5   9
ATOM      9  N   LIG    1        3.647   2.181  -0.022  0.00  0.00    +0.006 N 
ATOM     10  O   LIG    1        3.627   3.390  -0.016  0.00  0.00    -0.130 OA
BRANCH   9  11
ATOM     11  O   LIG    1        4.704   1.594  -0.036  0.00  0.00    -0.396 OA
ATOM     12  H   LIG    1        4.719   0.657  -0.041  0.00  0.00    +0.329 HD
ENDBRANCH   9  11
ENDBRANCH   5   9
ENDBRANCH   1   8
BRANCH   2  13
ATOM     13  C   LIG    1       -2.413  -2.768   0.011  0.00  0.00    +0.064 A 
ATOM     14  C   LIG    1       -3.448  -2.397   0.873  0.00  0.00    +0.029 A 
ATOM     15  C   LIG    1       -4.628  -3.111   0.876  0.00  0.00    +0.030 A 
ATOM     16  C   LIG    1       -4.788  -4.192   0.027  0.00  0.00    +0.105 A 
ATOM     17  C   LIG    1       -3.768  -4.565  -0.829  0.00  0.00    +0.030 A 
ATOM     18  C   LIG    1       -2.584  -3.856  -0.847  0.00  0.00    +0.029 A 
BRANCH  16  19
ATOM     19  S   LIG    1       -6.300  -5.098   0.037  0.00  0.00    +0.056 S 
ATOM     20  O   LIG    1       -6.891  -4.887   1.312  0.00  0.00    -0.153 OA
ATOM     21  O   LIG    1       -5.998  -6.395  -0.458  0.00  0.00    -0.153 OA
BRANCH  19  22
ATOM     22  N   LIG    1       -7.303  -4.389  -1.073  0.00  0.00    -0.204 NA
ATOM     23  H   LIG    1       -7.231  -3.439  -1.255  0.00  0.00    +0.144 HD
ATOM     24  H   LIG    1       -7.963  -4.924  -1.541  0.00  0.00    +0.144 HD
ENDBRANCH  19  22
ENDBRANCH  16  19
ENDBRANCH   2  13
TORSDOF 6
