REMARK  Name = ZINC00338411
REMARK                            x       y       z     vdW  Elec       q    Type
REMARK                         _______ _______ _______ _____ _____    ______ ____
ROOT
ATOM      1  C   LIG    1       -4.917   4.016  -0.286  0.00  0.00    +0.060 C 
ATOM      2  C   LIG    1       -3.604   3.324  -0.654  0.00  0.00    +0.124 C 
ATOM      3  C   LIG    1       -3.366   3.455  -2.160  0.00  0.00    +0.060 C 
ATOM      4  C   LIG    1       -3.690   1.864  -0.290  0.00  0.00    +0.020 C 
ATOM      5  C   LIG    1       -2.576   1.198   0.031  0.00  0.00    +0.015 C 
ATOM      6  C   LIG    1       -1.299   1.934   0.019  0.00  0.00    +0.068 C 
ATOM      7  C   LIG    1       -1.330   3.311   0.033  0.00  0.00    +0.180 C 
ATOM      8  C   LIG    1       -0.076   4.083   0.024  0.00  0.00    +0.229 C 
ATOM      9  C   LIG    1        1.224   3.377   0.008  0.00  0.00    +0.036 A 
ATOM     10  C   LIG    1        2.416   4.094  -0.001  0.00  0.00    +0.012 A 
ATOM     11  C   LIG    1        3.626   3.418  -0.015  0.00  0.00    +0.001 A 
ATOM     12  C   LIG    1        3.656   2.037  -0.021  0.00  0.00    +0.001 A 
ATOM     13  C   LIG    1        2.477   1.309  -0.013  0.00  0.00    +0.012 A 
ATOM     14  C   LIG    1        1.255   1.972   0.001  0.00  0.00    +0.033 A 
ATOM     15  O   LIG    1       -0.110   5.298   0.031  0.00  0.00    -0.283 OA
ATOM     16  C   LIG    1       -0.014   1.211   0.009  0.00  0.00    +0.197 C 
ATOM     17  O   LIG    1        0.002  -0.004   0.002  0.00  0.00    -0.287 OA
ATOM     18  O   LIG    1       -2.527   3.944   0.051  0.00  0.00    -0.478 OA
ENDROOT
TORSDOF 0
