REMARK  Name = ZINC00299616
REMARK                            x       y       z     vdW  Elec       q    Type
REMARK                         _______ _______ _______ _____ _____    ______ ____
ROOT
ATOM      1  N   LIG    1       -0.801   1.635   5.973  0.00  0.00    -0.281 N 
ATOM      2  H   LIG    1       -1.554   2.246   5.950  0.00  0.00    +0.155 HD
ATOM      3  C   LIG    1       -0.329   1.190   7.154  0.00  0.00    +0.248 C 
ATOM      4  O   LIG    1        0.673   0.502   7.189  0.00  0.00    -0.270 OA
ENDROOT
BRANCH   3   5
ATOM      5  C   LIG    1       -1.030   1.538   8.408  0.00  0.00    +0.039 A 
ATOM      6  C   LIG    1       -2.178   2.333   8.371  0.00  0.00    +0.014 A 
ATOM      7  C   LIG    1       -2.831   2.650   9.543  0.00  0.00    +0.023 A 
ATOM      8  C   LIG    1       -2.343   2.192  10.757  0.00  0.00    +0.071 A 
ATOM      9 CL   LIG    1       -3.167   2.601  12.229  0.00  0.00    -0.081 Cl
ATOM     10  C   LIG    1       -1.202   1.408  10.800  0.00  0.00    +0.141 A 
ATOM     11  C   LIG    1       -0.544   1.079   9.633  0.00  0.00    +0.047 A 
BRANCH  10  12
ATOM     12  N   LIG    1       -0.689   0.922  12.100  0.00  0.00    +0.007 N 
ATOM     13  O   LIG    1        0.315   0.232  12.139  0.00  0.00    -0.130 OA
BRANCH  12  14
ATOM     14  O   LIG    1       -1.269   1.212  13.131  0.00  0.00    -0.396 OA
ATOM     15  H   LIG    1       -2.041   1.742  13.101  0.00  0.00    +0.329 HD
ENDBRANCH  12  14
ENDBRANCH  10  12
ENDBRANCH   3   5
BRANCH   1  20
ATOM     16  C   LIG    1        0.922  -0.472   3.497  0.00  0.00    +0.122 A 
ATOM     17  C   LIG    1        0.977   0.392   2.412  0.00  0.00    +0.046 A 
ATOM     18  C   LIG    1        0.443   1.663   2.512  0.00  0.00    +0.005 A 
ATOM     19  C   LIG    1       -0.147   2.077   3.690  0.00  0.00    +0.023 A 
ATOM     20  C   LIG    1       -0.204   1.216   4.779  0.00  0.00    +0.037 A 
ATOM     21  C   LIG    1        0.327  -0.063   4.679  0.00  0.00    +0.069 A 
BRANCH  16  23
ATOM     22  C   LIG    1        2.041  -2.079   2.147  0.00  0.00    +0.277 C 
ATOM     23  O   LIG    1        1.448  -1.722   3.397  0.00  0.00    -0.495 OA
ENDBRANCH  16  23
ENDBRANCH   1  20
TORSDOF 5
