REMARK  Name = ZINC00113404
REMARK                            x       y       z     vdW  Elec       q    Type
REMARK                         _______ _______ _______ _____ _____    ______ ____
ROOT
ATOM      1  C   LIG    1       -2.794  -2.566  -0.111  0.00  0.00    +0.066 C 
ENDROOT
BRANCH   1   2
ATOM      2  C   LIG    1       -3.399  -2.064  -1.396  0.00  0.00    -0.038 A 
ATOM      3  C   LIG    1       -2.760  -2.300  -2.599  0.00  0.00    +0.006 A 
ATOM      4  C   LIG    1       -3.315  -1.839  -3.779  0.00  0.00    +0.020 A 
ATOM      5  C   LIG    1       -4.510  -1.143  -3.755  0.00  0.00    +0.041 A 
ATOM      6 CL   LIG    1       -5.207  -0.564  -5.236  0.00  0.00    -0.084 Cl
ATOM      7  C   LIG    1       -5.149  -0.907  -2.551  0.00  0.00    +0.020 A 
ATOM      8  C   LIG    1       -4.596  -1.373  -1.373  0.00  0.00    +0.006 A 
ENDBRANCH   1   2
BRANCH   1   9
ATOM      9  C   LIG    1       -2.769  -4.073  -0.122  0.00  0.00    +0.049 A 
ATOM     10  C   LIG    1       -1.722  -4.734  -0.737  0.00  0.00    +0.024 A 
ATOM     11  C   LIG    1       -1.708  -6.120  -0.742  0.00  0.00    +0.003 A 
ATOM     12  C   LIG    1       -2.753  -6.793  -0.126  0.00  0.00    +0.020 A 
ATOM     13  C   LIG    1       -3.766  -6.064   0.469  0.00  0.00    +0.111 A 
ATOM     14  N   LIG    1       -3.743  -4.745   0.459  0.00  0.00    -0.259 NA
ENDBRANCH   1   9
BRANCH   1  15
ATOM     15  C   LIG    1       -1.366  -2.033   0.023  0.00  0.00    -0.004 C 
BRANCH  15  16
ATOM     16  C   LIG    1       -1.401  -0.510   0.160  0.00  0.00    -0.079 C 
BRANCH  16  18
ATOM     17  C   LIG    1       -0.054   1.470   0.299  0.00  0.00    -0.097 C 
ATOM     18  N   LIG    1       -0.029   0.002   0.288  0.00  0.00    +0.376 N 
ATOM     19  H   LIG    1        0.524  -0.320  -0.492  0.00  0.00    -0.083 HD
ATOM     20  C   LIG    1        0.560  -0.488   1.541  0.00  0.00    -0.097 C 
ENDBRANCH  16  18
ENDBRANCH  15  16
ENDBRANCH   1  15
TORSDOF 5
