REMARK  Name = ZINC00088525
REMARK                            x       y       z     vdW  Elec       q    Type
REMARK                         _______ _______ _______ _____ _____    ______ ____
ROOT
ATOM      1  C   LIG    1        3.684   2.031  -0.025  0.00  0.00    +0.082 A 
ATOM      2  C   LIG    1        4.818   1.323   0.256  0.00  0.00    +0.077 A 
ATOM      3  S   LIG    1        6.015   2.644   0.381  0.00  0.00    -0.060 S 
ATOM      4  C   LIG    1        4.895   3.996   0.051  0.00  0.00    +0.163 A 
ATOM      5  N   LIG    1        3.753   3.357  -0.126  0.00  0.00    -0.225 NA
ENDROOT
BRANCH   1   8
ATOM      6  C   LIG    1        0.049   1.352  -0.686  0.00  0.00    +0.020 A 
ATOM      7  C   LIG    1        1.230   2.052  -0.512  0.00  0.00    +0.013 A 
ATOM      8  C   LIG    1        2.391   1.331  -0.220  0.00  0.00    +0.019 A 
ATOM      9  C   LIG    1        2.315  -0.057  -0.116  0.00  0.00    +0.120 A 
ATOM     10  N   LIG    1        1.167  -0.679  -0.289  0.00  0.00    -0.263 NA
ATOM     11  C   LIG    1        0.055  -0.026  -0.566  0.00  0.00    +0.111 A 
ENDBRANCH   1   8
BRANCH   4  12
ATOM     12  N   LIG    1        5.156   5.356  -0.010  0.00  0.00    -0.294 N 
ATOM     13  H   LIG    1        4.426   5.986  -0.117  0.00  0.00    +0.154 HD
BRANCH  12  14
ATOM     14  C   LIG    1        6.473   5.821   0.085  0.00  0.00    +0.033 A 
ATOM     15  C   LIG    1        7.503   5.121  -0.530  0.00  0.00    +0.027 A 
ATOM     16  C   LIG    1        8.801   5.580  -0.437  0.00  0.00    +0.047 A 
ATOM     17  C   LIG    1        9.078   6.741   0.272  0.00  0.00    +0.117 A 
ATOM     18  C   LIG    1        8.050   7.440   0.887  0.00  0.00    +0.047 A 
ATOM     19  C   LIG    1        6.750   6.985   0.789  0.00  0.00    +0.027 A 
BRANCH  17  20
ATOM     20  O   LIG    1       10.357   7.192   0.363  0.00  0.00    -0.507 OA
ATOM     21  H   LIG    1       10.612   7.799  -0.345  0.00  0.00    +0.292 HD
ENDBRANCH  17  20
ENDBRANCH  12  14
ENDBRANCH   4  12
TORSDOF 4
