REMARK  Name = ZINC00290868
REMARK                            x       y       z     vdW  Elec       q    Type
REMARK                         _______ _______ _______ _____ _____    ______ ____
ROOT
ATOM      1  C   LIG    1       -1.332   3.283   0.031  0.00  0.00    +0.033 C 
ATOM      2  C   LIG    1       -1.294   1.928   0.019  0.00  0.00    +0.063 C 
ATOM      3  C   LIG    1       -0.014   1.212   0.009  0.00  0.00    +0.187 C 
ATOM      4  C   LIG    1        1.256   1.969   0.001  0.00  0.00    +0.032 A 
ATOM      5  C   LIG    1        2.478   1.307  -0.014  0.00  0.00    +0.012 A 
ATOM      6  C   LIG    1        3.657   2.035  -0.020  0.00  0.00    +0.001 A 
ATOM      7  C   LIG    1        3.627   3.417  -0.013  0.00  0.00    +0.001 A 
ATOM      8  C   LIG    1        2.417   4.092   0.001  0.00  0.00    +0.012 A 
ATOM      9  C   LIG    1        1.226   3.375   0.008  0.00  0.00    +0.033 A 
ATOM     10  O   LIG    1        0.002  -0.004   0.002  0.00  0.00    -0.287 OA
ATOM     11  C   LIG    1       -0.077   4.073   0.024  0.00  0.00    +0.195 C 
ATOM     12  O   LIG    1       -0.120   5.287   0.030  0.00  0.00    -0.287 OA
ENDROOT
BRANCH   1  16
ATOM     13  C   LIG    1       -5.078   5.284   0.077  0.00  0.00    +0.000 A 
ATOM     14  C   LIG    1       -4.699   4.506   1.157  0.00  0.00    +0.001 A 
ATOM     15  C   LIG    1       -3.485   3.853   1.150  0.00  0.00    +0.008 A 
ATOM     16  C   LIG    1       -2.635   3.979   0.047  0.00  0.00    -0.014 A 
ATOM     17  C   LIG    1       -3.021   4.770  -1.038  0.00  0.00    +0.008 A 
ATOM     18  C   LIG    1       -4.242   5.412  -1.019  0.00  0.00    +0.001 A 
ENDBRANCH   1  16
TORSDOF 1
