REMARK  Name = ZINC00096414
REMARK                            x       y       z     vdW  Elec       q    Type
REMARK                         _______ _______ _______ _____ _____    ______ ____
ROOT
ATOM      1  C   LIG    1        1.248  -2.159  -0.021  0.00  0.00    +0.341 C 
ATOM      2  O   LIG    1        0.206  -2.784  -0.014  0.00  0.00    -0.245 OA
ENDROOT
BRANCH   1   3
ATOM      3  C   LIG    1        1.223  -0.684  -0.013  0.00  0.00    +0.059 A 
ATOM      4  C   LIG    1        0.002  -0.004   0.002  0.00  0.00    +0.018 A 
ATOM      5  C   LIG    1       -0.017   1.373   0.010  0.00  0.00    +0.046 A 
ATOM      6  C   LIG    1        1.177   2.086   0.002  0.00  0.00    +0.120 A 
ATOM      7  C   LIG    1        2.393   1.413  -0.013  0.00  0.00    +0.046 A 
ATOM      8  C   LIG    1        2.421   0.037  -0.021  0.00  0.00    +0.018 A 
BRANCH   6   9
ATOM      9  O   LIG    1        1.154   3.443   0.010  0.00  0.00    -0.495 OA
ATOM     10  C   LIG    1        2.416   4.113   0.001  0.00  0.00    +0.277 C 
ENDBRANCH   6   9
ENDBRANCH   1   3
BRANCH   1  11
ATOM     11  O   LIG    1        2.426  -2.813  -0.036  0.00  0.00    -0.442 OA
BRANCH  11  13
ATOM     12  C   LIG    1        1.648  -4.754   1.211  0.00  0.00    +0.070 C 
ATOM     13  C   LIG    1        2.374  -4.264  -0.043  0.00  0.00    +0.168 C 
ATOM     14  C   LIG    1        1.623  -4.742  -1.287  0.00  0.00    +0.070 C 
BRANCH  13  15
ATOM     15  C   LIG    1        3.744  -4.803  -0.059  0.00  0.00    -0.059 C 
ATOM     16  C   LIG    1        4.836  -5.234  -0.072  0.00  0.00    +0.008 C 
ENDBRANCH  13  15
ENDBRANCH  11  13
ENDBRANCH   1  11
TORSDOF 5
