REMARK  Name = ZINC00188419
REMARK                            x       y       z     vdW  Elec       q    Type
REMARK                         _______ _______ _______ _____ _____    ______ ____
ROOT
ATOM      1  N   LIG    1       -0.918   5.029   0.037  0.00  0.00    -0.293 N 
ATOM      2  H   LIG    1       -0.286   5.760   0.122  0.00  0.00    +0.154 HD
ENDROOT
BRANCH   1   3
ATOM      3  C   LIG    1       -2.283   5.296  -0.053  0.00  0.00    +0.041 A 
ATOM      4  C   LIG    1       -3.131   4.387  -0.650  0.00  0.00    +0.024 A 
ATOM      5  C   LIG    1       -4.496   4.642  -0.741  0.00  0.00    +0.002 A 
ATOM      6  C   LIG    1       -5.030   5.796  -0.254  0.00  0.00    +0.008 A 
ATOM      7  C   LIG    1       -4.200   6.750   0.357  0.00  0.00    -0.016 A 
ATOM      8  C   LIG    1       -4.723   7.951   0.867  0.00  0.00    +0.008 A 
ATOM      9  C   LIG    1       -3.890   8.854   1.452  0.00  0.00    +0.001 A 
ATOM     10  C   LIG    1       -2.522   8.608   1.553  0.00  0.00    +0.001 A 
ATOM     11  C   LIG    1       -1.980   7.456   1.069  0.00  0.00    +0.010 A 
ATOM     12  C   LIG    1       -2.809   6.501   0.460  0.00  0.00    +0.003 A 
ENDBRANCH   1   3
BRANCH   1  16
ATOM     13  C   LIG    1        1.030   1.966  -0.071  0.00  0.00    +0.080 A 
ATOM     14  C   LIG    1       -0.008   1.077  -0.038  0.00  0.00    +0.076 A 
ATOM     15  S   LIG    1       -1.401   2.197   0.021  0.00  0.00    -0.060 S 
ATOM     16  C   LIG    1       -0.464   3.720   0.007  0.00  0.00    +0.163 A 
ATOM     17  N   LIG    1        0.775   3.266  -0.047  0.00  0.00    -0.225 NA
BRANCH  13  21
ATOM     18  C   LIG    1        5.043   0.570  -0.243  0.00  0.00    +0.000 A 
ATOM     19  C   LIG    1        4.786   1.929  -0.220  0.00  0.00    +0.001 A 
ATOM     20  C   LIG    1        3.486   2.388  -0.164  0.00  0.00    +0.010 A 
ATOM     21  C   LIG    1        2.430   1.479  -0.131  0.00  0.00    +0.001 A 
ATOM     22  C   LIG    1        2.694   0.110  -0.149  0.00  0.00    +0.010 A 
ATOM     23  C   LIG    1        3.999  -0.337  -0.210  0.00  0.00    +0.001 A 
ENDBRANCH  13  21
ENDBRANCH   1  16
TORSDOF 3
