REMARK  Name = ZINC00155127
REMARK                            x       y       z     vdW  Elec       q    Type
REMARK                         _______ _______ _______ _____ _____    ______ ____
ROOT
ATOM      1  C   LIG    1       -0.421   8.531   0.972  0.00  0.00    +0.001 A 
ATOM      2  C   LIG    1       -1.451   8.703   0.063  0.00  0.00    +0.002 A 
ATOM      3  C   LIG    1       -1.741   7.712  -0.858  0.00  0.00    +0.033 A 
ATOM      4  C   LIG    1       -1.000   6.548  -0.880  0.00  0.00    +0.132 A 
ATOM      5  C   LIG    1        0.037   6.367   0.037  0.00  0.00    +0.047 A 
ATOM      6  C   LIG    1        0.324   7.371   0.964  0.00  0.00    +0.014 A 
ENDROOT
BRANCH   5   7
ATOM      7  C   LIG    1        0.831   5.122   0.022  0.00  0.00    +0.138 A 
ATOM      8  C   LIG    1        2.194   5.047   0.008  0.00  0.00    +0.051 A 
ATOM      9  C   LIG    1        2.532   3.690   0.003  0.00  0.00    +0.057 A 
ATOM     10  C   LIG    1        1.347   2.986   0.005  0.00  0.00    +0.212 A 
ATOM     11  O   LIG    1        0.331   3.874   0.020  0.00  0.00    -0.448 OA
BRANCH  10  12
ATOM     12  C   LIG    1        1.214   1.528  -0.001  0.00  0.00    +0.372 C 
ATOM     13  O   LIG    1        2.208   0.827  -0.015  0.00  0.00    -0.242 OA
BRANCH  12  14
ATOM     14  O   LIG    1       -0.011   0.963   0.007  0.00  0.00    -0.475 OA
ATOM     15  H   LIG    1       -0.776   1.503   0.018  0.00  0.00    +0.296 HD
ENDBRANCH  12  14
ENDBRANCH  10  12
ENDBRANCH   5   7
BRANCH   4  16
ATOM     16  N   LIG    1       -1.308   5.492  -1.871  0.00  0.00    +0.007 N 
ATOM     17  O   LIG    1       -2.213   5.651  -2.670  0.00  0.00    -0.130 OA
BRANCH  16  18
ATOM     18  O   LIG    1       -0.656   4.463  -1.886  0.00  0.00    -0.396 OA
ATOM     19  H   LIG    1        0.040   4.340  -1.271  0.00  0.00    +0.329 HD
ENDBRANCH  16  18
ENDBRANCH   4  16
TORSDOF 5
