REMARK  Name = ZINC00345355
REMARK                            x       y       z     vdW  Elec       q    Type
REMARK                         _______ _______ _______ _____ _____    ______ ____
ROOT
ATOM      1  C   LIG    1        1.431   0.096   3.945  0.00  0.00    +0.003 A 
ATOM      2  C   LIG    1        0.948   0.422   2.695  0.00  0.00    +0.011 A 
ATOM      3  C   LIG    1       -0.198   1.216   2.578  0.00  0.00    +0.020 A 
ATOM      4  C   LIG    1       -0.850   1.665   3.731  0.00  0.00    +0.044 A 
ATOM      5  C   LIG    1       -0.356   1.327   4.973  0.00  0.00    +0.122 A 
ATOM      6  C   LIG    1        0.781   0.545   5.081  0.00  0.00    +0.032 A 
ENDROOT
BRANCH   3   7
ATOM      7  C   LIG    1       -0.718   1.572   1.248  0.00  0.00    +0.164 C 
ATOM      8  O   LIG    1       -1.714   2.256   1.150  0.00  0.00    -0.292 OA
BRANCH   7   9
ATOM      9  C   LIG    1       -0.013   1.086   0.008  0.00  0.00    +0.091 C 
BRANCH   9  10
ATOM     10  C   LIG    1       -0.753   1.593  -1.232  0.00  0.00    +0.128 C 
BRANCH  10  11
ATOM     11  C   LIG    1       -0.047   1.107  -2.471  0.00  0.00    +0.305 C 
ATOM     12  O   LIG    1        0.945   0.425  -2.374  0.00  0.00    -0.251 OA
BRANCH  11  13
ATOM     13  O   LIG    1       -0.522   1.431  -3.684  0.00  0.00    -0.481 OA
ATOM     14  H   LIG    1       -1.292   1.960  -3.760  0.00  0.00    +0.295 HD
ENDBRANCH  11  13
ENDBRANCH  10  11
ENDBRANCH   9  10
ENDBRANCH   7   9
ENDBRANCH   3   7
BRANCH   5  15
ATOM     15  N   LIG    1       -1.044   1.801   6.195  0.00  0.00    +0.006 N 
ATOM     16  O   LIG    1       -2.045   2.489   6.102  0.00  0.00    -0.130 OA
BRANCH  15  17
ATOM     17  O   LIG    1       -0.610   1.504   7.293  0.00  0.00    -0.396 OA
ATOM     18  H   LIG    1        0.160   0.974   7.364  0.00  0.00    +0.329 HD
ENDBRANCH  15  17
ENDBRANCH   5  15
TORSDOF 7
