REMARK  Name = ZINC00119346
REMARK                            x       y       z     vdW  Elec       q    Type
REMARK                         _______ _______ _______ _____ _____    ______ ____
ROOT
ATOM      1  C   LIG    1        3.698  -0.688  -0.038  0.00  0.00    +0.162 A 
ATOM      2  N   LIG    1        4.814   0.017  -0.041  0.00  0.00    -0.227 NA
ATOM      3  C   LIG    1        6.005  -0.598  -0.055  0.00  0.00    +0.077 A 
ATOM      4  C   LIG    1        7.209   0.120  -0.058  0.00  0.00    +0.028 A 
ATOM      5  C   LIG    1        8.394  -0.554  -0.073  0.00  0.00    +0.002 A 
ATOM      6  C   LIG    1        8.428  -1.945  -0.086  0.00  0.00    +0.001 A 
ATOM      7  C   LIG    1        7.275  -2.674  -0.085  0.00  0.00    +0.013 A 
ATOM      8  C   LIG    1        6.042  -2.014  -0.069  0.00  0.00    +0.040 A 
ATOM      9  C   LIG    1        4.812  -2.719  -0.065  0.00  0.00    +0.131 A 
ATOM     10  N   LIG    1        3.687  -2.019  -0.045  0.00  0.00    -0.212 NA
ENDROOT
BRANCH   1  14
ATOM     11  C   LIG    1       -0.017   1.379   0.010  0.00  0.00    +0.000 A 
ATOM     12  C   LIG    1        1.169   2.092   0.002  0.00  0.00    +0.001 A 
ATOM     13  C   LIG    1        2.377   1.427  -0.013  0.00  0.00    +0.011 A 
ATOM     14  C   LIG    1        2.402   0.033  -0.021  0.00  0.00    +0.019 A 
ATOM     15  C   LIG    1        1.205  -0.680  -0.013  0.00  0.00    +0.011 A 
ATOM     16  C   LIG    1        0.002  -0.004   0.002  0.00  0.00    +0.001 A 
ENDBRANCH   1  14
BRANCH   9  17
ATOM     17  N   LIG    1        4.787  -4.097  -0.078  0.00  0.00    -0.321 N 
ATOM     18  H   LIG    1        5.618  -4.597  -0.090  0.00  0.00    +0.148 HD
BRANCH  17  19
ATOM     19  C   LIG    1        3.506  -4.807  -0.075  0.00  0.00    +0.177 C 
BRANCH  19  20
ATOM     20  C   LIG    1        3.754  -6.293  -0.091  0.00  0.00    +0.122 A 
ATOM     21  C   LIG    1        3.888  -7.080   0.992  0.00  0.00    +0.046 A 
ATOM     22  C   LIG    1        4.107  -8.394   0.519  0.00  0.00    +0.041 A 
ATOM     23  C   LIG    1        4.095  -8.332  -0.825  0.00  0.00    +0.195 A 
ATOM     24  O   LIG    1        3.875  -7.058  -1.188  0.00  0.00    -0.466 OA
ENDBRANCH  19  20
ENDBRANCH  17  19
ENDBRANCH   9  17
TORSDOF 4
