REMARK  Name = ZINC00119988
REMARK                            x       y       z     vdW  Elec       q    Type
REMARK                         _______ _______ _______ _____ _____    ______ ____
ROOT
ATOM      1  C   LIG    1       -0.017   1.381   0.010  0.00  0.00    +0.091 A 
ATOM      2  C   LIG    1        1.177   2.088   0.002  0.00  0.00    +0.124 A 
ATOM      3  C   LIG    1        2.382   1.407  -0.015  0.00  0.00    +0.091 A 
ATOM      4  C   LIG    1        2.402   0.016  -0.024  0.00  0.00    +0.131 A 
ATOM      5  C   LIG    1        1.212  -0.689  -0.013  0.00  0.00    +0.038 A 
ATOM      6  C   LIG    1        1.192  -2.196  -0.011  0.00  0.00    +0.077 C 
ATOM      7  C   LIG    1        2.552  -2.732  -0.465  0.00  0.00    +0.160 C 
ATOM      8  C   LIG    1        3.645  -1.994   0.318  0.00  0.00    +0.209 C 
ATOM      9  O   LIG    1        3.607  -0.613  -0.047  0.00  0.00    -0.485 OA
ATOM     10  C   LIG    1        0.002  -0.004   0.002  0.00  0.00    +0.127 A 
ENDROOT
BRANCH   8  11
ATOM     11  C   LIG    1        5.014  -2.581  -0.031  0.00  0.00    +0.063 C 
ATOM     12  C   LIG    1        6.093  -1.815   0.734  0.00  0.00    +0.094 C 
ATOM     13  C   LIG    1        7.400  -2.579   0.604  0.00  0.00    +0.203 C 
ATOM     14  C   LIG    1        7.338  -4.020   1.035  0.00  0.00    +0.221 C 
ATOM     15  C   LIG    1        6.061  -4.709   0.776  0.00  0.00    +0.050 C 
ATOM     16  O   LIG    1        8.279  -4.579   1.562  0.00  0.00    -0.284 OA
ATOM     17  O   LIG    1        8.412  -2.069   0.187  0.00  0.00    -0.289 OA
ATOM     18  C   LIG    1        5.018  -4.039   0.306  0.00  0.00    -0.015 C 
ENDBRANCH   8  11
BRANCH   2  19
ATOM     19  O   LIG    1        1.163   3.447   0.011  0.00  0.00    -0.507 OA
ATOM     20  H   LIG    1        1.167   3.834   0.897  0.00  0.00    +0.292 HD
ENDBRANCH   2  19
BRANCH   7  21
ATOM     21  O   LIG    1        2.719  -2.497  -1.865  0.00  0.00    -0.388 OA
ATOM     22  H   LIG    1        2.049  -2.922  -2.417  0.00  0.00    +0.210 HD
ENDBRANCH   7  21
BRANCH  10  23
ATOM     23  O   LIG    1       -1.167  -0.697   0.009  0.00  0.00    -0.506 OA
ATOM     24  H   LIG    1       -1.513  -0.892  -0.873  0.00  0.00    +0.292 HD
ENDBRANCH  10  23
TORSDOF 4
