REMARK  Name = ZINC00184018
REMARK                            x       y       z     vdW  Elec       q    Type
REMARK                         _______ _______ _______ _____ _____    ______ ____
ROOT
ATOM      1  C   LIG    1       -0.017   1.385   0.010  0.00  0.00    +0.026 A 
ATOM      2  C   LIG    1        1.171   2.090   0.002  0.00  0.00    +0.030 A 
ATOM      3  C   LIG    1        2.377   1.415  -0.013  0.00  0.00    +0.105 A 
ATOM      4  C   LIG    1        2.400   0.032  -0.021  0.00  0.00    +0.030 A 
ATOM      5  C   LIG    1        1.216  -0.679  -0.014  0.00  0.00    +0.026 A 
ATOM      6  C   LIG    1        0.002  -0.004   0.002  0.00  0.00    +0.048 A 
ENDROOT
BRANCH   3   7
ATOM      7  S   LIG    1        3.890   2.319  -0.024  0.00  0.00    +0.056 S 
ATOM      8  O   LIG    1        3.595   3.599  -0.566  0.00  0.00    -0.153 OA
ATOM      9  O   LIG    1        4.872   1.461  -0.589  0.00  0.00    -0.153 OA
BRANCH   7  10
ATOM     10  N   LIG    1        4.326   2.562   1.555  0.00  0.00    -0.204 NA
ATOM     11  H   LIG    1        5.141   3.046   1.764  0.00  0.00    +0.144 HD
ATOM     12  H   LIG    1        3.768   2.220   2.270  0.00  0.00    +0.144 HD
ENDBRANCH   7  10
ENDBRANCH   3   7
BRANCH   6  13
ATOM     13  N   LIG    1       -1.197  -0.720   0.010  0.00  0.00    -0.216 N 
ATOM     14  H   LIG    1       -2.057  -0.241   0.021  0.00  0.00    +0.174 HD
BRANCH  13  15
ATOM     15  S   LIG    1       -1.172  -2.376   0.001  0.00  0.00    +0.072 S 
ATOM     16  O   LIG    1       -0.603  -2.781   1.239  0.00  0.00    -0.150 OA
ATOM     17  O   LIG    1       -0.628  -2.767  -1.252  0.00  0.00    -0.150 OA
BRANCH  15  18
ATOM     18  C   LIG    1       -2.848  -2.922   0.015  0.00  0.00    +0.109 A 
ATOM     19  C   LIG    1       -3.494  -3.137   1.218  0.00  0.00    +0.031 A 
ATOM     20  C   LIG    1       -4.808  -3.565   1.230  0.00  0.00    +0.040 A 
ATOM     21  C   LIG    1       -5.477  -3.778   0.036  0.00  0.00    +0.124 A 
ATOM     22  F   LIG    1       -6.762  -4.197   0.047  0.00  0.00    -0.205 F 
ATOM     23  C   LIG    1       -4.829  -3.563  -1.168  0.00  0.00    +0.040 A 
ATOM     24  C   LIG    1       -3.516  -3.130  -1.177  0.00  0.00    +0.031 A 
ENDBRANCH  15  18
ENDBRANCH  13  15
ENDBRANCH   6  13
TORSDOF 5
