REMARK  Name = ZINC00332752
REMARK                            x       y       z     vdW  Elec       q    Type
REMARK                         _______ _______ _______ _____ _____    ______ ____
ROOT
ATOM      1  C   LIG    1       -0.017   1.395   0.010  0.00  0.00    +0.018 A 
ATOM      2  C   LIG    1        1.167   2.097   0.002  0.00  0.00    +0.046 A 
ATOM      3  C   LIG    1        2.380   1.418  -0.013  0.00  0.00    +0.117 A 
ATOM      4  C   LIG    1        2.404   0.028  -0.022  0.00  0.00    +0.046 A 
ATOM      5  C   LIG    1        1.225  -0.683  -0.014  0.00  0.00    +0.018 A 
ATOM      6  C   LIG    1        0.002  -0.004   0.002  0.00  0.00    +0.059 A 
ENDROOT
BRANCH   3   7
ATOM      7  O   LIG    1        3.545   2.114  -0.021  0.00  0.00    -0.507 OA
ATOM      8  H   LIG    1        3.891   2.312   0.860  0.00  0.00    +0.292 HD
ENDBRANCH   3   7
BRANCH   6   9
ATOM      9  C   LIG    1       -1.262  -0.760   0.011  0.00  0.00    +0.337 C 
ATOM     10  O   LIG    1       -2.330  -0.165   0.024  0.00  0.00    -0.245 OA
BRANCH   9  11
ATOM     11  O   LIG    1       -1.243  -1.983   0.004  0.00  0.00    -0.477 OA
ATOM     12  H   LIG    1       -0.424  -2.439  -0.007  0.00  0.00    +0.295 HD
ENDBRANCH   9  11
ENDBRANCH   6   9
TORSDOF 3
