REMARK  Name = ZINC00102780
REMARK                            x       y       z     vdW  Elec       q    Type
REMARK                         _______ _______ _______ _____ _____    ______ ____
ROOT
ATOM      1  N   LIG    1       -1.320   3.464   0.027  0.00  0.00    -0.279 N 
ATOM      2  H   LIG    1       -0.488   3.958   0.102  0.00  0.00    +0.155 HD
ATOM      3  C   LIG    1       -1.304   2.116   0.016  0.00  0.00    +0.248 C 
ATOM      4  O   LIG    1       -2.350   1.496   0.024  0.00  0.00    -0.270 OA
ENDROOT
BRANCH   1  11
ATOM      5  C   LIG    1       -2.650   5.444   0.436  0.00  0.00    +0.141 A 
ATOM      6  C   LIG    1       -3.855   6.120   0.338  0.00  0.00    +0.049 A 
ATOM      7  C   LIG    1       -4.943   5.511  -0.260  0.00  0.00    +0.024 A 
ATOM      8  C   LIG    1       -4.832   4.226  -0.762  0.00  0.00    +0.043 A 
ATOM      9 CL   LIG    1       -6.202   3.467  -1.511  0.00  0.00    -0.083 Cl
ATOM     10  C   LIG    1       -3.630   3.547  -0.672  0.00  0.00    +0.047 A 
ATOM     11  C   LIG    1       -2.536   4.151  -0.069  0.00  0.00    +0.077 A 
BRANCH   5  13
ATOM     12  C   LIG    1       -1.768   7.370   1.518  0.00  0.00    +0.277 C 
ATOM     13  O   LIG    1       -1.579   6.043   1.023  0.00  0.00    -0.493 OA
ENDBRANCH   5  13
ENDBRANCH   1  11
BRANCH   3  14
ATOM     14  C   LIG    1       -0.017   1.392  -0.006  0.00  0.00    +0.039 A 
ATOM     15  C   LIG    1        1.186   2.102  -0.021  0.00  0.00    +0.014 A 
ATOM     16  C   LIG    1        2.385   1.421  -0.048  0.00  0.00    +0.023 A 
ATOM     17  C   LIG    1        2.397   0.035  -0.059  0.00  0.00    +0.071 A 
ATOM     18 CL   LIG    1        3.910  -0.815  -0.091  0.00  0.00    -0.081 Cl
ATOM     19  C   LIG    1        1.208  -0.674  -0.044  0.00  0.00    +0.141 A 
ATOM     20  C   LIG    1        0.003  -0.004  -0.018  0.00  0.00    +0.047 A 
BRANCH  19  21
ATOM     21  N   LIG    1        1.230  -2.154  -0.056  0.00  0.00    +0.007 N 
ATOM     22  O   LIG    1        0.185  -2.779  -0.042  0.00  0.00    -0.130 OA
BRANCH  21  23
ATOM     23  O   LIG    1        2.294  -2.747  -0.079  0.00  0.00    -0.396 OA
ATOM     24  H   LIG    1        3.098  -2.266  -0.089  0.00  0.00    +0.329 HD
ENDBRANCH  21  23
ENDBRANCH  19  21
ENDBRANCH   3  14
TORSDOF 5
