REMARK  Name = ZINC00154475
REMARK                            x       y       z     vdW  Elec       q    Type
REMARK                         _______ _______ _______ _____ _____    ______ ____
ROOT
ATOM      1  CA  LIG    1        1.151   3.592   0.010  0.00  0.00    +0.066 C 
ENDROOT
BRANCH   1   5
ATOM      2  C   LIG    1        1.208  -0.679  -0.014  0.00  0.00    +0.000 A 
ATOM      3  C   LIG    1        0.002  -0.004   0.002  0.00  0.00    +0.000 A 
ATOM      4  C   LIG    1       -0.017   1.378   0.010  0.00  0.00    +0.002 A 
ATOM      5  C   LIG    1        1.171   2.086   0.002  0.00  0.00    -0.051 A 
ATOM      6  C   LIG    1        2.377   1.411  -0.014  0.00  0.00    +0.002 A 
ATOM      7  C   LIG    1        2.396   0.029  -0.021  0.00  0.00    +0.000 A 
ENDBRANCH   1   5
BRANCH   1   8
ATOM      8  N   LIG    1        2.189   4.090  -0.909  0.00  0.00    +0.390 N 
ATOM      9  H1  LIG    1        2.018   3.712  -1.849  0.00  0.00    -0.088 HD
ATOM     10  H2  LIG    1        3.109   3.788  -0.593  0.00  0.00    -0.088 HD
ATOM     11  H3  LIG    1        2.162   5.107  -0.950  0.00  0.00    -0.088 HD
ENDBRANCH   1   8
BRANCH   1  12
ATOM     12  C   LIG    1        1.403   4.091   1.409  0.00  0.00    +0.294 C 
ATOM     13  O   LIG    1        2.505   4.477   1.723  0.00  0.00    -0.253 OA
BRANCH  12  14
ATOM     14  OXT LIG    1        0.406   4.106   2.307  0.00  0.00    -0.482 OA
ATOM     15  HXT LIG    1       -0.448   3.807   2.064  0.00  0.00    +0.295 HD
ENDBRANCH  12  14
ENDBRANCH   1  12
TORSDOF 4
