REMARK  Name = ZINC00105196
REMARK                            x       y       z     vdW  Elec       q    Type
REMARK                         _______ _______ _______ _____ _____    ______ ____
ROOT
ATOM      1  CA  PHE A  1        4.171  -0.963   1.399  0.00  0.00    +0.040 C 
ENDROOT
BRANCH   1   2
ATOM      2  N   PHE A  1        4.452   0.319   2.059  0.00  0.00    +0.387 N 
ATOM      3  H1  PHE A  1        3.615   0.882   2.070  0.00  0.00    -0.089 HD
ATOM      4  H2  PHE A  1        5.178   0.805   1.555  0.00  0.00    -0.089 HD
ATOM      5  H3  PHE A  1        4.755   0.150   3.006  0.00  0.00    -0.089 HD
ENDBRANCH   1   2
BRANCH   1   6
ATOM      6  C   PHE A  1        5.422  -1.804   1.383  0.00  0.00    +0.290 C 
ATOM      7  O   PHE A  1        6.516  -1.269   1.345  0.00  0.00    -0.253 OA
BRANCH   6   8
ATOM      8  OXT PHE A  1        5.338  -3.021   1.410  0.00  0.00    -0.482 OA
ATOM      9  HXT PHE A  1        4.497  -3.432   1.439  0.00  0.00    +0.295 HD
ENDBRANCH   6   8
ENDBRANCH   1   6
BRANCH   1  10
ATOM     10  CB  PHE A  1        3.711  -0.707  -0.038  0.00  0.00    +0.030 C 
BRANCH  10  14
ATOM     11  CZ  PHE A  1       -0.017   1.378   0.010  0.00  0.00    +0.000 A 
ATOM     12  CE1 PHE A  1        1.171   2.086   0.002  0.00  0.00    +0.000 A 
ATOM     13  CD1 PHE A  1        2.377   1.411  -0.013  0.00  0.00    +0.003 A 
ATOM     14  CG  PHE A  1        2.396   0.029  -0.020  0.00  0.00    -0.048 A 
ATOM     15  CD2 PHE A  1        1.208  -0.679  -0.012  0.00  0.00    +0.003 A 
ATOM     16  CE2 PHE A  1        0.002  -0.004   0.002  0.00  0.00    +0.000 A 
ENDBRANCH  10  14
ENDBRANCH   1  10
TORSDOF 5
