REMARK  Name = ZINC00318958
REMARK                            x       y       z     vdW  Elec       q    Type
REMARK                         _______ _______ _______ _____ _____    ______ ____
ROOT
ATOM      1  C   LIG    1        1.265  -2.149  -0.022  0.00  0.00    +0.221 A 
ATOM      2  N   LIG    1        2.376  -2.902  -0.031  0.00  0.00    -0.186 NA
ATOM      3  C   LIG    1        2.054  -4.173  -0.036  0.00  0.00    +0.259 A 
ATOM      4  O   LIG    1        0.713  -4.268  -0.030  0.00  0.00    -0.332 OA
ATOM      5  N   LIG    1        0.218  -2.937  -0.015  0.00  0.00    -0.054 NA
ENDROOT
BRANCH   1  10
ATOM      6  C   LIG    1       -0.017   1.381   0.010  0.00  0.00    +0.004 A 
ATOM      7  C   LIG    1        1.193   2.059   0.002  0.00  0.00    +0.020 A 
ATOM      8  C   LIG    1        2.374   1.339  -0.013  0.00  0.00    +0.111 A 
ATOM      9  N   LIG    1        2.363   0.022  -0.020  0.00  0.00    -0.252 NA
ATOM     10  C   LIG    1        1.228  -0.664  -0.013  0.00  0.00    +0.111 A 
ATOM     11  C   LIG    1        0.002  -0.004   0.002  0.00  0.00    +0.031 A 
ENDBRANCH   1  10
BRANCH   3  12
ATOM     12  C   LIG    1        3.003  -5.309  -0.047  0.00  0.00    +0.042 A 
ATOM     13  C   LIG    1        4.385  -5.090  -0.048  0.00  0.00    +0.033 A 
ATOM     14  C   LIG    1        5.234  -6.178  -0.058  0.00  0.00    +0.111 A 
ATOM     15  N   LIG    1        4.759  -7.408  -0.067  0.00  0.00    -0.263 NA
ATOM     16  C   LIG    1        3.465  -7.658  -0.067  0.00  0.00    +0.111 A 
ATOM     17  C   LIG    1        2.544  -6.630  -0.052  0.00  0.00    +0.033 A 
ENDBRANCH   3  12
TORSDOF 2
