REMARK  Name = ZINC00349730
REMARK                            x       y       z     vdW  Elec       q    Type
REMARK                         _______ _______ _______ _____ _____    ______ ____
ROOT
ATOM      1  C   LIG    1       -1.299  -0.764   0.010  0.00  0.00    +0.119 C 
ENDROOT
BRANCH   1   2
ATOM      2  C   LIG    1       -0.016   0.023   0.090  0.00  0.00    +0.017 A 
ATOM      3  C   LIG    1        1.203  -0.642  -0.009  0.00  0.00    +0.010 A 
ATOM      4  C   LIG    1        2.380   0.039   0.059  0.00  0.00    +0.010 A 
ATOM      5  C   LIG    1        2.368   1.433   0.233  0.00  0.00    +0.004 A 
ATOM      6  C   LIG    1        3.564   2.172   0.309  0.00  0.00    +0.011 A 
ATOM      7  C   LIG    1        3.477   3.524   0.477  0.00  0.00    +0.020 A 
ATOM      8  C   LIG    1        2.227   4.133   0.570  0.00  0.00    +0.111 A 
ATOM      9  N   LIG    1        1.116   3.442   0.500  0.00  0.00    -0.251 NA
ATOM     10  C   LIG    1        1.132   2.116   0.335  0.00  0.00    +0.113 A 
ATOM     11  C   LIG    1       -0.067   1.377   0.260  0.00  0.00    +0.148 A 
BRANCH  11  12
ATOM     12  O   LIG    1       -1.266   2.009   0.349  0.00  0.00    -0.504 OA
ATOM     13  H   LIG    1       -1.605   2.083   1.252  0.00  0.00    +0.292 HD
ENDBRANCH  11  12
ENDBRANCH   1   2
BRANCH   1  17
ATOM     14  C   LIG    1       -2.668  -0.845  -4.036  0.00  0.00    +0.000 A 
ATOM     15  C   LIG    1       -3.227   0.041  -3.135  0.00  0.00    +0.000 A 
ATOM     16  C   LIG    1       -2.785   0.068  -1.825  0.00  0.00    +0.005 A 
ATOM     17  C   LIG    1       -1.782  -0.792  -1.417  0.00  0.00    -0.026 A 
ATOM     18  C   LIG    1       -1.219  -1.675  -2.320  0.00  0.00    +0.005 A 
ATOM     19  C   LIG    1       -1.665  -1.704  -3.628  0.00  0.00    +0.000 A 
ENDBRANCH   1  17
BRANCH   1  20
ATOM     20  N   LIG    1       -1.062  -2.134   0.473  0.00  0.00    -0.290 NA
ATOM     21  H   LIG    1       -0.169  -2.509   0.439  0.00  0.00    +0.124 HD
BRANCH  20  22
ATOM     22  C   LIG    1       -2.118  -2.895   0.960  0.00  0.00    +0.122 C 
ATOM     23  N   LIG    1       -1.825  -4.163   1.368  0.00  0.00    -0.301 NA
ATOM     24  H   LIG    1       -0.874  -4.547   1.317  0.00  0.00    +0.123 HD
ATOM     25  C   LIG    1       -2.872  -4.888   1.847  0.00  0.00    +0.082 C 
ATOM     26  C   LIG    1       -4.165  -4.411   1.921  0.00  0.00    +0.015 C 
ATOM     27  C   LIG    1       -4.439  -3.119   1.494  0.00  0.00    +0.004 C 
ATOM     28  C   LIG    1       -3.398  -2.350   1.006  0.00  0.00    +0.034 C 
ENDBRANCH  20  22
ENDBRANCH   1  20
TORSDOF 5
