REMARK  Name = ZINC00096640
REMARK                            x       y       z     vdW  Elec       q    Type
REMARK                         _______ _______ _______ _____ _____    ______ ____
ROOT
ATOM      1  C   LIG    1       -0.013   1.076   0.008  0.00  0.00    +0.025 A 
ATOM      2  C   LIG    1       -1.218   1.751   0.017  0.00  0.00    +0.022 A 
ATOM      3  C   LIG    1       -1.237   3.134   0.030  0.00  0.00    +0.041 A 
ATOM      4 CL   LIG    1       -2.753   3.980   0.048  0.00  0.00    -0.084 Cl
ATOM      5  C   LIG    1       -0.050   3.845   0.022  0.00  0.00    +0.022 A 
ATOM      6  C   LIG    1        1.158   3.175   0.008  0.00  0.00    +0.025 A 
ATOM      7  C   LIG    1        1.180   1.787   0.000  0.00  0.00    +0.045 A 
ENDROOT
BRANCH   7   8
ATOM      8  N   LIG    1        2.404   1.104  -0.015  0.00  0.00    -0.203 N 
ATOM      9  C   LIG    1        2.546  -0.234  -0.018  0.00  0.00    +0.250 C 
ATOM     10  C   LIG    1        3.992  -0.550  -0.038  0.00  0.00    +0.073 C 
ATOM     11  C   LIG    1        4.646   0.623  -0.038  0.00  0.00    +0.073 C 
ATOM     12  O   LIG    1        1.642  -1.044  -0.007  0.00  0.00    -0.270 OA
ATOM     13  C   LIG    1        3.617   1.686  -0.023  0.00  0.00    +0.250 C 
ATOM     14  O   LIG    1        3.831   2.881  -0.020  0.00  0.00    -0.270 OA
ENDBRANCH   7   8
TORSDOF 1
