REMARK  Name = ZINC00085074
REMARK                            x       y       z     vdW  Elec       q    Type
REMARK                         _______ _______ _______ _____ _____    ______ ____
ROOT
ATOM      1  C   LIG    1        1.252  -2.155  -0.022  0.00  0.00    +0.054 C 
ATOM      2  N   LIG    1        2.378  -2.668  -0.129  0.00  0.00    -0.250 NA
ATOM      3  C   LIG    1        3.023  -3.821  -0.311  0.00  0.00    +0.078 A 
ATOM      4  C   LIG    1        4.423  -3.696  -0.476  0.00  0.00    +0.029 A 
ATOM      5  C   LIG    1        5.220  -4.789  -0.702  0.00  0.00    +0.002 A 
ATOM      6  C   LIG    1        4.654  -6.051  -0.774  0.00  0.00    +0.001 A 
ATOM      7  C   LIG    1        3.298  -6.198  -0.603  0.00  0.00    +0.017 A 
ATOM      8  C   LIG    1        2.466  -5.099  -0.357  0.00  0.00    +0.034 A 
ATOM      9  S   LIG    1        0.768  -5.440  -0.106  0.00  0.00    -0.115 S 
ATOM     10  C   LIG    1       -0.173  -4.061  -0.745  0.00  0.00    +0.087 C 
ATOM     11  C   LIG    1       -0.071  -2.822   0.104  0.00  0.00    +0.075 C 
ENDROOT
BRANCH   1  16
ATOM     12  C   LIG    1        0.005   1.373   0.226  0.00  0.00    +0.001 A 
ATOM     13  C   LIG    1        1.170   2.089   0.002  0.00  0.00    +0.004 A 
ATOM     14  C   LIG    1        2.362   1.431  -0.230  0.00  0.00    +0.046 A 
ATOM     15  C   LIG    1        2.401   0.046  -0.241  0.00  0.00    +0.126 A 
ATOM     16  C   LIG    1        1.224  -0.684  -0.014  0.00  0.00    +0.038 A 
ATOM     17  C   LIG    1        0.024  -0.005   0.220  0.00  0.00    +0.013 A 
BRANCH  15  18
ATOM     18  O   LIG    1        3.571  -0.602  -0.470  0.00  0.00    -0.506 OA
ATOM     19  H   LIG    1        4.079  -0.791   0.331  0.00  0.00    +0.292 HD
ENDBRANCH  15  18
ENDBRANCH   1  16
BRANCH  10  20
ATOM     20  C   LIG    1       -1.623  -4.465  -0.831  0.00  0.00    -0.034 A 
ATOM     21  C   LIG    1       -2.303  -4.843   0.311  0.00  0.00    +0.008 A 
ATOM     22  C   LIG    1       -3.631  -5.214   0.235  0.00  0.00    +0.046 A 
ATOM     23  C   LIG    1       -4.283  -5.207  -0.990  0.00  0.00    +0.117 A 
ATOM     24  C   LIG    1       -3.598  -4.827  -2.135  0.00  0.00    +0.046 A 
ATOM     25  C   LIG    1       -2.271  -4.452  -2.052  0.00  0.00    +0.008 A 
BRANCH  23  26
ATOM     26  O   LIG    1       -5.590  -5.572  -1.068  0.00  0.00    -0.507 OA
ATOM     27  H   LIG    1       -6.210  -4.839  -0.956  0.00  0.00    +0.292 HD
ENDBRANCH  23  26
ENDBRANCH  10  20
TORSDOF 4
