REMARK  Name = ZINC00085078
REMARK                            x       y       z     vdW  Elec       q    Type
REMARK                         _______ _______ _______ _____ _____    ______ ____
ROOT
ATOM      1  C   LIG    1        1.252  -2.155  -0.022  0.00  0.00    +0.054 C 
ATOM      2  N   LIG    1        2.378  -2.668  -0.129  0.00  0.00    -0.250 NA
ATOM      3  C   LIG    1        3.045  -3.822  -0.079  0.00  0.00    +0.078 A 
ATOM      4  C   LIG    1        4.451  -3.697  -0.174  0.00  0.00    +0.029 A 
ATOM      5  C   LIG    1        5.275  -4.791  -0.109  0.00  0.00    +0.002 A 
ATOM      6  C   LIG    1        4.732  -6.054   0.057  0.00  0.00    +0.001 A 
ATOM      7  C   LIG    1        3.368  -6.201   0.140  0.00  0.00    +0.017 A 
ATOM      8  C   LIG    1        2.505  -5.101   0.060  0.00  0.00    +0.034 A 
ATOM      9  S   LIG    1        0.790  -5.441   0.125  0.00  0.00    -0.115 S 
ATOM     10  C   LIG    1       -0.016  -4.067   0.938  0.00  0.00    +0.087 C 
ATOM     11  C   LIG    1       -0.071  -2.822   0.104  0.00  0.00    +0.075 C 
ENDROOT
BRANCH   1  16
ATOM     12  C   LIG    1       -0.017   1.374  -0.009  0.00  0.00    +0.001 A 
ATOM     13  C   LIG    1        1.170   2.089   0.002  0.00  0.00    +0.004 A 
ATOM     14  C   LIG    1        2.384   1.430   0.005  0.00  0.00    +0.046 A 
ATOM     15  C   LIG    1        2.423   0.045  -0.003  0.00  0.00    +0.126 A 
ATOM     16  C   LIG    1        1.224  -0.684  -0.014  0.00  0.00    +0.038 A 
ATOM     17  C   LIG    1        0.002  -0.004  -0.017  0.00  0.00    +0.013 A 
BRANCH  15  18
ATOM     18  O   LIG    1        3.615  -0.604  -0.001  0.00  0.00    -0.506 OA
ATOM     19  H   LIG    1        3.956  -0.797   0.883  0.00  0.00    +0.292 HD
ENDBRANCH  15  18
ENDBRANCH   1  16
BRANCH  10  20
ATOM     20  C   LIG    1       -1.425  -4.473   1.288  0.00  0.00    -0.034 A 
ATOM     21  C   LIG    1       -2.301  -4.854   0.289  0.00  0.00    +0.008 A 
ATOM     22  C   LIG    1       -3.593  -5.225   0.608  0.00  0.00    +0.046 A 
ATOM     23  C   LIG    1       -4.010  -5.217   1.931  0.00  0.00    +0.117 A 
ATOM     24  C   LIG    1       -3.128  -4.835   2.931  0.00  0.00    +0.046 A 
ATOM     25  C   LIG    1       -1.836  -4.469   2.608  0.00  0.00    +0.008 A 
BRANCH  23  26
ATOM     26  O   LIG    1       -5.281  -5.582   2.247  0.00  0.00    -0.507 OA
ATOM     27  H   LIG    1       -5.386  -6.526   2.426  0.00  0.00    +0.292 HD
ENDBRANCH  23  26
ENDBRANCH  10  20
TORSDOF 4
