REMARK  Name = ZINC00146703
REMARK                            x       y       z     vdW  Elec       q    Type
REMARK                         _______ _______ _______ _____ _____    ______ ____
ROOT
ATOM      1  C   LIG    1        0.707  -0.490  -1.238  0.00  0.00    +0.028 A 
ATOM      2  C   LIG    1        1.206   0.400  -2.126  0.00  0.00    +0.093 A 
ATOM      3  C   LIG    1        1.865  -0.060  -3.284  0.00  0.00    +0.275 A 
ATOM      4  N   LIG    1        1.995  -1.384  -3.501  0.00  0.00    -0.179 N 
ATOM      5  C   LIG    1        1.488  -2.273  -2.599  0.00  0.00    +0.146 A 
ATOM      6  C   LIG    1        1.766  -3.543  -3.078  0.00  0.00    +0.056 A 
ATOM      7  C   LIG    1        2.454  -3.389  -4.295  0.00  0.00    +0.175 A 
ATOM      8  N   LIG    1        2.587  -2.112  -4.540  0.00  0.00    -0.157 NA
ATOM      9  O   LIG    1        2.317   0.737  -4.087  0.00  0.00    -0.266 OA
ATOM     10  N   LIG    1        0.849  -1.827  -1.463  0.00  0.00    -0.342 N 
ATOM     11  H   LIG    1        0.495  -2.465  -0.824  0.00  0.00    +0.167 HD
ENDROOT
BRANCH   6  12
ATOM     12  C   LIG    1        1.405  -4.826  -2.428  0.00  0.00    -0.012 A 
ATOM     13  C   LIG    1        1.963  -5.168  -1.197  0.00  0.00    +0.009 A 
ATOM     14  C   LIG    1        1.623  -6.363  -0.597  0.00  0.00    +0.001 A 
ATOM     15  C   LIG    1        0.731  -7.221  -1.214  0.00  0.00    +0.000 A 
ATOM     16  C   LIG    1        0.174  -6.887  -2.436  0.00  0.00    +0.001 A 
ATOM     17  C   LIG    1        0.501  -5.691  -3.042  0.00  0.00    +0.009 A 
ENDBRANCH   6  12
BRANCH   1  19
ATOM     18  C   LIG    1       -0.019   1.526   0.010  0.00  0.00    +0.017 C 
ATOM     19  C   LIG    1        0.002  -0.004   0.002  0.00  0.00    +0.003 C 
ATOM     20  C   LIG    1       -1.433  -0.534   0.013  0.00  0.00    +0.017 C 
ATOM     21  C   LIG    1        0.742  -0.511   1.242  0.00  0.00    +0.017 C 
ENDBRANCH   1  19
BRANCH   7  22
ATOM     22  C   LIG    1        2.955  -4.509  -5.169  0.00  0.00    +0.437 C 
ATOM     23  F   LIG    1        3.269  -5.617  -4.375  0.00  0.00    -0.164 F 
ATOM     24  F   LIG    1        4.100  -4.089  -5.855  0.00  0.00    -0.164 F 
ATOM     25  F   LIG    1        1.963  -4.862  -6.090  0.00  0.00    -0.164 F 
ENDBRANCH   7  22
TORSDOF 3
