REMARK  Name = ZINC00142648
REMARK                            x       y       z     vdW  Elec       q    Type
REMARK                         _______ _______ _______ _____ _____    ______ ____
ROOT
ATOM      1  C   LIG    1        1.125  -4.812  -0.034  0.00  0.00    +0.267 C 
ATOM      2  N   LIG    1        1.247  -6.154  -0.043  0.00  0.00    -0.231 N 
ATOM      3  H   LIG    1        0.454  -6.713  -0.038  0.00  0.00    +0.173 HD
ATOM      4  O   LIG    1        2.117  -4.114  -0.040  0.00  0.00    -0.271 OA
ENDROOT
BRANCH   2   5
ATOM      5  N   LIG    1        2.518  -6.743  -0.058  0.00  0.00    -0.230 N 
ATOM      6  H   LIG    1        3.311  -6.184  -0.062  0.00  0.00    +0.173 HD
ATOM      7  C   LIG    1        2.639  -8.085  -0.066  0.00  0.00    +0.267 C 
ATOM      8  O   LIG    1        1.644  -8.786  -0.061  0.00  0.00    -0.268 OA
BRANCH   7   9
ATOM      9  C   LIG    1        3.969  -8.701  -0.082  0.00  0.00    +0.075 A 
ATOM     10  C   LIG    1        4.310 -10.045  -0.098  0.00  0.00    +0.021 A 
ATOM     11  C   LIG    1        5.657 -10.319  -0.111  0.00  0.00    +0.008 A 
ATOM     12  C   LIG    1        6.539  -9.289  -0.107  0.00  0.00    +0.046 A 
ATOM     13  S   LIG    1        5.570  -7.917  -0.094  0.00  0.00    -0.092 S 
ENDBRANCH   7   9
ENDBRANCH   2   5
BRANCH   1  14
ATOM     14  C   LIG    1       -0.242  -4.179  -0.018  0.00  0.00    +0.326 C 
BRANCH  14  15
ATOM     15  O   LIG    1       -0.108  -2.756  -0.012  0.00  0.00    -0.479 OA
BRANCH  15  21
ATOM     16  C   LIG    1       -1.201  -0.638   0.010  0.00  0.00    +0.162 A 
ATOM     17  C   LIG    1       -2.374   0.099   0.019  0.00  0.00    +0.049 A 
ATOM     18  C   LIG    1       -3.596  -0.546   0.027  0.00  0.00    +0.004 A 
ATOM     19  C   LIG    1       -3.652  -1.928   0.026  0.00  0.00    +0.004 A 
ATOM     20  C   LIG    1       -2.485  -2.669   0.017  0.00  0.00    +0.049 A 
ATOM     21  C   LIG    1       -1.257  -2.028   0.003  0.00  0.00    +0.163 A 
BRANCH  16  23
ATOM     22  C   LIG    1       -0.017   1.425   0.010  0.00  0.00    +0.277 C 
ATOM     23  O   LIG    1        0.002  -0.004   0.002  0.00  0.00    -0.491 OA
ENDBRANCH  16  23
ENDBRANCH  15  21
ENDBRANCH  14  15
ENDBRANCH   1  14
TORSDOF 6
