REMARK  Name = ZINC00122236
REMARK                            x       y       z     vdW  Elec       q    Type
REMARK                         _______ _______ _______ _____ _____    ______ ____
ROOT
ATOM      1  C   LIG    1        4.785   1.454   0.068  0.00  0.00    +0.134 A 
ATOM      2  C   LIG    1        6.007   2.162   0.173  0.00  0.00    +0.041 A 
ATOM      3  C   LIG    1        6.058   3.560   0.192  0.00  0.00    +0.028 A 
ATOM      4  C   LIG    1        7.265   4.188   0.296  0.00  0.00    +0.019 A 
ATOM      5 BR   LIG    1        7.335   6.077   0.322  0.00  0.00    -0.050 Br
ATOM      6  C   LIG    1        8.446   3.455   0.382  0.00  0.00    +0.017 A 
ATOM      7  C   LIG    1        8.430   2.092   0.367  0.00  0.00    +0.029 A 
ATOM      8  C   LIG    1        7.207   1.415   0.262  0.00  0.00    +0.076 A 
ATOM      9  N   LIG    1        7.136   0.076   0.242  0.00  0.00    -0.235 NA
ATOM     10  C   LIG    1        5.975  -0.527   0.143  0.00  0.00    +0.223 A 
ATOM     11  N   LIG    1        4.828   0.128   0.063  0.00  0.00    -0.220 NA
ENDROOT
BRANCH   1  12
ATOM     12  N   LIG    1        3.583   2.124  -0.021  0.00  0.00    -0.299 N 
ATOM     13  H   LIG    1        3.571   3.092  -0.094  0.00  0.00    +0.154 HD
BRANCH  12  16
ATOM     14  C   LIG    1        1.089  -0.466   0.744  0.00  0.00    +0.003 A 
ATOM     15  C   LIG    1        2.277   0.238   0.731  0.00  0.00    +0.023 A 
ATOM     16  C   LIG    1        2.381   1.410  -0.007  0.00  0.00    +0.034 A 
ATOM     17  C   LIG    1        1.289   1.871  -0.730  0.00  0.00    +0.043 A 
ATOM     18  C   LIG    1        0.102   1.163  -0.713  0.00  0.00    +0.043 A 
ATOM     19 CL   LIG    1       -1.264   1.738  -1.615  0.00  0.00    -0.083 Cl
ATOM     20  C   LIG    1        0.003  -0.005   0.024  0.00  0.00    +0.020 A 
ENDBRANCH  12  16
ENDBRANCH   1  12
TORSDOF 2
