REMARK  Name = ZINC00312514
REMARK                            x       y       z     vdW  Elec       q    Type
REMARK                         _______ _______ _______ _____ _____    ______ ____
ROOT
ATOM      1  C   LIG    1        0.012   1.335   0.561  0.00  0.00    +0.001 A 
ATOM      2  C   LIG    1        1.199   2.052   0.546  0.00  0.00    +0.004 A 
ATOM      3  C   LIG    1        2.404   1.411   0.348  0.00  0.00    +0.047 A 
ATOM      4  C   LIG    1        2.436   0.035   0.162  0.00  0.00    +0.141 A 
ATOM      5  C   LIG    1        1.235  -0.690   0.177  0.00  0.00    +0.039 A 
ATOM      6  C   LIG    1        1.282  -2.149  -0.022  0.00  0.00    +0.047 A 
ATOM      7  C   LIG    1        2.508  -2.732  -0.214  0.00  0.00    +0.115 A 
ATOM      8  C   LIG    1        3.662  -1.937  -0.216  0.00  0.00    +0.339 A 
ATOM      9  O   LIG    1        4.746  -2.467  -0.388  0.00  0.00    -0.245 OA
ATOM     10  O   LIG    1        3.607  -0.608  -0.034  0.00  0.00    -0.422 OA
ATOM     11  C   LIG    1        0.021  -0.030   0.378  0.00  0.00    +0.013 A 
ENDROOT
BRANCH   6  12
ATOM     12  N   LIG    1        0.130  -2.904  -0.015  0.00  0.00    -0.325 N 
ATOM     13  C   LIG    1       -0.907  -2.713  -1.040  0.00  0.00    +0.133 C 
ATOM     14  C   LIG    1       -1.258  -4.083  -1.633  0.00  0.00    +0.178 C 
ATOM     15  O   LIG    1       -1.573  -4.988  -0.573  0.00  0.00    -0.377 OA
ATOM     16  C   LIG    1       -0.489  -5.236   0.326  0.00  0.00    +0.178 C 
ATOM     17  C   LIG    1       -0.096  -3.930   1.016  0.00  0.00    +0.133 C 
ENDBRANCH   6  12
TORSDOF 1
