REMARK  Name = ZINC00123397
REMARK                            x       y       z     vdW  Elec       q    Type
REMARK                         _______ _______ _______ _____ _____    ______ ____
ROOT
ATOM      1  C   LIG    1       -5.983   6.259   0.204  0.00  0.00    -0.000 A 
ATOM      2  C   LIG    1       -5.944   7.640   0.172  0.00  0.00    +0.101 A 
ATOM      3  C   LIG    1       -4.703   8.296   0.097  0.00  0.00    +0.338 A 
ATOM      4  O   LIG    1       -3.545   7.618   0.056  0.00  0.00    -0.422 OA
ATOM      5  C   LIG    1       -3.507   6.268   0.084  0.00  0.00    +0.143 A 
ATOM      6  C   LIG    1       -2.296   5.594   0.040  0.00  0.00    +0.093 A 
ATOM      7  C   LIG    1       -2.277   4.209   0.070  0.00  0.00    +0.136 A 
ATOM      8  C   LIG    1       -3.466   3.487   0.138  0.00  0.00    +0.047 A 
ATOM      9  C   LIG    1       -4.666   4.137   0.187  0.00  0.00    +0.016 A 
ATOM     10  O   LIG    1       -4.678   9.514   0.069  0.00  0.00    -0.245 OA
ATOM     11  C   LIG    1       -4.702   5.533   0.158  0.00  0.00    +0.026 A 
ENDROOT
BRANCH   1  15
ATOM     12  C   LIG    1       -9.678   4.174   0.429  0.00  0.00    +0.000 A 
ATOM     13  C   LIG    1       -9.413   5.205   1.314  0.00  0.00    +0.001 A 
ATOM     14  C   LIG    1       -8.215   5.885   1.247  0.00  0.00    +0.008 A 
ATOM     15  C   LIG    1       -7.270   5.533   0.283  0.00  0.00    -0.017 A 
ATOM     16  C   LIG    1       -7.545   4.497  -0.611  0.00  0.00    +0.008 A 
ATOM     17  C   LIG    1       -8.745   3.820  -0.528  0.00  0.00    +0.001 A 
ENDBRANCH   1  15
BRANCH   7  18
ATOM     18  O   LIG    1       -1.090   3.550   0.027  0.00  0.00    -0.420 OA
BRANCH  18  19
ATOM     19  C   LIG    1       -0.350   3.504   1.154  0.00  0.00    +0.380 C 
ATOM     20  O   LIG    1       -0.708   4.116   2.142  0.00  0.00    -0.241 OA
BRANCH  19  21
ATOM     21  C   LIG    1        0.884   2.716   1.188  0.00  0.00    +0.212 A 
ATOM     22  C   LIG    1        1.722   2.583   2.259  0.00  0.00    +0.056 A 
ATOM     23  C   LIG    1        2.767   1.740   1.850  0.00  0.00    +0.042 A 
ATOM     24  C   LIG    1        2.524   1.399   0.565  0.00  0.00    +0.196 A 
ATOM     25  O   LIG    1        1.389   1.989   0.169  0.00  0.00    -0.456 OA
ENDBRANCH  19  21
ENDBRANCH  18  19
ENDBRANCH   7  18
TORSDOF 4
