REMARK  Name = ZINC00094779
REMARK                            x       y       z     vdW  Elec       q    Type
REMARK                         _______ _______ _______ _____ _____    ______ ____
ROOT
ATOM      1  C   LIG    1       -1.266  -0.764   0.025  0.00  0.00    +0.050 A 
ATOM      2  C   LIG    1       -2.520  -0.231   0.029  0.00  0.00    +0.028 A 
ATOM      3  C   LIG    1       -3.430  -1.300   0.016  0.00  0.00    +0.023 A 
ATOM      4  C   LIG    1       -2.716  -2.446   0.005  0.00  0.00    +0.020 A 
ATOM      5  N   LIG    1       -1.390  -2.129   0.004  0.00  0.00    -0.333 N 
ENDROOT
BRANCH   1  12
ATOM      6  C   LIG    1        1.174  -0.604   0.501  0.00  0.00    +0.011 A 
ATOM      7  C   LIG    1        2.354   0.110   0.507  0.00  0.00    +0.020 A 
ATOM      8  C   LIG    1        2.379   1.418   0.054  0.00  0.00    +0.041 A 
ATOM      9 CL   LIG    1        3.868   2.309   0.066  0.00  0.00    -0.084 Cl
ATOM     10  C   LIG    1        1.220   2.018  -0.409  0.00  0.00    +0.020 A 
ATOM     11  C   LIG    1        0.033   1.315  -0.420  0.00  0.00    +0.011 A 
ATOM     12  C   LIG    1        0.002  -0.004   0.035  0.00  0.00    -0.001 A 
ENDBRANCH   1  12
BRANCH   4  13
ATOM     13  C   LIG    1       -3.288  -3.841  -0.010  0.00  0.00    +0.064 C 
BRANCH  13  14
ATOM     14  C   LIG    1       -3.595  -4.250  -1.452  0.00  0.00    +0.126 C 
BRANCH  14  15
ATOM     15  C   LIG    1       -4.168  -5.644  -1.467  0.00  0.00    +0.305 C 
ATOM     16  O   LIG    1       -4.315  -6.254  -0.422  0.00  0.00    -0.251 OA
BRANCH  15  17
ATOM     17  O   LIG    1       -4.483  -6.162  -2.525  0.00  0.00    -0.481 OA
ATOM     18  H   LIG    1       -4.369  -5.694  -3.328  0.00  0.00    +0.295 HD
ENDBRANCH  15  17
ENDBRANCH  14  15
ENDBRANCH  13  14
ENDBRANCH   4  13
BRANCH   5  19
ATOM     19  C   LIG    1       -0.282  -3.087  -0.012  0.00  0.00    +0.242 C 
BRANCH  19  20
ATOM     20  C   LIG    1        0.032  -3.518   1.398  0.00  0.00    +0.325 C 
ATOM     21  O   LIG    1       -0.611  -3.066   2.330  0.00  0.00    -0.249 OA
BRANCH  20  22
ATOM     22  O   LIG    1        0.928  -4.318   1.606  0.00  0.00    -0.479 OA
ATOM     23  H   LIG    1        1.422  -4.665   0.890  0.00  0.00    +0.295 HD
ENDBRANCH  20  22
ENDBRANCH  19  20
ENDBRANCH   5  19
TORSDOF 8
