REMARK  Name = ZINC00161805
REMARK                            x       y       z     vdW  Elec       q    Type
REMARK                         _______ _______ _______ _____ _____    ______ ____
ROOT
ATOM      1  N   LIG    1        0.002  -0.004   0.002  0.00  0.00    -0.268 N 
ATOM      2  H   LIG    1        0.695  -0.477  -0.485  0.00  0.00    +0.156 HD
ATOM      3  C   LIG    1       -0.938  -0.695   0.677  0.00  0.00    +0.327 C 
ATOM      4  N   LIG    1       -0.863  -2.038   0.753  0.00  0.00    -0.181 N 
ATOM      5  H   LIG    1       -0.132  -2.508   0.323  0.00  0.00    +0.184 HD
ATOM      6  O   LIG    1       -1.855  -0.105   1.216  0.00  0.00    -0.250 OA
ENDROOT
BRANCH   1  10
ATOM      7  C   LIG    1       -0.068   4.162   0.006  0.00  0.00    +0.000 A 
ATOM      8  C   LIG    1        1.142   3.492  -0.001  0.00  0.00    +0.002 A 
ATOM      9  C   LIG    1        1.169   2.111  -0.002  0.00  0.00    +0.023 A 
ATOM     10  C   LIG    1       -0.021   1.395   0.003  0.00  0.00    +0.035 A 
ATOM     11  C   LIG    1       -1.235   2.071   0.005  0.00  0.00    +0.023 A 
ATOM     12  C   LIG    1       -1.254   3.452   0.011  0.00  0.00    +0.002 A 
ENDBRANCH   1  10
BRANCH   4  13
ATOM     13  O   LIG    1       -1.851  -2.763   1.462  0.00  0.00    -0.294 OA
ATOM     14  H   LIG    1       -1.712  -3.720   1.462  0.00  0.00    +0.241 HD
ENDBRANCH   4  13
TORSDOF 2
