REMARK  Name = ZINC00124027
REMARK                            x       y       z     vdW  Elec       q    Type
REMARK                         _______ _______ _______ _____ _____    ______ ____
ROOT
ATOM      1  C   LIG    1       -1.391   2.101   0.004  0.00  0.00    +0.143 C 
ATOM      2  C   LIG    1       -1.680   2.584  -1.403  0.00  0.00    +0.078 C 
ATOM      3  C   LIG    1       -1.792   3.915  -1.601  0.00  0.00    +0.021 C 
ATOM      4  C   LIG    1       -2.079   4.438  -2.985  0.00  0.00    +0.061 C 
ATOM      5  N   LIG    1       -1.648   4.795  -0.567  0.00  0.00    -0.273 N 
ATOM      6  H   LIG    1       -1.736   5.743  -0.756  0.00  0.00    +0.156 HD
ATOM      7  C   LIG    1       -1.392   4.425   0.694  0.00  0.00    +0.304 C 
ATOM      8  O   LIG    1       -1.280   5.282   1.548  0.00  0.00    -0.252 OA
ATOM      9  N   LIG    1       -1.254   3.131   1.047  0.00  0.00    -0.288 N 
ATOM     10  H   LIG    1       -1.069   2.885   1.967  0.00  0.00    +0.151 HD
ENDROOT
BRANCH   1  15
ATOM     11  C   LIG    1        3.510  -0.957  -0.154  0.00  0.00    +0.044 C 
ATOM     12  C   LIG    1        2.232  -0.159  -0.111  0.00  0.00    -0.050 A 
ATOM     13  C   LIG    1        1.012  -0.809  -0.093  0.00  0.00    +0.004 A 
ATOM     14  C   LIG    1       -0.161  -0.078  -0.054  0.00  0.00    +0.006 A 
ATOM     15  C   LIG    1       -0.113   1.304  -0.033  0.00  0.00    -0.022 A 
ATOM     16  C   LIG    1        1.107   1.954  -0.050  0.00  0.00    +0.006 A 
ATOM     17  C   LIG    1        2.279   1.222  -0.089  0.00  0.00    +0.004 A 
ENDBRANCH   1  15
BRANCH   2  18
ATOM     18  C   LIG    1       -1.828   1.671  -2.474  0.00  0.00    +0.339 C 
ATOM     19  O   LIG    1       -2.156   2.072  -3.575  0.00  0.00    -0.245 OA
BRANCH  18  20
ATOM     20  O   LIG    1       -1.607   0.355  -2.274  0.00  0.00    -0.458 OA
BRANCH  20  21
ATOM     21  C   LIG    1       -1.775  -0.510  -3.399  0.00  0.00    +0.177 C 
ATOM     22  C   LIG    1       -3.213  -1.068  -3.426  0.00  0.00    +0.044 C 
ATOM     23  C   LIG    1       -3.045  -2.524  -3.926  0.00  0.00    +0.004 C 
ATOM     24  C   LIG    1       -1.735  -2.974  -3.235  0.00  0.00    +0.004 C 
ATOM     25  C   LIG    1       -0.835  -1.722  -3.277  0.00  0.00    +0.044 C 
ENDBRANCH  20  21
ENDBRANCH  18  20
ENDBRANCH   2  18
TORSDOF 4
