REMARK  Name = ZINC00291237
REMARK                            x       y       z     vdW  Elec       q    Type
REMARK                         _______ _______ _______ _____ _____    ______ ____
ROOT
ATOM      1  N   LIG    1        2.459  -2.458  -4.302  0.00  0.00    -0.249 N 
ATOM      2  H   LIG    1        2.786  -1.924  -5.043  0.00  0.00    +0.158 HD
ATOM      3  C   LIG    1        2.596  -3.798  -4.325  0.00  0.00    +0.430 C 
ATOM      4  O   LIG    1        2.102  -4.475  -3.445  0.00  0.00    -0.224 OA
ENDROOT
BRANCH   1   8
ATOM      5  C   LIG    1        0.626  -0.605  -1.046  0.00  0.00    +0.120 A 
ATOM      6  C   LIG    1        1.379  -1.754  -0.856  0.00  0.00    +0.047 A 
ATOM      7  C   LIG    1        1.986  -2.369  -1.934  0.00  0.00    +0.027 A 
ATOM      8  C   LIG    1        1.842  -1.835  -3.208  0.00  0.00    +0.037 A 
ATOM      9  C   LIG    1        1.088  -0.685  -3.397  0.00  0.00    +0.027 A 
ATOM     10  C   LIG    1        0.478  -0.075  -2.320  0.00  0.00    +0.047 A 
BRANCH   5  12
ATOM     11  C   LIG    1        0.224  -0.601   1.297  0.00  0.00    +0.277 C 
ATOM     12  O   LIG    1        0.029  -0.001   0.015  0.00  0.00    -0.495 OA
ENDBRANCH   5  12
ENDBRANCH   1   8
BRANCH   3  13
ATOM     13  O   LIG    1        3.282  -4.388  -5.322  0.00  0.00    -0.299 OA
BRANCH  13  14
ATOM     14  N   LIG    1        3.348  -5.798  -5.221  0.00  0.00    -0.081 NA
ATOM     15  C   LIG    1        3.979  -6.483  -6.120  0.00  0.00    +0.161 C 
BRANCH  15  16
ATOM     16  C   LIG    1        4.048  -7.954  -6.014  0.00  0.00    -0.004 A 
ATOM     17  C   LIG    1        3.428  -8.610  -4.949  0.00  0.00    +0.009 A 
ATOM     18  C   LIG    1        3.495  -9.985  -4.857  0.00  0.00    +0.001 A 
ATOM     19  C   LIG    1        4.176 -10.713  -5.816  0.00  0.00    +0.000 A 
ATOM     20  C   LIG    1        4.794 -10.069  -6.874  0.00  0.00    +0.001 A 
ATOM     21  C   LIG    1        4.729  -8.695  -6.982  0.00  0.00    +0.009 A 
ENDBRANCH  15  16
ENDBRANCH  13  14
ENDBRANCH   3  13
TORSDOF 5
