REMARK  Name = ZINC00143548
REMARK                            x       y       z     vdW  Elec       q    Type
REMARK                         _______ _______ _______ _____ _____    ______ ____
ROOT
ATOM      1  N   LIG    1        4.326   2.562   1.555  0.00  0.00    -0.216 N 
ATOM      2  H   LIG    1        3.759   2.215   2.281  0.00  0.00    +0.174 HD
ENDROOT
BRANCH   1   3
ATOM      3  C   LIG    1        5.499   3.259   1.856  0.00  0.00    +0.048 A 
ATOM      4  C   LIG    1        6.297   3.754   0.832  0.00  0.00    +0.026 A 
ATOM      5  C   LIG    1        7.455   4.443   1.133  0.00  0.00    +0.030 A 
ATOM      6  C   LIG    1        7.821   4.640   2.452  0.00  0.00    +0.105 A 
ATOM      7  C   LIG    1        7.029   4.149   3.474  0.00  0.00    +0.030 A 
ATOM      8  C   LIG    1        5.866   3.464   3.180  0.00  0.00    +0.026 A 
BRANCH   6   9
ATOM      9  S   LIG    1        9.300   5.519   2.832  0.00  0.00    +0.056 S 
ATOM     10  O   LIG    1       10.146   5.401   1.696  0.00  0.00    -0.153 OA
ATOM     11  O   LIG    1        9.702   5.096   4.128  0.00  0.00    -0.153 OA
BRANCH   9  12
ATOM     12  N   LIG    1        8.899   7.120   2.960  0.00  0.00    -0.204 NA
ATOM     13  H   LIG    1        8.163   7.479   2.441  0.00  0.00    +0.144 HD
ATOM     14  H   LIG    1        9.401   7.700   3.554  0.00  0.00    +0.144 HD
ENDBRANCH   9  12
ENDBRANCH   6   9
ENDBRANCH   1   3
BRANCH   1  15
ATOM     15  S   LIG    1        3.890   2.319  -0.024  0.00  0.00    +0.072 S 
ATOM     16  O   LIG    1        3.595   3.599  -0.566  0.00  0.00    -0.150 OA
ATOM     17  O   LIG    1        4.872   1.461  -0.589  0.00  0.00    -0.150 OA
BRANCH  15  20
ATOM     18  C   LIG    1       -0.017   1.385   0.010  0.00  0.00    +0.024 A 
ATOM     19  C   LIG    1        1.171   2.090   0.002  0.00  0.00    +0.030 A 
ATOM     20  C   LIG    1        2.377   1.415  -0.013  0.00  0.00    +0.109 A 
ATOM     21  C   LIG    1        2.400   0.032  -0.021  0.00  0.00    +0.030 A 
ATOM     22  C   LIG    1        1.216  -0.679  -0.014  0.00  0.00    +0.024 A 
ATOM     23  C   LIG    1        0.002  -0.004   0.002  0.00  0.00    +0.025 A 
BRANCH  23  24
ATOM     24  N   LIG    1       -1.197  -0.720   0.010  0.00  0.00    -0.358 N 
ATOM     25  H   LIG    1       -1.183  -1.690   0.005  0.00  0.00    +0.142 HD
ATOM     26  H   LIG    1       -2.044  -0.248   0.021  0.00  0.00    +0.142 HD
ENDBRANCH  23  24
ENDBRANCH  15  20
ENDBRANCH   1  15
TORSDOF 6
