REMARK  Name = ZINC00113428
REMARK                            x       y       z     vdW  Elec       q    Type
REMARK                         _______ _______ _______ _____ _____    ______ ____
ROOT
ATOM      1  C   LIG    1       -0.017   1.375   0.010  0.00  0.00    +0.000 A 
ATOM      2  C   LIG    1        1.174   2.078   0.002  0.00  0.00    +0.000 A 
ATOM      3  C   LIG    1        2.372   1.395  -0.016  0.00  0.00    +0.005 A 
ATOM      4  C   LIG    1        2.393   0.006  -0.025  0.00  0.00    -0.030 A 
ATOM      5  C   LIG    1        1.208  -0.694  -0.013  0.00  0.00    -0.043 A 
ATOM      6  C   LIG    1        1.155  -2.199  -0.005  0.00  0.00    +0.035 C 
ATOM      7  C   LIG    1        2.493  -2.786  -0.452  0.00  0.00    +0.006 C 
ATOM      8  C   LIG    1        3.607  -2.135   0.376  0.00  0.00    +0.020 C 
ATOM      9  C   LIG    1        3.736  -0.675  -0.053  0.00  0.00    +0.130 C 
ATOM     10  C   LIG    1        0.002  -0.004   0.002  0.00  0.00    +0.004 A 
ENDROOT
BRANCH   9  11
ATOM     11  C   LIG    1        4.675   0.038   0.886  0.00  0.00    +0.246 C 
ATOM     12  N   LIG    1        4.869  -0.357   2.123  0.00  0.00    -0.275 N 
ATOM     13  H   LIG    1        4.441  -1.121   2.542  0.00  0.00    +0.304 HD
ATOM     14  C   LIG    1        5.835   0.542   2.774  0.00  0.00    +0.276 C 
ATOM     15  C   LIG    1        6.176   1.556   1.663  0.00  0.00    +0.268 C 
ATOM     16  N   LIG    1        5.362   1.096   0.527  0.00  0.00    -0.236 N 
ATOM     17  H   LIG    1        5.336   1.511  -0.350  0.00  0.00    +0.291 HD
ENDBRANCH   9  11
TORSDOF 1
