REMARK  Name = ZINC00079624
REMARK                            x       y       z     vdW  Elec       q    Type
REMARK                         _______ _______ _______ _____ _____    ______ ____
ROOT
ATOM      1  C   LIG    1       -2.401   1.439   0.020  0.00  0.00    +0.279 C 
ATOM      2  N   LIG    1       -1.122   1.863   0.042  0.00  0.00    -0.201 N 
ATOM      3  C   LIG    1       -0.013   1.071   0.042  0.00  0.00    +0.120 A 
ATOM      4  C   LIG    1        1.067   1.882   0.062  0.00  0.00    +0.074 A 
ATOM      5  C   LIG    1        0.613   3.208   0.081  0.00  0.00    +0.231 A 
ATOM      6  N   LIG    1       -0.694   3.197   0.072  0.00  0.00    -0.139 NA
ATOM      7  O   LIG    1       -2.646   0.256  -0.100  0.00  0.00    -0.265 OA
ENDROOT
BRANCH   1  11
ATOM      8  C   LIG    1       -5.572   4.241   0.369  0.00  0.00    +0.000 A 
ATOM      9  C   LIG    1       -5.849   2.885   0.362  0.00  0.00    +0.001 A 
ATOM     10  C   LIG    1       -4.824   1.969   0.249  0.00  0.00    +0.013 A 
ATOM     11  C   LIG    1       -3.504   2.413   0.141  0.00  0.00    +0.041 A 
ATOM     12  C   LIG    1       -3.232   3.783   0.154  0.00  0.00    +0.013 A 
ATOM     13  C   LIG    1       -4.267   4.688   0.262  0.00  0.00    +0.001 A 
ENDBRANCH   1  11
BRANCH   5  14
ATOM     14  N   LIG    1        1.468   4.416   0.107  0.00  0.00    +0.027 N 
ATOM     15  O   LIG    1        2.680   4.304   0.113  0.00  0.00    -0.128 OA
BRANCH  14  16
ATOM     16  O   LIG    1        0.958   5.523   0.122  0.00  0.00    -0.395 OA
ATOM     17  H   LIG    1        0.025   5.609   0.117  0.00  0.00    +0.329 HD
ENDBRANCH  14  16
ENDBRANCH   5  14
TORSDOF 3
