REMARK  Name = ZINC00287718
REMARK                            x       y       z     vdW  Elec       q    Type
REMARK                         _______ _______ _______ _____ _____    ______ ____
ROOT
ATOM      1  O   LIG    1       -2.296  -2.847   0.009  0.00  0.00    -0.422 OA
ENDROOT
BRANCH   1   2
ATOM      2  C   LIG    1       -2.234  -4.199  -0.104  0.00  0.00    +0.140 A 
ATOM      3  C   LIG    1       -2.266  -4.795  -1.344  0.00  0.00    +0.047 A 
ATOM      4  C   LIG    1       -2.200  -6.179  -1.472  0.00  0.00    +0.004 A 
ATOM      5  C   LIG    1       -2.109  -6.982  -0.376  0.00  0.00    +0.009 A 
ATOM      6  C   LIG    1       -2.078  -6.413   0.909  0.00  0.00    -0.014 A 
ATOM      7  C   LIG    1       -1.986  -7.216   2.059  0.00  0.00    +0.008 A 
ATOM      8  C   LIG    1       -1.959  -6.632   3.288  0.00  0.00    +0.001 A 
ATOM      9  C   LIG    1       -2.022  -5.247   3.425  0.00  0.00    +0.001 A 
ATOM     10  C   LIG    1       -2.111  -4.438   2.334  0.00  0.00    +0.012 A 
ATOM     11  C   LIG    1       -2.141  -5.005   1.050  0.00  0.00    +0.025 A 
ENDBRANCH   1   2
BRANCH   1  12
ATOM     12  C   LIG    1       -1.136  -2.163   0.086  0.00  0.00    +0.337 C 
ATOM     13  O   LIG    1       -0.079  -2.764   0.146  0.00  0.00    -0.245 OA
BRANCH  12  15
ATOM     14  C   LIG    1        0.013  -0.018   0.173  0.00  0.00    +0.015 C 
ATOM     15  C   LIG    1       -1.148  -0.701   0.096  0.00  0.00    +0.092 C 
BRANCH  14  19
ATOM     16  C   LIG    1       -0.021   4.224   0.203  0.00  0.00    +0.000 A 
ATOM     17  C   LIG    1        1.183   3.545   0.273  0.00  0.00    +0.001 A 
ATOM     18  C   LIG    1        1.202   2.166   0.263  0.00  0.00    +0.008 A 
ATOM     19  C   LIG    1        0.001   1.454   0.184  0.00  0.00    -0.025 A 
ATOM     20  C   LIG    1       -1.211   2.147   0.108  0.00  0.00    +0.008 A 
ATOM     21  C   LIG    1       -1.214   3.526   0.124  0.00  0.00    +0.001 A 
ENDBRANCH  14  19
ENDBRANCH  12  15
ENDBRANCH   1  12
TORSDOF 4
