REMARK  Name = ZINC00171553
REMARK                            x       y       z     vdW  Elec       q    Type
REMARK                         _______ _______ _______ _____ _____    ______ ____
ROOT
ATOM      1  C   LIG    1       -3.734   7.139  -4.233  0.00  0.00    +0.074 C 
ATOM      2  C   LIG    1       -2.816   7.639  -3.116  0.00  0.00    +0.166 C 
ATOM      3  C   LIG    1       -1.532   8.225  -3.707  0.00  0.00    +0.074 C 
ATOM      4  O   LIG    1       -3.494   8.629  -2.322  0.00  0.00    -0.341 OA
ATOM      5  C   LIG    1       -4.149   7.932  -1.249  0.00  0.00    +0.186 C 
ATOM      6  C   LIG    1       -3.540   8.385   0.091  0.00  0.00    +0.178 C 
ATOM      7  O   LIG    1       -2.688   7.321   0.549  0.00  0.00    -0.346 OA
ATOM      8  C   LIG    1       -3.261   6.094   0.049  0.00  0.00    +0.254 C 
ATOM      9  C   LIG    1       -3.693   6.448  -1.395  0.00  0.00    +0.202 C 
ATOM     10  O   LIG    1       -2.501   6.560  -2.210  0.00  0.00    -0.339 OA
ENDROOT
BRANCH   8  11
ATOM     11  N   LIG    1       -2.260   5.024   0.039  0.00  0.00    -0.286 N 
ATOM     12  C   LIG    1       -0.907   5.186   0.034  0.00  0.00    +0.203 A 
ATOM     13  N   LIG    1       -0.320   4.024   0.025  0.00  0.00    -0.231 NA
ATOM     14  C   LIG    1       -1.257   3.046   0.030  0.00  0.00    +0.147 A 
ATOM     15  C   LIG    1       -1.219   1.641   0.017  0.00  0.00    +0.147 A 
ATOM     16  N   LIG    1       -2.370   0.977   0.019  0.00  0.00    -0.219 NA
ATOM     17  C   LIG    1       -3.527   1.613   0.028  0.00  0.00    +0.225 A 
ATOM     18  N   LIG    1       -3.611   2.927   0.035  0.00  0.00    -0.216 NA
ATOM     19  C   LIG    1       -2.513   3.676   0.033  0.00  0.00    +0.167 A 
BRANCH  15  20
ATOM     20  N   LIG    1       -0.011   0.966   0.007  0.00  0.00    -0.341 N 
ATOM     21  H   LIG    1        0.822   1.462   0.002  0.00  0.00    +0.144 HD
ATOM     22  H   LIG    1        0.055   0.391   0.823  0.00  0.00    +0.144 HD
ENDBRANCH  15  20
ENDBRANCH   8  11
BRANCH   6  23
ATOM     23  C   LIG    1       -2.718   9.659  -0.115  0.00  0.00    +0.190 C 
BRANCH  23  24
ATOM     24  O   LIG    1       -2.235  10.124   1.147  0.00  0.00    -0.392 OA
ATOM     25  H   LIG    1       -1.704  10.931   1.092  0.00  0.00    +0.210 HD
ENDBRANCH  23  24
ENDBRANCH   6  23
TORSDOF 4
