REMARK  Name = ZINC00077351
REMARK                            x       y       z     vdW  Elec       q    Type
REMARK                         _______ _______ _______ _____ _____    ______ ____
ROOT
ATOM      1  C   LIG    1        0.000   1.080   2.488  0.00  0.00    -0.021 A 
ATOM      2  C   LIG    1       -0.285  -0.028   3.190  0.00  0.00    +0.087 A 
ATOM      3  N   LIG    1        0.592  -0.158   4.232  0.00  0.00    -0.360 N 
ATOM      4  C   LIG    1        1.487   0.890   4.225  0.00  0.00    +0.047 A 
ATOM      5  C   LIG    1        2.559   1.237   5.040  0.00  0.00    +0.029 A 
ATOM      6  C   LIG    1        3.285   2.377   4.773  0.00  0.00    +0.040 A 
ATOM      7  C   LIG    1        2.958   3.189   3.693  0.00  0.00    +0.124 A 
ATOM      8  F   LIG    1        3.682   4.302   3.446  0.00  0.00    -0.205 F 
ATOM      9  C   LIG    1        1.900   2.863   2.873  0.00  0.00    +0.048 A 
ATOM     10  H   LIG    1        0.586  -0.881   4.879  0.00  0.00    +0.165 HD
ATOM     11  C   LIG    1        1.158   1.708   3.129  0.00  0.00    +0.006 A 
ENDROOT
BRANCH   1  12
ATOM     12  C   LIG    1       -0.729   1.579   1.267  0.00  0.00    +0.056 C 
BRANCH  12  13
ATOM     13  C   LIG    1       -0.013   1.086   0.008  0.00  0.00    +0.109 C 
BRANCH  13  16
ATOM     14  C   LIG    1       -0.997   1.758  -3.630  0.00  0.00    +0.109 C 
ATOM     15  C   LIG    1       -0.268   1.258  -2.409  0.00  0.00    +0.210 C 
ATOM     16  N   LIG    1       -0.721   1.571  -1.179  0.00  0.00    -0.315 N 
ATOM     17  H   LIG    1       -1.516   2.118  -1.079  0.00  0.00    +0.149 HD
ATOM     18  O   LIG    1        0.726   0.575  -2.534  0.00  0.00    -0.276 OA
ENDBRANCH  13  16
ENDBRANCH  12  13
ENDBRANCH   1  12
TORSDOF 3
