REMARK  Name = ZINC00171740
REMARK                            x       y       z     vdW  Elec       q    Type
REMARK                         _______ _______ _______ _____ _____    ______ ____
ROOT
ATOM      1  C   LIG    1       -5.050   1.337   0.098  0.00  0.00    +0.067 C 
ATOM      2  C   LIG    1       -5.048   0.678  -1.283  0.00  0.00    +0.041 C 
ATOM      3  C   LIG    1       -3.749   2.120   0.293  0.00  0.00    +0.046 C 
ATOM      4  C   LIG    1       -2.566   1.149   0.243  0.00  0.00    -0.001 C 
ATOM      5  C   LIG    1       -2.759   0.068   1.311  0.00  0.00    +0.039 C 
ATOM      6  C   LIG    1       -4.099  -0.635   1.079  0.00  0.00    +0.161 C 
ATOM      7  O   LIG    1       -5.154   0.329   1.107  0.00  0.00    -0.374 OA
ENDROOT
BRANCH   4   8
ATOM      8  C   LIG    1       -1.286   1.899   0.510  0.00  0.00    -0.041 A 
ATOM      9  C   LIG    1       -0.093   1.210   0.624  0.00  0.00    +0.008 A 
ATOM     10  C   LIG    1        1.082   1.896   0.863  0.00  0.00    +0.046 A 
ATOM     11  C   LIG    1        1.063   3.277   0.995  0.00  0.00    +0.120 A 
ATOM     12  C   LIG    1       -0.137   3.966   0.886  0.00  0.00    +0.046 A 
ATOM     13  C   LIG    1       -1.309   3.275   0.647  0.00  0.00    +0.008 A 
BRANCH  11  14
ATOM     14  O   LIG    1        2.217   3.954   1.229  0.00  0.00    -0.495 OA
ATOM     15  C   LIG    1        2.123   5.375   1.354  0.00  0.00    +0.277 C 
ENDBRANCH  11  14
ENDBRANCH   4   8
BRANCH   1  17
ATOM     16  C   LIG    1       -7.544   1.496   0.094  0.00  0.00    +0.007 C 
ATOM     17  C   LIG    1       -6.241   2.291   0.207  0.00  0.00    +0.031 C 
ENDBRANCH   1  17
BRANCH   4  18
ATOM     18  C   LIG    1       -2.497   0.496  -1.139  0.00  0.00    -0.008 C 
BRANCH  18  19
ATOM     19  C   LIG    1       -2.402   1.583  -2.212  0.00  0.00    -0.086 C 
BRANCH  19  20
ATOM     20  N   LIG    1       -2.458   0.950  -3.542  0.00  0.00    +0.378 N 
ATOM     21  H   LIG    1       -1.656   0.318  -3.648  0.00  0.00    -0.090 HD
ATOM     22  H   LIG    1       -2.418   1.662  -4.269  0.00  0.00    -0.090 HD
ATOM     23  H   LIG    1       -3.319   0.415  -3.638  0.00  0.00    -0.090 HD
ENDBRANCH  19  20
ENDBRANCH  18  19
ENDBRANCH   4  18
TORSDOF 6
