REMARK  Name = ZINC00126410
REMARK                            x       y       z     vdW  Elec       q    Type
REMARK                         _______ _______ _______ _____ _____    ______ ____
ROOT
ATOM      1  C   LIG    1       -1.220   1.746   0.017  0.00  0.00    +0.002 A 
ATOM      2  C   LIG    1       -1.253   3.129   0.030  0.00  0.00    +0.001 A 
ATOM      3  C   LIG    1       -0.071   3.846   0.017  0.00  0.00    +0.016 A 
ATOM      4  C   LIG    1        1.142   3.179  -0.003  0.00  0.00    +0.030 A 
ATOM      5  C   LIG    1        1.184   1.784   0.000  0.00  0.00    +0.047 A 
ATOM      6  N   LIG    1        2.389   1.087  -0.022  0.00  0.00    -0.284 N 
ATOM      7  H   LIG    1        2.346   0.151  -0.273  0.00  0.00    +0.155 HD
ATOM      8  C   LIG    1        3.592   1.572   0.266  0.00  0.00    +0.231 C 
ATOM      9  C   LIG    1        3.814   2.967   0.793  0.00  0.00    +0.146 C 
ATOM     10  O   LIG    1        4.558   0.859   0.097  0.00  0.00    -0.274 OA
ATOM     11  S   LIG    1        2.654   4.089  -0.047  0.00  0.00    -0.110 S 
ATOM     12  C   LIG    1       -0.013   1.076   0.008  0.00  0.00    +0.024 A 
ENDROOT
BRANCH   9  13
ATOM     13  C   LIG    1        3.558   2.995   2.301  0.00  0.00    +0.121 C 
BRANCH  13  14
ATOM     14  C   LIG    1        3.875   4.367   2.838  0.00  0.00    +0.237 C 
ATOM     15  N   LIG    1        3.723   4.628   4.152  0.00  0.00    -0.197 N 
ATOM     16  H   LIG    1        3.409   3.933   4.751  0.00  0.00    +0.182 HD
ATOM     17  O   LIG    1        4.267   5.236   2.089  0.00  0.00    -0.274 OA
BRANCH  15  18
ATOM     18  O   LIG    1        4.021   5.917   4.657  0.00  0.00    -0.295 OA
ATOM     19  H   LIG    1        3.881   6.008   5.609  0.00  0.00    +0.241 HD
ENDBRANCH  15  18
ENDBRANCH  13  14
ENDBRANCH   9  13
TORSDOF 3
