REMARK  Name = ZINC00087504
REMARK                            x       y       z     vdW  Elec       q    Type
REMARK                         _______ _______ _______ _____ _____    ______ ____
ROOT
ATOM      1  C   LIG    1       -3.666  -1.145   0.013  0.00  0.00    +0.022 A 
ATOM      2  C   LIG    1       -2.457  -0.522   0.005  0.00  0.00    +0.031 A 
ATOM      3  C   LIG    1       -2.446   0.874   0.018  0.00  0.00    +0.065 A 
ATOM      4  C   LIG    1       -3.678   1.529   0.027  0.00  0.00    +0.076 A 
ATOM      5  S   LIG    1       -4.812   0.219   0.025  0.00  0.00    -0.073 S 
ENDROOT
BRANCH   1   9
ATOM      6  C   LIG    1       -4.501  -5.309  -0.005  0.00  0.00    +0.000 A 
ATOM      7  C   LIG    1       -5.542  -4.398   0.004  0.00  0.00    +0.001 A 
ATOM      8  C   LIG    1       -5.278  -3.044   0.010  0.00  0.00    +0.009 A 
ATOM      9  C   LIG    1       -3.956  -2.594   0.006  0.00  0.00    -0.011 A 
ATOM     10  C   LIG    1       -2.910  -3.519  -0.008  0.00  0.00    +0.009 A 
ATOM     11  C   LIG    1       -3.189  -4.870  -0.008  0.00  0.00    +0.001 A 
ENDBRANCH   1   9
BRANCH   3  12
ATOM     12  C   LIG    1       -1.187   1.624   0.017  0.00  0.00    +0.244 C 
ATOM     13  N   LIG    1       -0.011   0.966   0.007  0.00  0.00    -0.325 N 
ATOM     14  H   LIG    1        0.822   1.462   0.002  0.00  0.00    +0.145 HD
ATOM     15  H   LIG    1        0.002  -0.004   0.002  0.00  0.00    +0.145 HD
ATOM     16  O   LIG    1       -1.204   2.841   0.023  0.00  0.00    -0.270 OA
ENDBRANCH   3  12
BRANCH   4  17
ATOM     17  N   LIG    1       -3.930   2.886   0.036  0.00  0.00    -0.352 N 
ATOM     18  H   LIG    1       -4.844   3.209   0.042  0.00  0.00    +0.143 HD
ATOM     19  H   LIG    1       -3.193   3.516   0.037  0.00  0.00    +0.143 HD
ENDBRANCH   4  17
TORSDOF 3
