REMARK  Name = ZINC00213761
REMARK                            x       y       z     vdW  Elec       q    Type
REMARK                         _______ _______ _______ _____ _____    ______ ____
ROOT
ATOM      1  N   LIG    1       -0.017   1.387   0.010  0.00  0.00    -0.298 N 
ATOM      2  H   LIG    1        0.054   1.891   0.871  0.00  0.00    +0.154 HD
ENDROOT
BRANCH   1   3
ATOM      3  C   LIG    1       -1.124   1.941  -0.612  0.00  0.00    +0.154 A 
ATOM      4  C   LIG    1       -1.238   3.332  -0.773  0.00  0.00    +0.148 A 
ATOM      5  C   LIG    1       -2.382   3.834  -1.416  0.00  0.00    +0.163 A 
ATOM      6  N   LIG    1       -3.312   2.983  -1.836  0.00  0.00    -0.216 NA
ATOM      7  C   LIG    1       -3.166   1.687  -1.659  0.00  0.00    +0.225 A 
ATOM      8  N   LIG    1       -2.232   5.198  -1.444  0.00  0.00    -0.329 N 
ATOM      9  C   LIG    1       -1.043   5.491  -0.845  0.00  0.00    +0.198 A 
ATOM     10  H   LIG    1       -2.877   5.856  -1.832  0.00  0.00    +0.168 HD
ATOM     11  N   LIG    1       -0.460   4.395  -0.455  0.00  0.00    -0.231 NA
ATOM     12  N   LIG    1       -2.106   1.169  -1.065  0.00  0.00    -0.218 NA
ENDBRANCH   1   3
BRANCH   1  16
ATOM     13  C   LIG    1        0.110  -2.701   0.781  0.00  0.00    +0.059 A 
ATOM     14  C   LIG    1        1.277  -2.019   0.422  0.00  0.00    +0.017 A 
ATOM     15  C   LIG    1        1.232  -0.668   0.168  0.00  0.00    +0.024 A 
ATOM     16  C   LIG    1        0.026   0.021   0.268  0.00  0.00    +0.032 A 
ATOM     17  C   LIG    1       -1.137  -0.654   0.630  0.00  0.00    +0.024 A 
ATOM     18  C   LIG    1       -1.099  -2.007   0.881  0.00  0.00    +0.017 A 
BRANCH  13  19
ATOM     19  C   LIG    1        0.155  -4.149   1.053  0.00  0.00    +0.339 C 
ATOM     20  O   LIG    1        1.207  -4.752   0.966  0.00  0.00    -0.245 OA
BRANCH  19  22
ATOM     21  C   LIG    1       -0.852  -6.230   1.653  0.00  0.00    +0.280 C 
ATOM     22  O   LIG    1       -0.970  -4.805   1.399  0.00  0.00    -0.464 OA
ENDBRANCH  19  22
ENDBRANCH  13  19
ENDBRANCH   1  16
TORSDOF 4
