REMARK  Name = ZINC00088181
REMARK                            x       y       z     vdW  Elec       q    Type
REMARK                         _______ _______ _______ _____ _____    ______ ____
ROOT
ATOM      1  C   LIG    1        3.701   2.049  -0.375  0.00  0.00    +0.098 A 
ATOM      2  C   LIG    1        4.873   1.372  -0.568  0.00  0.00    +0.078 A 
ATOM      3  S   LIG    1        6.052   2.712  -0.476  0.00  0.00    -0.060 S 
ATOM      4  C   LIG    1        4.876   4.028  -0.192  0.00  0.00    +0.163 A 
ATOM      5  N   LIG    1        3.733   3.368  -0.197  0.00  0.00    -0.223 NA
ENDROOT
BRANCH   1  10
ATOM      6  C   LIG    1        0.024   1.336  -0.173  0.00  0.00    +0.004 A 
ATOM      7  C   LIG    1        0.050  -0.038  -0.370  0.00  0.00    +0.020 A 
ATOM      8  C   LIG    1        1.263  -0.672  -0.560  0.00  0.00    +0.111 A 
ATOM      9  N   LIG    1        2.391   0.009  -0.556  0.00  0.00    -0.253 NA
ATOM     10  C   LIG    1        2.409   1.323  -0.372  0.00  0.00    +0.090 A 
ATOM     11  C   LIG    1        1.222   2.027  -0.174  0.00  0.00    +0.030 A 
ENDBRANCH   1  10
BRANCH   4  12
ATOM     12  N   LIG    1        5.104   5.384  -0.020  0.00  0.00    -0.294 N 
ATOM     13  H   LIG    1        4.355   5.998   0.035  0.00  0.00    +0.154 HD
BRANCH  12  14
ATOM     14  C   LIG    1        6.414   5.868   0.076  0.00  0.00    +0.033 A 
ATOM     15  C   LIG    1        7.399   5.093   0.674  0.00  0.00    +0.027 A 
ATOM     16  C   LIG    1        8.692   5.568   0.763  0.00  0.00    +0.047 A 
ATOM     17  C   LIG    1        9.006   6.824   0.265  0.00  0.00    +0.117 A 
ATOM     18  C   LIG    1        8.021   7.601  -0.328  0.00  0.00    +0.047 A 
ATOM     19  C   LIG    1        6.729   7.125  -0.423  0.00  0.00    +0.027 A 
BRANCH  17  20
ATOM     20  O   LIG    1       10.278   7.294   0.358  0.00  0.00    -0.507 OA
ATOM     21  H   LIG    1       10.457   7.788   1.170  0.00  0.00    +0.292 HD
ENDBRANCH  17  20
ENDBRANCH  12  14
ENDBRANCH   4  12
TORSDOF 4
