REMARK  Name = ZINC00084617
REMARK                            x       y       z     vdW  Elec       q    Type
REMARK                         _______ _______ _______ _____ _____    ______ ____
ROOT
ATOM      1  C   LIG    1        0.236  -3.589  -1.455  0.00  0.00    +0.197 C 
ENDROOT
BRANCH   1   2
ATOM      2  N   LIG    1        1.401  -4.022  -2.231  0.00  0.00    -0.220 N 
ATOM      3  C   LIG    1        2.153  -5.098  -1.939  0.00  0.00    +0.255 C 
ATOM      4  C   LIG    1        3.230  -5.208  -2.946  0.00  0.00    +0.049 A 
ATOM      5  C   LIG    1        4.276  -6.092  -3.151  0.00  0.00    +0.014 A 
ATOM      6  C   LIG    1        5.133  -5.906  -4.225  0.00  0.00    +0.001 A 
ATOM      7  C   LIG    1        4.950  -4.844  -5.091  0.00  0.00    +0.001 A 
ATOM      8  C   LIG    1        3.908  -3.952  -4.899  0.00  0.00    +0.014 A 
ATOM      9  C   LIG    1        3.043  -4.126  -3.830  0.00  0.00    +0.049 A 
ATOM     10  O   LIG    1        1.977  -5.854  -1.005  0.00  0.00    -0.270 OA
ATOM     11  C   LIG    1        1.856  -3.398  -3.333  0.00  0.00    +0.255 C 
ATOM     12  O   LIG    1        1.374  -2.402  -3.834  0.00  0.00    -0.270 OA
ENDBRANCH   1   2
BRANCH   1  13
ATOM     13  C   LIG    1       -0.795  -4.689  -1.442  0.00  0.00    +0.326 C 
ATOM     14  O   LIG    1       -1.913  -4.470  -1.007  0.00  0.00    -0.249 OA
BRANCH  13  15
ATOM     15  O   LIG    1       -0.510  -5.796  -1.865  0.00  0.00    -0.479 OA
ATOM     16  H   LIG    1        0.349  -5.964  -2.198  0.00  0.00    +0.295 HD
ENDBRANCH  13  15
ENDBRANCH   1  13
BRANCH   1  17
ATOM     17  C   LIG    1        0.666  -3.275  -0.021  0.00  0.00    +0.071 C 
BRANCH  17  23
ATOM     18  C   LIG    1       -0.017   1.362   0.009  0.00  0.00    +0.001 A 
ATOM     19  C   LIG    1        1.170   2.083   0.002  0.00  0.00    +0.002 A 
ATOM     20  C   LIG    1        2.386   1.436  -0.013  0.00  0.00    +0.026 A 
ATOM     21  C   LIG    1        2.428   0.046  -0.021  0.00  0.00    +0.047 A 
ATOM     22  C   LIG    1        1.223  -0.681  -0.013  0.00  0.00    +0.003 A 
ATOM     23  C   LIG    1        1.604  -2.095  -0.025  0.00  0.00    -0.020 A 
ATOM     24  C   LIG    1        2.945  -2.141  -0.038  0.00  0.00    +0.087 A 
ATOM     25  N   LIG    1        3.455  -0.871  -0.036  0.00  0.00    -0.360 N 
ATOM     26  H   LIG    1        4.399  -0.650  -0.044  0.00  0.00    +0.165 HD
ATOM     27  C   LIG    1        0.002  -0.004   0.002  0.00  0.00    +0.010 A 
ENDBRANCH  17  23
ENDBRANCH   1  17
TORSDOF 5
