REMARK  Name = ZINC00177888
REMARK                            x       y       z     vdW  Elec       q    Type
REMARK                         _______ _______ _______ _____ _____    ______ ____
ROOT
ATOM      1  C   LIG    1       -0.018   1.503   0.010  0.00  0.00    +0.044 C 
ATOM      2  C   LIG    1        0.002  -0.004   0.002  0.00  0.00    -0.047 A 
ATOM      3  C   LIG    1        0.006  -0.690  -1.199  0.00  0.00    +0.004 A 
ATOM      4  C   LIG    1        0.021  -2.071  -1.206  0.00  0.00    +0.008 A 
ATOM      5  C   LIG    1        0.035  -2.777  -0.013  0.00  0.00    +0.003 A 
ATOM      6  C   LIG    1        0.038  -2.092   1.189  0.00  0.00    +0.136 A 
ATOM      7  O   LIG    1        0.072  -2.741   2.385  0.00  0.00    -0.426 OA
ATOM      8  C   LIG    1       -0.117  -4.076   2.374  0.00  0.00    +0.313 C 
ATOM      9  C   LIG    1        0.549  -4.854   1.257  0.00  0.00    +0.134 C 
ATOM     10  O   LIG    1       -0.787  -4.626   3.216  0.00  0.00    -0.250 OA
ATOM     11  C   LIG    1        0.040  -4.284  -0.071  0.00  0.00    +0.063 C 
ATOM     12  C   LIG    1        0.023  -0.701   1.192  0.00  0.00    +0.050 A 
ENDROOT
BRANCH  11  13
ATOM     13  C   LIG    1        0.942  -4.739  -1.189  0.00  0.00    -0.039 A 
ATOM     14  C   LIG    1        2.283  -4.404  -1.175  0.00  0.00    +0.004 A 
ATOM     15  C   LIG    1        3.111  -4.822  -2.201  0.00  0.00    +0.000 A 
ATOM     16  C   LIG    1        2.597  -5.574  -3.241  0.00  0.00    +0.000 A 
ATOM     17  C   LIG    1        1.256  -5.910  -3.254  0.00  0.00    +0.000 A 
ATOM     18  C   LIG    1        0.430  -5.496  -2.226  0.00  0.00    +0.004 A 
ENDBRANCH  11  13
TORSDOF 1
