REMARK  Name = ZINC00081221
REMARK                            x       y       z     vdW  Elec       q    Type
REMARK                         _______ _______ _______ _____ _____    ______ ____
ROOT
ATOM      1  C   LIG    1       -6.162   2.935   0.900  0.00  0.00    +0.124 C 
ATOM      2  N   LIG    1       -6.067   1.770   1.476  0.00  0.00    -0.178 NA
ATOM      3  N   LIG    1       -5.085   1.466   2.401  0.00  0.00    -0.239 N 
ATOM      4  H   LIG    1       -5.020   0.596   2.827  0.00  0.00    +0.170 HD
ATOM      5  C   LIG    1       -4.153   2.555   2.688  0.00  0.00    +0.203 C 
ATOM      6  C   LIG    1       -2.730   2.229   2.362  0.00  0.00    +0.018 A 
ATOM      7  C   LIG    1       -2.084   1.790   1.228  0.00  0.00    +0.012 A 
ATOM      8  C   LIG    1       -0.718   1.572   1.248  0.00  0.00    -0.050 A 
ATOM      9  C   LIG    1       -0.013   1.086   0.008  0.00  0.00    +0.044 C 
ATOM     10  C   LIG    1       -0.000   1.806   2.407  0.00  0.00    +0.005 A 
ATOM     11  C   LIG    1       -0.641   2.251   3.544  0.00  0.00    +0.024 A 
ATOM     12  C   LIG    1       -2.017   2.468   3.535  0.00  0.00    +0.040 A 
ATOM     13  N   LIG    1       -2.878   2.907   4.544  0.00  0.00    -0.282 N 
ATOM     14  H   LIG    1       -2.590   3.131   5.443  0.00  0.00    +0.155 HD
ATOM     15  C   LIG    1       -4.158   2.985   4.122  0.00  0.00    +0.257 C 
ATOM     16  O   LIG    1       -5.119   3.333   4.774  0.00  0.00    -0.272 OA
ATOM     17  S   LIG    1       -4.806   3.869   1.595  0.00  0.00    -0.063 S 
ENDROOT
BRANCH   1  22
ATOM     18  C   LIG    1      -10.045   4.666  -2.979  0.00  0.00    +0.044 C 
ATOM     19  C   LIG    1       -9.028   4.213  -1.964  0.00  0.00    -0.050 A 
ATOM     20  C   LIG    1       -9.085   2.926  -1.459  0.00  0.00    +0.004 A 
ATOM     21  C   LIG    1       -8.158   2.504  -0.529  0.00  0.00    +0.011 A 
ATOM     22  C   LIG    1       -7.160   3.379  -0.097  0.00  0.00    +0.008 A 
ATOM     23  C   LIG    1       -7.111   4.678  -0.606  0.00  0.00    +0.011 A 
ATOM     24  C   LIG    1       -8.041   5.085  -1.540  0.00  0.00    +0.004 A 
ENDBRANCH   1  22
TORSDOF 1
