REMARK  Name = ZINC00301614
REMARK                            x       y       z     vdW  Elec       q    Type
REMARK                         _______ _______ _______ _____ _____    ______ ____
ROOT
ATOM      1  N   LIG    1       -1.094   0.272   3.048  0.00  0.00    -0.326 N 
ATOM      2  C   LIG    1       -1.898   1.343   2.809  0.00  0.00    +0.200 A 
ATOM      3  N   LIG    1       -3.016   1.218   3.463  0.00  0.00    -0.236 NA
ATOM      4  C   LIG    1       -3.005   0.057   4.167  0.00  0.00    +0.089 A 
ATOM      5  C   LIG    1       -3.923  -0.561   5.020  0.00  0.00    +0.030 A 
ATOM      6  C   LIG    1       -3.621  -1.768   5.586  0.00  0.00    +0.002 A 
ATOM      7  C   LIG    1       -2.405  -2.384   5.331  0.00  0.00    +0.002 A 
ATOM      8  C   LIG    1       -1.482  -1.791   4.496  0.00  0.00    +0.028 A 
ATOM      9  C   LIG    1       -1.774  -0.569   3.907  0.00  0.00    +0.069 A 
ENDROOT
BRANCH   1  10
ATOM     10  C   LIG    1        0.243   0.049   2.492  0.00  0.00    +0.158 C 
BRANCH  10  17
ATOM     11  C   LIG    1       -0.327   0.977  -0.184  0.00  0.00    +0.044 C 
ATOM     12  C   LIG    1       -0.116  -0.493   0.075  0.00  0.00    -0.046 A 
ATOM     13  C   LIG    1       -0.190  -1.396  -0.969  0.00  0.00    +0.004 A 
ATOM     14  C   LIG    1        0.004  -2.744  -0.731  0.00  0.00    +0.000 A 
ATOM     15  C   LIG    1        0.271  -3.189   0.550  0.00  0.00    +0.000 A 
ATOM     16  C   LIG    1        0.346  -2.285   1.594  0.00  0.00    +0.005 A 
ATOM     17  C   LIG    1        0.157  -0.937   1.355  0.00  0.00    -0.025 A 
ENDBRANCH  10  17
ENDBRANCH   1  10
TORSDOF 2
