REMARK  Name = ZINC00169542
REMARK                            x       y       z     vdW  Elec       q    Type
REMARK                         _______ _______ _______ _____ _____    ______ ____
ROOT
ATOM      1  N   LIG    1        0.059  -4.169  -0.021  0.00  0.00    -0.301 N 
ATOM      2  H   LIG    1        0.753  -4.634   0.471  0.00  0.00    +0.154 HD
ENDROOT
BRANCH   1   3
ATOM      3  C   LIG    1       -1.012  -4.867  -0.521  0.00  0.00    +0.109 A 
ATOM      4  C   LIG    1       -1.046  -6.231  -0.439  0.00  0.00    +0.112 A 
ATOM      5  C   LIG    1       -2.154  -6.918  -0.959  0.00  0.00    +0.256 A 
ATOM      6  N   LIG    1       -3.160  -6.225  -1.528  0.00  0.00    -0.275 N 
ATOM      7  C   LIG    1       -3.112  -4.883  -1.599  0.00  0.00    +0.328 A 
ATOM      8  O   LIG    1       -4.031  -4.277  -2.115  0.00  0.00    -0.247 OA
ATOM      9  H   LIG    1       -3.927  -6.699  -1.887  0.00  0.00    +0.173 HD
ATOM     10  O   LIG    1       -2.206  -8.135  -0.897  0.00  0.00    -0.268 OA
ATOM     11  N   LIG    1       -2.063  -4.200  -1.104  0.00  0.00    -0.296 N 
ATOM     12  H   LIG    1       -2.047  -3.232  -1.162  0.00  0.00    +0.172 HD
ENDBRANCH   1   3
BRANCH   1  17
ATOM     13  C   LIG    1        0.418   1.434  -0.827  0.00  0.00    +0.044 C 
ATOM     14  C   LIG    1        0.322  -0.054  -0.613  0.00  0.00    -0.047 A 
ATOM     15  C   LIG    1       -0.114  -0.872  -1.639  0.00  0.00    +0.005 A 
ATOM     16  C   LIG    1       -0.203  -2.237  -1.446  0.00  0.00    +0.023 A 
ATOM     17  C   LIG    1        0.148  -2.788  -0.220  0.00  0.00    +0.033 A 
ATOM     18  C   LIG    1        0.586  -1.963   0.809  0.00  0.00    +0.027 A 
ATOM     19  C   LIG    1        0.677  -0.600   0.608  0.00  0.00    -0.046 A 
ATOM     20  C   LIG    1        1.158   0.295   1.721  0.00  0.00    +0.044 C 
ENDBRANCH   1  17
TORSDOF 2
