REMARK  Name = ZINC00126964
REMARK                            x       y       z     vdW  Elec       q    Type
REMARK                         _______ _______ _______ _____ _____    ______ ____
ROOT
ATOM      1  C   LIG    1        6.046   1.956  -0.046  0.00  0.00    +0.085 A 
ATOM      2  C   LIG    1        7.310   1.387  -0.067  0.00  0.00    +0.068 A 
ATOM      3  C   LIG    1        8.446   2.292  -0.073  0.00  0.00    -0.023 A 
ATOM      4  C   LIG    1        8.110   3.600  -0.056  0.00  0.00    -0.004 A 
ATOM      5  C   LIG    1        9.046   4.769  -0.055  0.00  0.00    +0.043 C 
ATOM      6  C   LIG    1       10.450   4.262   0.305  0.00  0.00    +0.005 C 
ATOM      7  C   LIG    1       10.765   3.029  -0.547  0.00  0.00    +0.005 C 
ATOM      8  C   LIG    1        9.901   1.850  -0.096  0.00  0.00    +0.037 C 
ATOM      9  S   LIG    1        6.341   3.610  -0.041  0.00  0.00    -0.077 S 
ENDROOT
BRANCH   2  10
ATOM     10  C   LIG    1        7.492  -0.068  -0.082  0.00  0.00    +0.244 C 
ATOM     11  N   LIG    1        7.590  -0.747   1.078  0.00  0.00    -0.325 N 
ATOM     12  H   LIG    1        7.711  -1.709   1.068  0.00  0.00    +0.145 HD
ATOM     13  H   LIG    1        7.540  -0.273   1.923  0.00  0.00    +0.145 HD
ATOM     14  O   LIG    1        7.555  -0.662  -1.142  0.00  0.00    -0.270 OA
ENDBRANCH   2  10
BRANCH   1  16
ATOM     15  C   LIG    1        3.680   2.028  -0.023  0.00  0.00    +0.250 C 
ATOM     16  N   LIG    1        4.821   1.310  -0.037  0.00  0.00    -0.275 N 
ATOM     17  H   LIG    1        4.783   0.341  -0.042  0.00  0.00    +0.156 HD
ATOM     18  O   LIG    1        3.726   3.243  -0.017  0.00  0.00    -0.270 OA
BRANCH  15  21
ATOM     19  C   LIG    1       -0.017   1.379   0.010  0.00  0.00    +0.020 A 
ATOM     20  C   LIG    1        1.181   2.073   0.002  0.00  0.00    +0.016 A 
ATOM     21  C   LIG    1        2.373   1.339  -0.013  0.00  0.00    +0.055 A 
ATOM     22  C   LIG    1        2.306  -0.056  -0.020  0.00  0.00    +0.123 A 
ATOM     23  N   LIG    1        1.141  -0.670  -0.012  0.00  0.00    -0.263 NA
ATOM     24  C   LIG    1        0.002  -0.004   0.002  0.00  0.00    +0.111 A 
ENDBRANCH  15  21
ENDBRANCH   1  16
TORSDOF 3
