REMARK  Name = ZINC00119431
REMARK                            x       y       z     vdW  Elec       q    Type
REMARK                         _______ _______ _______ _____ _____    ______ ____
ROOT
ATOM      1  C   LIG    1        3.621  -0.713  -0.036  0.00  0.00    +0.001 A 
ATOM      2  C   LIG    1        3.619  -2.107  -0.043  0.00  0.00    +0.001 A 
ATOM      3  C   LIG    1        2.451  -2.805  -0.035  0.00  0.00    +0.012 A 
ATOM      4  C   LIG    1        1.228  -2.115  -0.021  0.00  0.00    +0.025 A 
ATOM      5  C   LIG    1        1.230  -0.698  -0.013  0.00  0.00    +0.006 A 
ATOM      6  C   LIG    1        0.002  -0.004   0.002  0.00  0.00    +0.033 A 
ATOM      7  C   LIG    1       -1.179  -0.714   0.015  0.00  0.00    +0.027 A 
ATOM      8  C   LIG    1       -1.173  -2.106   0.004  0.00  0.00    +0.048 A 
ATOM      9  C   LIG    1       -0.000  -2.805  -0.012  0.00  0.00    +0.125 A 
ATOM     10  C   LIG    1        2.455  -0.011  -0.021  0.00  0.00    +0.010 A 
ENDROOT
BRANCH   6  11
ATOM     11  N   LIG    1       -0.017   1.393   0.010  0.00  0.00    -0.357 N 
ATOM     12  H   LIG    1       -0.863   1.866   0.016  0.00  0.00    +0.142 HD
ATOM     13  H   LIG    1        0.817   1.889   0.004  0.00  0.00    +0.142 HD
ENDBRANCH   6  11
BRANCH   9  14
ATOM     14  O   LIG    1       -0.018  -4.165  -0.018  0.00  0.00    -0.506 OA
ATOM     15  H   LIG    1       -0.014  -4.562   0.864  0.00  0.00    +0.292 HD
ENDBRANCH   9  14
TORSDOF 2
