REMARK  Name = ZINC00175212
REMARK                            x       y       z     vdW  Elec       q    Type
REMARK                         _______ _______ _______ _____ _____    ______ ____
ROOT
ATOM      1  S   LIG    1        3.858  -0.946  -0.222  0.00  0.00    +0.075 S 
ATOM      2  O   LIG    1        4.907  -0.001  -0.382  0.00  0.00    -0.150 OA
ATOM      3  O   LIG    1        3.618  -1.984  -1.162  0.00  0.00    -0.150 OA
ENDROOT
BRANCH   1   7
ATOM      4  C   LIG    1        0.016   1.428   0.090  0.00  0.00    +0.002 A 
ATOM      5  C   LIG    1        1.224   2.084  -0.062  0.00  0.00    +0.002 A 
ATOM      6  C   LIG    1        2.397   1.359  -0.157  0.00  0.00    +0.031 A 
ATOM      7  C   LIG    1        2.363  -0.022  -0.100  0.00  0.00    +0.138 A 
ATOM      8  C   LIG    1        1.156  -0.678   0.052  0.00  0.00    +0.148 A 
ATOM      9  C   LIG    1       -0.018   0.047   0.146  0.00  0.00    +0.034 A 
BRANCH   8  10
ATOM     10  N   LIG    1        1.119  -2.156   0.112  0.00  0.00    +0.008 N 
ATOM     11  O   LIG    1        0.220  -2.761  -0.425  0.00  0.00    -0.130 OA
BRANCH  10  12
ATOM     12  O   LIG    1        1.987  -2.759   0.699  0.00  0.00    -0.396 OA
ATOM     13  H   LIG    1        2.684  -2.290   1.115  0.00  0.00    +0.329 HD
ENDBRANCH  10  12
ENDBRANCH   8  10
ENDBRANCH   1   7
BRANCH   1  14
ATOM     14  N   LIG    1        4.101  -1.680   1.242  0.00  0.00    -0.214 N 
ATOM     15  H   LIG    1        3.455  -1.547   1.973  0.00  0.00    +0.174 HD
BRANCH  14  16
ATOM     16  C   LIG    1        5.221  -2.486   1.440  0.00  0.00    +0.074 A 
ATOM     17  C   LIG    1        6.132  -2.671   0.423  0.00  0.00    +0.026 A 
ATOM     18  C   LIG    1        7.255  -3.473   0.608  0.00  0.00    +0.003 A 
ATOM     19  C   LIG    1        7.483  -4.096   1.798  0.00  0.00    +0.010 A 
ATOM     20  C   LIG    1        6.578  -3.932   2.859  0.00  0.00    +0.002 A 
ATOM     21  C   LIG    1        6.785  -4.563   4.101  0.00  0.00    +0.011 A 
ATOM     22  C   LIG    1        5.872  -4.346   5.093  0.00  0.00    +0.020 A 
ATOM     23  C   LIG    1        4.766  -3.534   4.855  0.00  0.00    +0.111 A 
ATOM     24  N   LIG    1        4.574  -2.953   3.696  0.00  0.00    -0.253 NA
ATOM     25  C   LIG    1        5.434  -3.115   2.687  0.00  0.00    +0.093 A 
ENDBRANCH  14  16
ENDBRANCH   1  14
TORSDOF 5
