REMARK  Name = ZINC00097762
REMARK                            x       y       z     vdW  Elec       q    Type
REMARK                         _______ _______ _______ _____ _____    ______ ____
ROOT
ATOM      1  C   LIG    1       -1.237   3.133   0.031  0.00  0.00    -0.048 A 
ATOM      2  C   LIG    1       -1.218   1.751   0.017  0.00  0.00    +0.005 A 
ATOM      3  C   LIG    1       -0.013   1.076   0.008  0.00  0.00    +0.024 A 
ATOM      4  C   LIG    1        1.180   1.787   0.000  0.00  0.00    +0.044 A 
ATOM      5  C   LIG    1        1.157   3.175   0.008  0.00  0.00    +0.024 A 
ATOM      6  C   LIG    1       -0.051   3.844   0.023  0.00  0.00    +0.005 A 
ENDROOT
BRANCH   4   7
ATOM      7  N   LIG    1        2.404   1.105  -0.015  0.00  0.00    -0.203 N 
ATOM      8  C   LIG    1        2.547  -0.233  -0.019  0.00  0.00    +0.250 C 
ATOM      9  C   LIG    1        3.992  -0.549  -0.041  0.00  0.00    +0.073 C 
ATOM     10  C   LIG    1        4.646   0.625  -0.040  0.00  0.00    +0.073 C 
ATOM     11  O   LIG    1        1.643  -1.043  -0.008  0.00  0.00    -0.270 OA
ATOM     12  C   LIG    1        3.616   1.688  -0.024  0.00  0.00    +0.250 C 
ATOM     13  O   LIG    1        3.830   2.883  -0.020  0.00  0.00    -0.270 OA
ENDBRANCH   4   7
BRANCH   1  15
ATOM     14  C   LIG    1       -3.013   4.123  -1.389  0.00  0.00    +0.009 C 
ATOM     15  C   LIG    1       -2.554   3.867   0.047  0.00  0.00    +0.032 C 
ENDBRANCH   1  15
TORSDOF 2
