REMARK  Name = ZINC00349812
REMARK                            x       y       z     vdW  Elec       q    Type
REMARK                         _______ _______ _______ _____ _____    ______ ____
ROOT
ATOM      1  C   LIG    1       -0.017   1.375   0.010  0.00  0.00    +0.001 A 
ATOM      2  C   LIG    1        1.171   2.086   0.002  0.00  0.00    +0.001 A 
ATOM      3  C   LIG    1        2.383   1.421  -0.013  0.00  0.00    +0.013 A 
ATOM      4  C   LIG    1        2.417   0.042  -0.021  0.00  0.00    +0.065 A 
ATOM      5  C   LIG    1        1.223  -0.683  -0.013  0.00  0.00    +0.029 A 
ATOM      6  C   LIG    1        0.002  -0.004   0.002  0.00  0.00    +0.012 A 
ENDROOT
BRANCH   5   7
ATOM      7  C   LIG    1        1.251  -2.159  -0.022  0.00  0.00    +0.137 A 
ATOM      8  C   LIG    1        0.552  -2.981   0.833  0.00  0.00    +0.051 A 
ATOM      9  C   LIG    1        0.863  -4.296   0.479  0.00  0.00    +0.057 A 
ATOM     10  C   LIG    1        1.743  -4.227  -0.582  0.00  0.00    +0.212 A 
ATOM     11  O   LIG    1        1.958  -2.925  -0.869  0.00  0.00    -0.448 OA
BRANCH  10  12
ATOM     12  C   LIG    1        2.319  -5.332  -1.256  0.00  0.00    +0.372 C 
ATOM     13  O   LIG    1        2.045  -6.474  -0.907  0.00  0.00    -0.242 OA
BRANCH  12  14
ATOM     14  O   LIG    1        3.092  -5.145  -2.189  0.00  0.00    -0.475 OA
ATOM     15  H   LIG    1        3.301  -4.272  -2.456  0.00  0.00    +0.296 HD
ENDBRANCH  12  14
ENDBRANCH  10  12
ENDBRANCH   5   7
BRANCH   4  16
ATOM     16  C   LIG    1        3.739  -0.682  -0.038  0.00  0.00    +0.418 C 
ATOM     17  F   LIG    1        3.820  -1.478  -1.185  0.00  0.00    -0.166 F 
ATOM     18  F   LIG    1        3.842  -1.490   1.099  0.00  0.00    -0.166 F 
ATOM     19  F   LIG    1        4.781   0.252  -0.043  0.00  0.00    -0.166 F 
ENDBRANCH   4  16
TORSDOF 4
