REMARK  Name = ZINC00272979
REMARK                            x       y       z     vdW  Elec       q    Type
REMARK                         _______ _______ _______ _____ _____    ______ ____
ROOT
ATOM      1  C   LIG    1        4.763   2.689  -0.027  0.00  0.00    +0.286 C 
ATOM      2  N   LIG    1        5.348   3.900   0.075  0.00  0.00    -0.264 N 
ATOM      3  C   LIG    1        6.794   4.136   0.080  0.00  0.00    +0.119 C 
ATOM      4  C   LIG    1        6.953   5.659   0.212  0.00  0.00    +0.056 C 
ATOM      5  C   LIG    1        5.537   6.185   0.283  0.00  0.00    -0.024 A 
ATOM      6  C   LIG    1        5.054   7.473   0.410  0.00  0.00    +0.005 A 
ATOM      7  C   LIG    1        3.691   7.702   0.454  0.00  0.00    +0.000 A 
ATOM      8  C   LIG    1        2.812   6.639   0.369  0.00  0.00    +0.002 A 
ATOM      9  C   LIG    1        3.289   5.351   0.243  0.00  0.00    +0.024 A 
ATOM     10  C   LIG    1        4.664   5.112   0.198  0.00  0.00    +0.040 A 
ATOM     11  O   LIG    1        3.553   2.604  -0.110  0.00  0.00    -0.266 OA
ENDROOT
BRANCH   1  18
ATOM     12  C   LIG    1        7.723  -2.576  -0.071  0.00  0.00    +0.001 A 
ATOM     13  C   LIG    1        8.828  -1.736  -0.082  0.00  0.00    +0.004 A 
ATOM     14  C   LIG    1        8.672  -0.367  -0.074  0.00  0.00    +0.047 A 
ATOM     15  C   LIG    1        7.396   0.184  -0.061  0.00  0.00    +0.136 A 
ATOM     16  C   LIG    1        6.279  -0.673  -0.055  0.00  0.00    +0.021 A 
ATOM     17  C   LIG    1        5.108   0.203  -0.041  0.00  0.00    +0.063 A 
ATOM     18  C   LIG    1        5.588   1.474  -0.040  0.00  0.00    +0.191 A 
ATOM     19  O   LIG    1        6.938   1.451  -0.052  0.00  0.00    -0.450 OA
ATOM     20  C   LIG    1        6.459  -2.058  -0.062  0.00  0.00    +0.011 A 
ENDBRANCH   1  18
TORSDOF 1
