REMARK  Name = ZINC00075209
REMARK                            x       y       z     vdW  Elec       q    Type
REMARK                         _______ _______ _______ _____ _____    ______ ____
ROOT
ATOM      1  C   LIG    1        2.366   0.108  -0.827  0.00  0.00    +0.001 A 
ATOM      2  C   LIG    1        2.322   1.483  -0.946  0.00  0.00    +0.001 A 
ATOM      3  C   LIG    1        1.113   2.153  -0.861  0.00  0.00    +0.012 A 
ATOM      4  C   LIG    1       -0.061   1.439  -0.653  0.00  0.00    +0.030 A 
ATOM      5  C   LIG    1       -0.018   0.040  -0.531  0.00  0.00    -0.006 A 
ATOM      6  C   LIG    1       -1.401  -0.462  -0.318  0.00  0.00    -0.006 A 
ATOM      7  C   LIG    1       -1.903  -1.746  -0.141  0.00  0.00    +0.009 A 
ATOM      8  C   LIG    1       -3.262  -1.946   0.043  0.00  0.00    +0.001 A 
ATOM      9  C   LIG    1       -4.134  -0.876   0.052  0.00  0.00    +0.014 A 
ATOM     10  C   LIG    1       -3.651   0.422  -0.124  0.00  0.00    +0.048 A 
ATOM     11  C   LIG    1       -2.278   0.631  -0.310  0.00  0.00    +0.042 A 
ATOM     12  C   LIG    1       -1.475   1.861  -0.513  0.00  0.00    +0.195 C 
ATOM     13  O   LIG    1       -1.897   2.999  -0.563  0.00  0.00    -0.287 OA
ATOM     14  C   LIG    1        1.202  -0.616  -0.620  0.00  0.00    +0.009 A 
ENDROOT
BRANCH  10  15
ATOM     15  C   LIG    1       -4.584   1.571  -0.114  0.00  0.00    +0.249 C 
ATOM     16  N   LIG    1       -5.904   1.365   0.065  0.00  0.00    -0.281 N 
ATOM     17  H   LIG    1       -6.253   0.461   0.110  0.00  0.00    +0.155 HD
ATOM     18  O   LIG    1       -4.160   2.699  -0.267  0.00  0.00    -0.270 OA
BRANCH  16  19
ATOM     19  C   LIG    1       -6.772   2.455   0.185  0.00  0.00    +0.034 A 
ATOM     20  C   LIG    1       -8.070   2.368  -0.305  0.00  0.00    +0.023 A 
ATOM     21  C   LIG    1       -8.931   3.442  -0.189  0.00  0.00    +0.003 A 
ATOM     22  C   LIG    1       -8.509   4.609   0.416  0.00  0.00    +0.015 A 
ATOM     23  C   LIG    1       -7.208   4.707   0.912  0.00  0.00    +0.061 A 
ATOM     24  C   LIG    1       -6.340   3.620   0.799  0.00  0.00    +0.038 A 
BRANCH  23  25
ATOM     25  C   LIG    1       -6.753   5.955   1.560  0.00  0.00    +0.337 C 
ATOM     26  O   LIG    1       -5.621   6.038   1.990  0.00  0.00    -0.245 OA
BRANCH  25  27
ATOM     27  O   LIG    1       -7.595   7.000   1.673  0.00  0.00    -0.477 OA
ATOM     28  H   LIG    1       -8.469   6.936   1.340  0.00  0.00    +0.295 HD
ENDBRANCH  25  27
ENDBRANCH  23  25
ENDBRANCH  16  19
ENDBRANCH  10  15
TORSDOF 4
