REMARK  Name = ZINC00114942
REMARK                            x       y       z     vdW  Elec       q    Type
REMARK                         _______ _______ _______ _____ _____    ______ ____
ROOT
ATOM      1  C   LIG    1        3.684   2.170  -0.021  0.00  0.00    +0.045 C 
ATOM      2  C   LIG    1        2.386   1.404  -0.013  0.00  0.00    -0.029 A 
ATOM      3  C   LIG    1        2.398   0.023  -0.021  0.00  0.00    +0.005 A 
ATOM      4  C   LIG    1        1.208  -0.681  -0.014  0.00  0.00    +0.000 A 
ATOM      5  C   LIG    1        0.002  -0.004   0.002  0.00  0.00    +0.002 A 
ATOM      6  C   LIG    1       -0.017   1.377   0.010  0.00  0.00    +0.024 A 
ATOM      7  C   LIG    1        1.177   2.086   0.002  0.00  0.00    +0.047 A 
ENDROOT
BRANCH   7   8
ATOM      8  N   LIG    1        1.161   3.487   0.009  0.00  0.00    -0.203 N 
ATOM      9  C   LIG    1        1.148   4.269  -1.086  0.00  0.00    +0.250 C 
ATOM     10  C   LIG    1        1.130   5.683  -0.651  0.00  0.00    +0.073 C 
ATOM     11  C   LIG    1        1.143   5.676   0.692  0.00  0.00    +0.073 C 
ATOM     12  O   LIG    1        1.149   3.879  -2.236  0.00  0.00    -0.270 OA
ATOM     13  C   LIG    1        1.163   4.257   1.112  0.00  0.00    +0.250 C 
ATOM     14  O   LIG    1        1.179   3.856   2.258  0.00  0.00    -0.270 OA
ENDBRANCH   7   8
TORSDOF 1
