REMARK  Name = ZINC00135992
REMARK                            x       y       z     vdW  Elec       q    Type
REMARK                         _______ _______ _______ _____ _____    ______ ____
ROOT
ATOM      1  O   LIG    1        3.717  -2.031  -0.045  0.00  0.00    -0.459 OA
ENDROOT
BRANCH   1   2
ATOM      2  C   LIG    1        5.000  -2.659  -0.061  0.00  0.00    +0.163 C 
ATOM      3  C   LIG    1        5.472  -2.898   1.375  0.00  0.00    -0.033 C 
ATOM      4  N   LIG    1        5.679  -4.330   1.603  0.00  0.00    +0.382 N 
ATOM      5  H   LIG    1        5.985  -4.460   2.556  0.00  0.00    -0.082 HD
ATOM      6  C   LIG    1        4.426  -5.067   1.425  0.00  0.00    -0.078 C 
ATOM      7  C   LIG    1        3.919  -4.900  -0.009  0.00  0.00    -0.012 C 
ATOM      8  C   LIG    1        6.716  -4.850   0.708  0.00  0.00    -0.078 C 
ATOM      9  C   LIG    1        6.285  -4.674  -0.753  0.00  0.00    -0.012 C 
ATOM     10  C   LIG    1        4.903  -4.008  -0.784  0.00  0.00    +0.024 C 
ENDBRANCH   1   2
BRANCH   1  11
ATOM     11  C   LIG    1        3.695  -0.684  -0.037  0.00  0.00    +0.339 C 
ATOM     12  O   LIG    1        4.737  -0.059  -0.044  0.00  0.00    -0.245 OA
BRANCH  11  16
ATOM     13  C   LIG    1       -0.017   1.379   0.010  0.00  0.00    +0.000 A 
ATOM     14  C   LIG    1        1.168   2.094   0.002  0.00  0.00    +0.001 A 
ATOM     15  C   LIG    1        2.377   1.430  -0.013  0.00  0.00    +0.015 A 
ATOM     16  C   LIG    1        2.404   0.034  -0.021  0.00  0.00    +0.059 A 
ATOM     17  C   LIG    1        1.204  -0.681  -0.013  0.00  0.00    +0.015 A 
ATOM     18  C   LIG    1        0.002  -0.004   0.002  0.00  0.00    +0.001 A 
ENDBRANCH  11  16
ENDBRANCH   1  11
TORSDOF 3
