REMARK  Name = ZINC00172316
REMARK                            x       y       z     vdW  Elec       q    Type
REMARK                         _______ _______ _______ _____ _____    ______ ____
ROOT
ATOM      1  C   LIG    1        3.157   6.410  -0.312  0.00  0.00    +0.092 C 
ATOM      2  C   LIG    1        2.722   7.839  -0.115  0.00  0.00    +0.070 C 
ATOM      3  N   LIG    1        4.419   6.112  -0.322  0.00  0.00    -0.077 NA
ENDROOT
BRANCH   1  13
ATOM      4  C   LIG    1        3.745   3.463  -0.727  0.00  0.00    +0.045 C 
ATOM      5  C   LIG    1        2.346   4.022  -0.684  0.00  0.00    -0.027 A 
ATOM      6  C   LIG    1        1.240   3.167  -0.840  0.00  0.00    -0.007 A 
ATOM      7  C   LIG    1        1.238   1.763  -1.045  0.00  0.00    +0.009 A 
ATOM      8  C   LIG    1        0.070   1.082  -1.176  0.00  0.00    +0.001 A 
ATOM      9  C   LIG    1       -1.159   1.727  -1.121  0.00  0.00    +0.001 A 
ATOM     10  C   LIG    1       -1.202   3.092  -0.918  0.00  0.00    +0.015 A 
ATOM     11  C   LIG    1       -0.026   3.796  -0.782  0.00  0.00    +0.020 A 
ATOM     12  S   LIG    1        0.374   5.505  -0.521  0.00  0.00    -0.087 S 
ATOM     13  C   LIG    1        2.152   5.355  -0.494  0.00  0.00    +0.040 A 
ENDBRANCH   1  13
BRANCH   3  14
ATOM     14  O   LIG    1        5.253   6.987  -0.171  0.00  0.00    -0.299 OA
BRANCH  14  15
ATOM     15  C   LIG    1        6.545   6.609  -0.191  0.00  0.00    +0.430 C 
ATOM     16  N   LIG    1        7.518   7.528  -0.030  0.00  0.00    -0.249 N 
ATOM     17  H   LIG    1        7.291   8.470   0.023  0.00  0.00    +0.158 HD
ATOM     18  O   LIG    1        6.834   5.441  -0.354  0.00  0.00    -0.224 OA
BRANCH  16  19
ATOM     19  C   LIG    1        8.854   7.124   0.061  0.00  0.00    +0.037 A 
ATOM     20  C   LIG    1        9.176   5.914   0.663  0.00  0.00    +0.023 A 
ATOM     21  C   LIG    1       10.495   5.516   0.746  0.00  0.00    +0.002 A 
ATOM     22  C   LIG    1       11.497   6.324   0.240  0.00  0.00    +0.000 A 
ATOM     23  C   LIG    1       11.180   7.532  -0.354  0.00  0.00    +0.002 A 
ATOM     24  C   LIG    1        9.862   7.934  -0.445  0.00  0.00    +0.023 A 
ENDBRANCH  16  19
ENDBRANCH  14  15
ENDBRANCH   3  14
TORSDOF 4
