REMARK  Name = ZINC00244550
REMARK                            x       y       z     vdW  Elec       q    Type
REMARK                         _______ _______ _______ _____ _____    ______ ____
ROOT
ATOM      1  C   LIG    1       -1.127  -0.838   0.009  0.00  0.00    +0.047 A 
ATOM      2  C   LIG    1       -1.973  -0.851   1.109  0.00  0.00    +0.027 A 
ATOM      3  C   LIG    1       -3.086  -1.667   1.115  0.00  0.00    +0.017 A 
ATOM      4  C   LIG    1       -3.354  -2.484   0.023  0.00  0.00    +0.009 A 
ATOM      5  C   LIG    1       -2.504  -2.474  -1.077  0.00  0.00    +0.017 A 
ATOM      6  C   LIG    1       -1.394  -1.653  -1.083  0.00  0.00    +0.027 A 
ENDROOT
BRANCH   1  13
ATOM      7  C   LIG    1       -1.249   2.228   0.020  0.00  0.00    +0.064 C 
ATOM      8  C   LIG    1       -0.016   1.361   0.009  0.00  0.00    +0.021 A 
ATOM      9  C   LIG    1        1.259   1.800  -0.000  0.00  0.00    +0.023 A 
ATOM     10  C   LIG    1        2.096   0.666  -0.014  0.00  0.00    +0.023 A 
ATOM     11  C   LIG    1        1.301  -0.424  -0.013  0.00  0.00    +0.021 A 
ATOM     12  C   LIG    1        1.767  -1.857  -0.025  0.00  0.00    +0.064 C 
ATOM     13  N   LIG    1        0.002  -0.004   0.002  0.00  0.00    -0.318 N 
ENDBRANCH   1  13
BRANCH   4  14
ATOM     14  S   LIG    1       -4.771  -3.532   0.032  0.00  0.00    -0.114 S 
BRANCH  14  15
ATOM     15  C   LIG    1       -5.550  -3.203   1.637  0.00  0.00    +0.194 C 
BRANCH  15  16
ATOM     16  C   LIG    1       -6.790  -4.047   1.775  0.00  0.00    +0.315 C 
ATOM     17  O   LIG    1       -7.116  -4.793   0.883  0.00  0.00    -0.250 OA
BRANCH  16  18
ATOM     18  O   LIG    1       -7.534  -3.969   2.890  0.00  0.00    -0.480 OA
ATOM     19  H   LIG    1       -7.282  -3.390   3.582  0.00  0.00    +0.295 HD
ENDBRANCH  16  18
ENDBRANCH  15  16
ENDBRANCH  14  15
ENDBRANCH   4  14
TORSDOF 5
