REMARK  Name = ZINC00124016
REMARK                            x       y       z     vdW  Elec       q    Type
REMARK                         _______ _______ _______ _____ _____    ______ ____
ROOT
ATOM      1  C   LIG    1       -0.004  -4.254  -0.016  0.00  0.00    +0.143 C 
ATOM      2  C   LIG    1       -1.395  -4.783  -0.300  0.00  0.00    +0.078 C 
ATOM      3  C   LIG    1       -1.554  -5.591  -1.370  0.00  0.00    +0.021 C 
ATOM      4  C   LIG    1       -2.922  -6.139  -1.688  0.00  0.00    +0.061 C 
ATOM      5  N   LIG    1       -0.497  -5.918  -2.170  0.00  0.00    -0.273 N 
ATOM      6  H   LIG    1       -0.659  -6.501  -2.928  0.00  0.00    +0.156 HD
ATOM      7  C   LIG    1        0.752  -5.479  -1.966  0.00  0.00    +0.304 C 
ATOM      8  O   LIG    1        1.629  -5.826  -2.732  0.00  0.00    -0.252 OA
ATOM      9  N   LIG    1        1.067  -4.666  -0.939  0.00  0.00    -0.288 N 
ATOM     10  H   LIG    1        1.979  -4.360  -0.810  0.00  0.00    +0.151 HD
ENDROOT
BRANCH   1  15
ATOM     11  C   LIG    1       -0.256   1.520  -0.046  0.00  0.00    +0.044 C 
ATOM     12  C   LIG    1       -0.190   0.014  -0.038  0.00  0.00    -0.050 A 
ATOM     13  C   LIG    1       -0.135  -0.682  -1.232  0.00  0.00    +0.004 A 
ATOM     14  C   LIG    1       -0.069  -2.062  -1.224  0.00  0.00    +0.006 A 
ATOM     15  C   LIG    1       -0.070  -2.748  -0.024  0.00  0.00    -0.022 A 
ATOM     16  C   LIG    1       -0.130  -2.053   1.169  0.00  0.00    +0.006 A 
ATOM     17  C   LIG    1       -0.190  -0.672   1.162  0.00  0.00    +0.004 A 
ENDBRANCH   1  15
BRANCH   2  18
ATOM     18  C   LIG    1       -2.490  -4.444   0.529  0.00  0.00    +0.339 C 
ATOM     19  O   LIG    1       -3.615  -4.792   0.224  0.00  0.00    -0.245 OA
BRANCH  18  20
ATOM     20  O   LIG    1       -2.286  -3.734   1.659  0.00  0.00    -0.458 OA
BRANCH  20  21
ATOM     21  C   LIG    1       -3.437  -3.426   2.448  0.00  0.00    +0.177 C 
ATOM     22  C   LIG    1       -4.012  -2.056   2.034  0.00  0.00    +0.044 C 
ATOM     23  C   LIG    1       -4.487  -1.425   3.367  0.00  0.00    +0.004 C 
ATOM     24  C   LIG    1       -3.391  -1.870   4.366  0.00  0.00    +0.004 C 
ATOM     25  C   LIG    1       -3.043  -3.308   3.931  0.00  0.00    +0.044 C 
ENDBRANCH  20  21
ENDBRANCH  18  20
ENDBRANCH   2  18
TORSDOF 4
