REMARK  Name = ZINC00078856
REMARK                            x       y       z     vdW  Elec       q    Type
REMARK                         _______ _______ _______ _____ _____    ______ ____
ROOT
ATOM      1  C   LIG    1        3.564   0.619  -0.029  0.00  0.00    +0.294 A 
ATOM      2  N   LIG    1        4.310  -0.466  -0.047  0.00  0.00    -0.184 NA
ATOM      3  C   LIG    1        5.607  -0.126  -0.056  0.00  0.00    +0.203 A 
ATOM      4  N   LIG    1        5.705   1.181  -0.044  0.00  0.00    -0.056 NA
ATOM      5  O   LIG    1        4.380   1.689  -0.031  0.00  0.00    -0.329 OA
ENDROOT
BRANCH   3   6
ATOM      6  C   LIG    1        6.748  -1.077  -0.076  0.00  0.00    +0.025 A 
ATOM      7  C   LIG    1        6.532  -2.457  -0.093  0.00  0.00    +0.031 A 
ATOM      8  C   LIG    1        7.620  -3.306  -0.112  0.00  0.00    +0.111 A 
ATOM      9  N   LIG    1        8.850  -2.829  -0.115  0.00  0.00    -0.263 NA
ATOM     10  C   LIG    1        9.098  -1.534  -0.099  0.00  0.00    +0.111 A 
ATOM     11  C   LIG    1        8.067  -0.616  -0.085  0.00  0.00    +0.031 A 
ENDBRANCH   3   6
BRANCH   1  14
ATOM     12  C   LIG    1       -0.016   1.346   0.009  0.00  0.00    +0.042 A 
ATOM     13  C   LIG    1        1.321   1.777  -0.001  0.00  0.00    +0.055 A 
ATOM     14  C   LIG    1        2.096   0.654  -0.014  0.00  0.00    +0.192 A 
ATOM     15  O   LIG    1        1.278  -0.418  -0.012  0.00  0.00    -0.458 OA
ATOM     16  C   LIG    1        0.002  -0.004   0.002  0.00  0.00    +0.196 A 
ENDBRANCH   1  14
TORSDOF 2
