REMARK  Name = ZINC00196663
REMARK                            x       y       z     vdW  Elec       q    Type
REMARK                         _______ _______ _______ _____ _____    ______ ____
ROOT
ATOM      1  C   LIG    1        2.494  -2.493  -4.364  0.00  0.00    +0.094 A 
ATOM      2  C   LIG    1        2.541  -3.895  -4.445  0.00  0.00    +0.044 A 
ATOM      3  C   LIG    1        3.170  -4.452  -5.549  0.00  0.00    +0.052 A 
ATOM      4  C   LIG    1        3.720  -3.589  -6.515  0.00  0.00    +0.105 A 
ATOM      5  C   LIG    1        4.332  -4.415  -7.587  0.00  0.00    +0.014 A 
ATOM      6  C   LIG    1        4.998  -4.068  -8.756  0.00  0.00    +0.011 A 
ATOM      7  C   LIG    1        5.480  -5.057  -9.599  0.00  0.00    +0.001 A 
ATOM      8  C   LIG    1        5.303  -6.391  -9.287  0.00  0.00    +0.001 A 
ATOM      9  C   LIG    1        4.641  -6.754  -8.125  0.00  0.00    +0.012 A 
ATOM     10  C   LIG    1        4.153  -5.772  -7.270  0.00  0.00    +0.032 A 
ATOM     11  N   LIG    1        3.623  -2.278  -6.346  0.00  0.00    -0.148 NA
ATOM     12  C   LIG    1        3.420  -5.846  -5.984  0.00  0.00    +0.196 C 
ATOM     13  O   LIG    1        3.087  -6.856  -5.399  0.00  0.00    -0.287 OA
ATOM     14  N   LIG    1        3.036  -1.761  -5.328  0.00  0.00    -0.149 NA
ENDROOT
BRANCH   1  18
ATOM     15  C   LIG    1        0.606  -0.607  -1.055  0.00  0.00    +0.120 A 
ATOM     16  C   LIG    1        1.172   0.165  -2.062  0.00  0.00    +0.046 A 
ATOM     17  C   LIG    1        1.786  -0.444  -3.136  0.00  0.00    +0.013 A 
ATOM     18  C   LIG    1        1.836  -1.836  -3.211  0.00  0.00    +0.002 A 
ATOM     19  C   LIG    1        1.266  -2.608  -2.199  0.00  0.00    +0.013 A 
ATOM     20  C   LIG    1        0.659  -1.993  -1.125  0.00  0.00    +0.046 A 
BRANCH  15  22
ATOM     21  C   LIG    1       -0.017   1.425   0.010  0.00  0.00    +0.277 C 
ATOM     22  O   LIG    1        0.002  -0.004   0.002  0.00  0.00    -0.495 OA
ENDBRANCH  15  22
ENDBRANCH   1  18
TORSDOF 2
