REMARK  Name = ZINC00086535
REMARK                            x       y       z     vdW  Elec       q    Type
REMARK                         _______ _______ _______ _____ _____    ______ ____
ROOT
ATOM      1  N   LIG    1        3.642  -0.622   0.091  0.00  0.00    -0.314 N 
ATOM      2  H   LIG    1        3.665  -1.585   0.200  0.00  0.00    +0.152 HD
ENDROOT
BRANCH   1   6
ATOM      3  C   LIG    1       -0.016   1.365  -0.098  0.00  0.00    +0.001 A 
ATOM      4  C   LIG    1        0.484   0.933   1.121  0.00  0.00    +0.002 A 
ATOM      5  C   LIG    1        1.694   0.275   1.187  0.00  0.00    +0.024 A 
ATOM      6  C   LIG    1        2.423   0.040   0.027  0.00  0.00    +0.045 A 
ATOM      7  C   LIG    1        1.920   0.476  -1.210  0.00  0.00    +0.080 A 
ATOM      8  C   LIG    1        0.690   1.143  -1.258  0.00  0.00    +0.017 A 
BRANCH   7   9
ATOM      9  C   LIG    1        2.680   0.235  -2.445  0.00  0.00    +0.339 C 
ATOM     10  O   LIG    1        2.283   0.694  -3.508  0.00  0.00    -0.245 OA
BRANCH   9  11
ATOM     11  O   LIG    1        3.710  -0.424  -2.411  0.00  0.00    -0.477 OA
ATOM     12  H   LIG    1        4.015  -0.775  -1.597  0.00  0.00    +0.295 HD
ENDBRANCH   9  11
ENDBRANCH   7   9
ENDBRANCH   1   6
BRANCH   1  13
ATOM     13  C   LIG    1        4.834   0.100  -0.002  0.00  0.00    +0.032 A 
ATOM     14  C   LIG    1        4.807   1.489  -0.031  0.00  0.00    +0.023 A 
ATOM     15  C   LIG    1        5.987   2.200  -0.122  0.00  0.00    +0.002 A 
ATOM     16  C   LIG    1        7.196   1.530  -0.186  0.00  0.00    +0.012 A 
ATOM     17  C   LIG    1        7.227   0.148  -0.157  0.00  0.00    +0.057 A 
ATOM     18  C   LIG    1        6.050  -0.569  -0.060  0.00  0.00    +0.035 A 
BRANCH  17  19
ATOM     19  C   LIG    1        8.546  -0.577  -0.226  0.00  0.00    +0.417 C 
ATOM     20  F   LIG    1        8.565  -1.404  -1.354  0.00  0.00    -0.166 F 
ATOM     21  F   LIG    1        8.712  -1.354   0.925  0.00  0.00    -0.166 F 
ATOM     22  F   LIG    1        9.586   0.355  -0.314  0.00  0.00    -0.166 F 
ENDBRANCH  17  19
ENDBRANCH   1  13
TORSDOF 5
