REMARK  Name = ZINC00325078
REMARK                            x       y       z     vdW  Elec       q    Type
REMARK                         _______ _______ _______ _____ _____    ______ ____
ROOT
ATOM      1  C   LIG    1        3.668  -1.993  -0.043  0.00  0.00    +0.086 A 
ATOM      2  C   LIG    1        3.660  -0.625  -0.036  0.00  0.00    +0.028 A 
ATOM      3  C   LIG    1        2.414   0.053  -0.021  0.00  0.00    +0.018 A 
ATOM      4  C   LIG    1        2.375   1.456  -0.013  0.00  0.00    +0.015 A 
ATOM      5  C   LIG    1        1.175   2.103   0.002  0.00  0.00    +0.046 A 
ATOM      6  C   LIG    1       -0.017   1.381   0.010  0.00  0.00    +0.120 A 
ATOM      7  C   LIG    1        0.002  -0.004   0.002  0.00  0.00    +0.092 A 
ATOM      8  C   LIG    1        1.214  -0.680  -0.013  0.00  0.00    +0.143 A 
ATOM      9  O   LIG    1        1.233  -2.031  -0.020  0.00  0.00    -0.422 OA
ATOM     10  C   LIG    1        2.391  -2.712  -0.035  0.00  0.00    +0.347 A 
ATOM     11  O   LIG    1        2.380  -3.929  -0.040  0.00  0.00    -0.244 OA
ENDROOT
BRANCH   1  15
ATOM     12  C   LIG    1        8.650  -2.199  -0.087  0.00  0.00    +0.073 C 
ATOM     13  C   LIG    1        7.248  -2.751  -0.078  0.00  0.00    +0.076 A 
ATOM     14  N   LIG    1        6.110  -2.100  -0.065  0.00  0.00    -0.244 NA
ATOM     15  C   LIG    1        4.949  -2.738  -0.058  0.00  0.00    +0.085 A 
ATOM     16  C   LIG    1        4.971  -4.107  -0.060  0.00  0.00    +0.075 A 
ATOM     17  S   LIG    1        6.732  -4.408  -0.083  0.00  0.00    -0.080 S 
ENDBRANCH   1  15
BRANCH   6  18
ATOM     18  O   LIG    1       -1.204   2.038   0.019  0.00  0.00    -0.507 OA
ATOM     19  H   LIG    1       -1.544   2.224   0.905  0.00  0.00    +0.292 HD
ENDBRANCH   6  18
TORSDOF 2
