REMARK  Name = ZINC00189552
REMARK                            x       y       z     vdW  Elec       q    Type
REMARK                         _______ _______ _______ _____ _____    ______ ____
ROOT
ATOM      1  C   LIG    1        3.696  -0.685  -0.037  0.00  0.00    +0.140 A 
ATOM      2  N   LIG    1        3.844  -2.036  -0.051  0.00  0.00    -0.332 N 
ATOM      3  CA  LIG    1        5.191  -2.299  -0.064  0.00  0.00    +0.158 A 
ATOM      4  C   LIG    1        5.830  -1.062  -0.057  0.00  0.00    +0.180 A 
ATOM      5  H   LIG    1        3.130  -2.693  -0.053  0.00  0.00    +0.168 HD
ATOM      6  N   LIG    1        4.882  -0.117  -0.046  0.00  0.00    -0.220 NA
ENDROOT
BRANCH   1  10
ATOM      7  C   LIG    1       -0.017   1.379   0.010  0.00  0.00    +0.000 A 
ATOM      8  C   LIG    1        1.168   2.093   0.002  0.00  0.00    +0.001 A 
ATOM      9  C   LIG    1        2.377   1.429  -0.013  0.00  0.00    +0.011 A 
ATOM     10  C   LIG    1        2.403   0.034  -0.021  0.00  0.00    +0.017 A 
ATOM     11  C   LIG    1        1.204  -0.681  -0.013  0.00  0.00    +0.011 A 
ATOM     12  C   LIG    1        0.002  -0.004   0.002  0.00  0.00    +0.001 A 
ENDBRANCH   1  10
BRANCH   3  13
ATOM     13  C   LIG    1        5.831  -3.621  -0.082  0.00  0.00    +0.356 C 
ATOM     14  O   LIG    1        5.144  -4.634  -0.086  0.00  0.00    -0.243 OA
BRANCH  13  15
ATOM     15  OXT LIG    1        7.052  -3.711  -0.092  0.00  0.00    -0.476 OA
ATOM     16  HXT LIG    1        7.578  -2.935  -0.088  0.00  0.00    +0.295 HD
ENDBRANCH  13  15
ENDBRANCH   3  13
BRANCH   4  17
ATOM     17  C   LIG    1        7.291  -0.834  -0.065  0.00  0.00    +0.358 C 
ATOM     18  O   LIG    1        8.058  -1.785  -0.080  0.00  0.00    -0.243 OA
BRANCH  17  19
ATOM     19  O   LIG    1        7.732   0.307  -0.058  0.00  0.00    -0.476 OA
ATOM     20  H   LIG    1        7.144   1.036  -0.047  0.00  0.00    +0.295 HD
ENDBRANCH  17  19
ENDBRANCH   4  17
TORSDOF 5
