REMARK  Name = ZINC00103684
REMARK                            x       y       z     vdW  Elec       q    Type
REMARK                         _______ _______ _______ _____ _____    ______ ____
ROOT
ATOM      1  C   LIG    1       -1.201  -0.638   0.010  0.00  0.00    +0.121 A 
ATOM      2  C   LIG    1       -2.377   0.108   0.019  0.00  0.00    +0.049 A 
ATOM      3  C   LIG    1       -3.605  -0.518   0.040  0.00  0.00    +0.050 A 
ATOM      4  C   LIG    1       -3.678  -1.905   0.045  0.00  0.00    +0.139 A 
ATOM      5  C   LIG    1       -2.494  -2.666   0.007  0.00  0.00    +0.022 A 
ATOM      6  C   LIG    1       -2.565  -4.080  -0.053  0.00  0.00    +0.033 A 
ATOM      7  C   LIG    1       -3.808  -4.665  -0.269  0.00  0.00    +0.144 A 
ATOM      8  C   LIG    1       -4.959  -3.760  -0.452  0.00  0.00    +0.351 A 
ATOM      9  O   LIG    1       -5.943  -4.112  -1.074  0.00  0.00    -0.244 OA
ATOM     10  O   LIG    1       -4.882  -2.525   0.095  0.00  0.00    -0.422 OA
ATOM     11  C   LIG    1       -1.250  -2.016   0.003  0.00  0.00    +0.057 A 
ENDROOT
BRANCH   1  13
ATOM     12  C   LIG    1       -0.017   1.425   0.010  0.00  0.00    +0.277 C 
ATOM     13  O   LIG    1        0.002  -0.004   0.002  0.00  0.00    -0.495 OA
ENDBRANCH   1  13
BRANCH   7  14
ATOM     14  C   LIG    1       -3.970  -6.124  -0.312  0.00  0.00    +0.344 C 
ATOM     15  O   LIG    1       -2.998  -6.852  -0.157  0.00  0.00    -0.245 OA
BRANCH  14  16
ATOM     16  O   LIG    1       -5.076  -6.612  -0.503  0.00  0.00    -0.477 OA
ATOM     17  H   LIG    1       -5.819  -6.055  -0.622  0.00  0.00    +0.295 HD
ENDBRANCH  14  16
ENDBRANCH   7  14
TORSDOF 3
