REMARK  Name = ZINC00105309
REMARK                            x       y       z     vdW  Elec       q    Type
REMARK                         _______ _______ _______ _____ _____    ______ ____
ROOT
ATOM      1  C   LIG    1        0.742  -0.511   1.242  0.00  0.00    +0.188 C 
ATOM      2  C   LIG    1        0.750  -2.019   1.244  0.00  0.00    +0.008 A 
ATOM      3  C   LIG    1        1.557  -2.692   0.317  0.00  0.00    +0.035 A 
ATOM      4  C   LIG    1        1.579  -4.070   0.289  0.00  0.00    +0.071 A 
ATOM      5  N   LIG    1        0.808  -4.780   1.165  0.00  0.00    -0.302 N 
ATOM      6  C   LIG    1        1.018  -6.213   0.920  0.00  0.00    +0.162 C 
ATOM      7  C   LIG    1        2.009  -6.314  -0.210  0.00  0.00    +0.000 A 
ATOM      8  C   LIG    1        2.569  -7.372  -0.854  0.00  0.00    +0.017 A 
ATOM      9  C   LIG    1        3.481  -7.110  -1.897  0.00  0.00    +0.001 A 
ATOM     10  C   LIG    1        4.096  -8.152  -2.607  0.00  0.00    +0.010 A 
ATOM     11  C   LIG    1        4.971  -7.859  -3.608  0.00  0.00    +0.001 A 
ATOM     12  C   LIG    1        5.265  -6.538  -3.938  0.00  0.00    +0.002 A 
ATOM     13  C   LIG    1        4.687  -5.503  -3.271  0.00  0.00    +0.028 A 
ATOM     14  C   LIG    1        3.777  -5.763  -2.229  0.00  0.00    +0.072 A 
ATOM     15  N   LIG    1        3.197  -4.766  -1.560  0.00  0.00    -0.245 NA
ATOM     16  C   LIG    1        0.027  -4.144   2.060  0.00  0.00    +0.259 A 
ATOM     17  O   LIG    1       -0.661  -4.796   2.829  0.00  0.00    -0.267 OA
ATOM     18  C   LIG    1        2.338  -4.999  -0.581  0.00  0.00    +0.093 A 
ATOM     19  C   LIG    1       -0.005  -2.736   2.119  0.00  0.00    +0.061 A 
ATOM     20  C   LIG    1       -0.866  -2.080   3.165  0.00  0.00    +0.273 C 
ATOM     21  O   LIG    1       -1.074  -0.701   2.859  0.00  0.00    -0.457 OA
ATOM     22  C   LIG    1        0.036  -0.025   2.487  0.00  0.00    +0.344 C 
ATOM     23  O   LIG    1        0.445   0.921   3.119  0.00  0.00    -0.247 OA
ENDROOT
BRANCH   1  25
ATOM     24  C   LIG    1       -0.019   1.526   0.010  0.00  0.00    +0.007 C 
ATOM     25  C   LIG    1        0.002  -0.004   0.002  0.00  0.00    +0.048 C 
ENDBRANCH   1  25
BRANCH   1  26
ATOM     26  O   LIG    1        2.085  -0.022   1.231  0.00  0.00    -0.373 OA
ATOM     27  H   LIG    1        2.153   0.942   1.234  0.00  0.00    +0.211 HD
ENDBRANCH   1  26
TORSDOF 2
