REMARK  Name = ZINC00156746
REMARK                            x       y       z     vdW  Elec       q    Type
REMARK                         _______ _______ _______ _____ _____    ______ ____
ROOT
ATOM      1  C   LIG    1        0.002  -0.004   0.002  0.00  0.00    +0.137 A 
ATOM      2  C   LIG    1       -0.016   1.362   0.009  0.00  0.00    +0.051 A 
ATOM      3  C   LIG    1        1.314   1.791  -0.001  0.00  0.00    +0.057 A 
ATOM      4  C   LIG    1        2.098   0.657  -0.014  0.00  0.00    +0.212 A 
ATOM      5  O   LIG    1        1.280  -0.417  -0.012  0.00  0.00    -0.448 OA
ENDROOT
BRANCH   1  10
ATOM      6  C   LIG    1       -3.416  -2.526   0.023  0.00  0.00    +0.021 A 
ATOM      7  C   LIG    1       -3.311  -1.501   0.947  0.00  0.00    +0.022 A 
ATOM      8  C   LIG    1       -2.200  -0.681   0.950  0.00  0.00    +0.052 A 
ATOM      9 CL   LIG    1       -2.067   0.599   2.115  0.00  0.00    -0.083 Cl
ATOM     10  C   LIG    1       -1.186  -0.881   0.009  0.00  0.00    +0.037 A 
ATOM     11  C   LIG    1       -1.299  -1.917  -0.920  0.00  0.00    +0.033 A 
ATOM     12  C   LIG    1       -2.412  -2.733  -0.908  0.00  0.00    +0.042 A 
ATOM     13 CL   LIG    1       -2.554  -4.021  -2.062  0.00  0.00    -0.084 Cl
ENDBRANCH   1  10
BRANCH   4  14
ATOM     14  C   LIG    1        3.560   0.624  -0.029  0.00  0.00    +0.372 C 
ATOM     15  O   LIG    1        4.192   1.663  -0.029  0.00  0.00    -0.242 OA
BRANCH  14  16
ATOM     16  O   LIG    1        4.208  -0.560  -0.042  0.00  0.00    -0.475 OA
ATOM     17  H   LIG    1        3.721  -1.361  -0.042  0.00  0.00    +0.296 HD
ENDBRANCH  14  16
ENDBRANCH   4  14
TORSDOF 3
