REMARK  Name = ZINC00134132
REMARK                            x       y       z     vdW  Elec       q    Type
REMARK                         _______ _______ _______ _____ _____    ______ ____
ROOT
ATOM      1  C   LIG    1        2.493  -2.492  -4.362  0.00  0.00    +0.023 A 
ATOM      2  C   LIG    1        2.635  -3.820  -4.610  0.00  0.00    +0.048 A 
ATOM      3  C   LIG    1        3.297  -4.249  -5.771  0.00  0.00    +0.119 A 
ATOM      4  C   LIG    1        3.779  -3.211  -6.617  0.00  0.00    +0.131 A 
ATOM      5  N   LIG    1        4.414  -3.476  -7.732  0.00  0.00    -0.217 NA
ATOM      6  C   LIG    1        4.610  -4.748  -8.075  0.00  0.00    +0.183 A 
ATOM      7  N   LIG    1        4.163  -5.727  -7.292  0.00  0.00    -0.128 NA
ATOM      8  N   LIG    1        3.538  -5.508  -6.194  0.00  0.00    -0.145 NA
ATOM      9  S   LIG    1        3.285  -1.733  -5.769  0.00  0.00    -0.067 S 
ENDROOT
BRANCH   1  13
ATOM     10  C   LIG    1        0.606  -0.607  -1.055  0.00  0.00    +0.120 A 
ATOM     11  C   LIG    1        1.172   0.165  -2.062  0.00  0.00    +0.046 A 
ATOM     12  C   LIG    1        1.786  -0.443  -3.136  0.00  0.00    +0.012 A 
ATOM     13  C   LIG    1        1.837  -1.836  -3.212  0.00  0.00    -0.011 A 
ATOM     14  C   LIG    1        1.266  -2.608  -2.198  0.00  0.00    +0.012 A 
ATOM     15  C   LIG    1        0.659  -1.993  -1.124  0.00  0.00    +0.046 A 
BRANCH  10  17
ATOM     16  C   LIG    1       -0.017   1.425   0.010  0.00  0.00    +0.277 C 
ATOM     17  O   LIG    1        0.002  -0.004   0.002  0.00  0.00    -0.495 OA
ENDBRANCH  10  17
ENDBRANCH   1  13
BRANCH   6  18
ATOM     18  C   LIG    1        5.325  -5.074  -9.332  0.00  0.00    +0.021 A 
ATOM     19  C   LIG    1        5.800  -4.051 -10.152  0.00  0.00    +0.011 A 
ATOM     20  C   LIG    1        6.466  -4.361 -11.321  0.00  0.00    +0.001 A 
ATOM     21  C   LIG    1        6.663  -5.682 -11.678  0.00  0.00    +0.000 A 
ATOM     22  C   LIG    1        6.195  -6.701 -10.868  0.00  0.00    +0.001 A 
ATOM     23  C   LIG    1        5.533  -6.404  -9.694  0.00  0.00    +0.011 A 
ENDBRANCH   6  18
TORSDOF 3
