REMARK  Name = ZINC00343456
REMARK                            x       y       z     vdW  Elec       q    Type
REMARK                         _______ _______ _______ _____ _____    ______ ____
ROOT
ATOM      1  C   LIG    1        1.102   2.028   0.006  0.00  0.00    +0.216 A 
ATOM      2  C   LIG    1        2.340   1.399  -0.007  0.00  0.00    +0.067 A 
ATOM      3  C   LIG    1        2.395   0.014  -0.015  0.00  0.00    +0.009 A 
ATOM      4  C   LIG    1        1.206  -0.697  -0.009  0.00  0.00    +0.044 A 
ATOM      5  C   LIG    1        0.002  -0.004   0.004  0.00  0.00    +0.129 A 
ATOM      6  N   LIG    1       -0.016   1.320   0.011  0.00  0.00    -0.198 NA
ENDROOT
BRANCH   5   7
ATOM      7  N   LIG    1       -1.200  -0.710   0.010  0.00  0.00    -0.271 N 
ATOM      8  H   LIG    1       -1.195  -1.677  -0.069  0.00  0.00    +0.156 HD
ATOM      9  C   LIG    1       -2.369  -0.050   0.127  0.00  0.00    +0.215 C 
ATOM     10  C   LIG    1       -3.659  -0.818   0.249  0.00  0.00    +0.109 C 
ATOM     11  O   LIG    1       -2.382   1.163   0.133  0.00  0.00    -0.276 OA
ENDBRANCH   5   7
BRANCH   1  12
ATOM     12  O   LIG    1        1.038   3.383   0.013  0.00  0.00    -0.477 OA
BRANCH  12  14
ATOM     13  C   LIG    1       -0.135   5.496   0.034  0.00  0.00    +0.048 C 
ATOM     14  C   LIG    1       -0.264   3.971   0.027  0.00  0.00    +0.227 C 
ENDBRANCH  12  14
ENDBRANCH   1  12
TORSDOF 3
