REMARK  Name = ZINC00122268
REMARK                            x       y       z     vdW  Elec       q    Type
REMARK                         _______ _______ _______ _____ _____    ______ ____
ROOT
ATOM      1  C   LIG    1        3.507  -2.723  -3.172  0.00  0.00    +0.132 A 
ATOM      2  C   LIG    1        3.805  -2.985  -4.532  0.00  0.00    +0.041 A 
ATOM      3  C   LIG    1        3.085  -2.397  -5.577  0.00  0.00    +0.028 A 
ATOM      4  C   LIG    1        3.418  -2.686  -6.869  0.00  0.00    +0.019 A 
ATOM      5 BR   LIG    1        2.446  -1.893  -8.283  0.00  0.00    -0.050 Br
ATOM      6  C   LIG    1        4.465  -3.558  -7.159  0.00  0.00    +0.017 A 
ATOM      7  C   LIG    1        5.185  -4.146  -6.163  0.00  0.00    +0.029 A 
ATOM      8  C   LIG    1        4.870  -3.871  -4.825  0.00  0.00    +0.076 A 
ATOM      9  N   LIG    1        5.548  -4.423  -3.807  0.00  0.00    -0.235 NA
ATOM     10  C   LIG    1        5.228  -4.144  -2.566  0.00  0.00    +0.223 A 
ATOM     11  N   LIG    1        4.245  -3.318  -2.244  0.00  0.00    -0.220 NA
ENDROOT
BRANCH   1  15
ATOM     12  N   LIG    1        0.746  -0.411  -1.204  0.00  0.00    -0.300 NA
ATOM     13  C   LIG    1        2.156  -0.006  -1.286  0.00  0.00    +0.103 C 
ATOM     14  C   LIG    1        2.728  -0.431  -2.642  0.00  0.00    +0.122 C 
ATOM     15  N   LIG    1        2.483  -1.870  -2.823  0.00  0.00    -0.312 N 
ATOM     16  C   LIG    1        1.116  -2.374  -2.621  0.00  0.00    +0.122 C 
ATOM     17  C   LIG    1        0.607  -1.872  -1.265  0.00  0.00    +0.103 C 
BRANCH  12  19
ATOM     18  C   LIG    1        0.056   1.653  -0.082  0.00  0.00    +0.020 C 
ATOM     19  C   LIG    1        0.113   0.127   0.008  0.00  0.00    +0.081 C 
ENDBRANCH  12  19
ENDBRANCH   1  15
TORSDOF 2
