REMARK  Name = ZINC00120515
REMARK                            x       y       z     vdW  Elec       q    Type
REMARK                         _______ _______ _______ _____ _____    ______ ____
ROOT
ATOM      1  C   LIG    1        1.121   5.911   0.021  0.00  0.00    +0.020 A 
ATOM      2  C   LIG    1       -0.083   5.263   0.029  0.00  0.00    +0.013 A 
ATOM      3  C   LIG    1       -0.080   3.857   0.023  0.00  0.00    +0.025 A 
ATOM      4  C   LIG    1       -1.282   3.121   0.030  0.00  0.00    +0.034 A 
ATOM      5  C   LIG    1       -1.234   1.743   0.017  0.00  0.00    +0.027 A 
ATOM      6  C   LIG    1       -0.013   1.076   0.008  0.00  0.00    +0.049 A 
ATOM      7  C   LIG    1        1.167   1.763   0.000  0.00  0.00    +0.143 A 
ATOM      8  C   LIG    1        1.161   3.172   0.007  0.00  0.00    +0.114 A 
ATOM      9  N   LIG    1        2.303   3.866  -0.000  0.00  0.00    -0.251 NA
ATOM     10  C   LIG    1        2.304   5.178   0.006  0.00  0.00    +0.111 A 
ENDROOT
BRANCH   4  11
ATOM     11  N   LIG    1       -2.512   3.781   0.045  0.00  0.00    -0.357 N 
ATOM     12  H   LIG    1       -3.337   3.271   0.050  0.00  0.00    +0.142 HD
ATOM     13  H   LIG    1       -2.541   4.751   0.049  0.00  0.00    +0.142 HD
ENDBRANCH   4  11
BRANCH   7  14
ATOM     14  O   LIG    1        2.348   1.088  -0.015  0.00  0.00    -0.505 OA
ATOM     15  H   LIG    1        2.681   0.898  -0.902  0.00  0.00    +0.292 HD
ENDBRANCH   7  14
TORSDOF 2
