REMARK  Name = ZINC00165587
REMARK                            x       y       z     vdW  Elec       q    Type
REMARK                         _______ _______ _______ _____ _____    ______ ____
ROOT
ATOM      1  C   LIG    1       -0.016   1.357   0.009  0.00  0.00    +0.001 A 
ATOM      2  C   LIG    1        1.169   2.091   0.002  0.00  0.00    +0.001 A 
ATOM      3  C   LIG    1        2.378   1.467  -0.013  0.00  0.00    +0.012 A 
ATOM      4  C   LIG    1        2.437   0.063  -0.021  0.00  0.00    +0.027 A 
ATOM      5  C   LIG    1        1.232  -0.682  -0.013  0.00  0.00    +0.027 A 
ATOM      6  C   LIG    1        1.291  -2.090  -0.021  0.00  0.00    +0.125 A 
ATOM      7  C   LIG    1        2.505  -2.716  -0.036  0.00  0.00    +0.049 A 
ATOM      8  C   LIG    1        3.689  -1.984  -0.043  0.00  0.00    +0.049 A 
ATOM      9  C   LIG    1        3.670  -0.618  -0.037  0.00  0.00    +0.125 A 
ATOM     10  C   LIG    1        0.002  -0.004   0.002  0.00  0.00    +0.012 A 
ENDROOT
BRANCH   6  11
ATOM     11  O   LIG    1        0.145  -2.822  -0.013  0.00  0.00    -0.506 OA
ATOM     12  H   LIG    1       -0.195  -3.029  -0.894  0.00  0.00    +0.292 HD
ENDBRANCH   6  11
BRANCH   9  13
ATOM     13  O   LIG    1        4.836   0.081  -0.045  0.00  0.00    -0.506 OA
ATOM     14  H   LIG    1        5.182   0.279   0.836  0.00  0.00    +0.292 HD
ENDBRANCH   9  13
TORSDOF 2
