REMARK  Name = ZINC00114339
REMARK                            x       y       z     vdW  Elec       q    Type
REMARK                         _______ _______ _______ _____ _____    ______ ____
ROOT
ATOM      1  C   LIG    1       -0.017   1.384   0.039  0.00  0.00    +0.003 A 
ATOM      2  C   LIG    1        1.148   2.095   0.021  0.00  0.00    +0.010 A 
ATOM      3  C   LIG    1        2.376   1.421   0.003  0.00  0.00    +0.003 A 
ATOM      4  C   LIG    1        3.723   1.855  -0.018  0.00  0.00    +0.041 A 
ATOM      5  C   LIG    1        4.514   0.750  -0.031  0.00  0.00    +0.103 A 
ATOM      6  N   LIG    1        3.716  -0.378  -0.019  0.00  0.00    -0.349 N 
ATOM      7  H   LIG    1        4.039  -1.308  -0.024  0.00  0.00    +0.166 HD
ATOM      8  C   LIG    1        2.398   0.012   0.002  0.00  0.00    +0.077 A 
ATOM      9  C   LIG    1        1.197  -0.691   0.019  0.00  0.00    +0.145 A 
ATOM     10  C   LIG    1        0.003  -0.005   0.038  0.00  0.00    +0.035 A 
ENDROOT
BRANCH   5  11
ATOM     11  C   LIG    1        5.984   0.754  -0.054  0.00  0.00    +0.265 C 
ATOM     12  N   LIG    1        6.661  -0.412  -0.065  0.00  0.00    -0.280 N 
ATOM     13  H   LIG    1        6.181  -1.252   0.011  0.00  0.00    +0.155 HD
ATOM     14  O   LIG    1        6.589   1.809  -0.063  0.00  0.00    -0.268 OA
BRANCH  12  15
ATOM     15  C   LIG    1        8.054  -0.410  -0.184  0.00  0.00    +0.034 A 
ATOM     16  C   LIG    1        8.693  -1.417  -0.897  0.00  0.00    +0.025 A 
ATOM     17  C   LIG    1       10.069  -1.412  -1.014  0.00  0.00    +0.022 A 
ATOM     18  C   LIG    1       10.812  -0.406  -0.422  0.00  0.00    +0.041 A 
ATOM     19 CL   LIG    1       12.541  -0.403  -0.571  0.00  0.00    -0.084 Cl
ATOM     20  C   LIG    1       10.178   0.598   0.290  0.00  0.00    +0.022 A 
ATOM     21  C   LIG    1        8.802   0.602   0.405  0.00  0.00    +0.025 A 
ENDBRANCH  12  15
ENDBRANCH   5  11
BRANCH   9  22
ATOM     22  N   LIG    1        1.203  -2.171   0.018  0.00  0.00    +0.008 N 
ATOM     23  O   LIG    1        0.158  -2.780   0.033  0.00  0.00    -0.130 OA
BRANCH  22  24
ATOM     24  O   LIG    1        2.252  -2.771   0.002  0.00  0.00    -0.396 OA
ATOM     25  H   LIG    1        3.062  -2.299  -0.010  0.00  0.00    +0.329 HD
ENDBRANCH  22  24
ENDBRANCH   9  22
TORSDOF 4
