REMARK  Name = ZINC00135449
REMARK                            x       y       z     vdW  Elec       q    Type
REMARK                         _______ _______ _______ _____ _____    ______ ____
ROOT
ATOM      1  C   LIG    1        0.662   1.496  -0.055  0.00  0.00    +0.105 C 
ATOM      2  N   LIG    1        0.448   0.043  -0.025  0.00  0.00    -0.298 NA
ATOM      3  C   LIG    1        0.837  -0.572  -1.295  0.00  0.00    +0.089 C 
ATOM      4  C   LIG    1        0.385  -2.021  -1.356  0.00  0.00    +0.051 C 
ATOM      5  C   LIG    1        0.526  -2.720  -0.033  0.00  0.00    -0.037 A 
ATOM      6  C   LIG    1        0.290  -4.090   0.009  0.00  0.00    +0.053 A 
ATOM      7  C   LIG    1        0.425  -4.797   1.189  0.00  0.00    +0.159 A 
ATOM      8  C   LIG    1        0.796  -4.134   2.353  0.00  0.00    +0.169 A 
ATOM      9  C   LIG    1        1.012  -2.758   2.318  0.00  0.00    +0.033 A 
ATOM     10  C   LIG    1        1.402  -2.030   3.549  0.00  0.00    -0.007 A 
ATOM     11  C   LIG    1        1.893  -2.719   4.655  0.00  0.00    +0.058 A 
ATOM     12  C   LIG    1        2.268  -2.018   5.788  0.00  0.00    +0.162 A 
ATOM     13  C   LIG    1        2.154  -0.631   5.818  0.00  0.00    +0.159 A 
ATOM     14  C   LIG    1        1.657   0.052   4.718  0.00  0.00    +0.053 A 
ATOM     15  C   LIG    1        1.275  -0.643   3.589  0.00  0.00    -0.034 A 
ATOM     16  C   LIG    1        0.716   0.087   2.398  0.00  0.00    +0.059 C 
ATOM     17  C   LIG    1        0.886  -2.053   1.118  0.00  0.00    -0.015 A 
ATOM     18  C   LIG    1        1.170  -0.574   1.098  0.00  0.00    +0.092 C 
ENDROOT
BRANCH   7  19
ATOM     19  O   LIG    1        0.196  -6.138   1.211  0.00  0.00    -0.503 OA
ATOM     20  H   LIG    1        0.980  -6.674   1.032  0.00  0.00    +0.292 HD
ENDBRANCH   7  19
BRANCH   8  21
ATOM     21  O   LIG    1        0.945  -4.822   3.516  0.00  0.00    -0.491 OA
ATOM     22  C   LIG    1       -0.236  -5.058   4.286  0.00  0.00    +0.277 C 
ENDBRANCH   8  21
BRANCH  12  23
ATOM     23  O   LIG    1        2.747  -2.685   6.872  0.00  0.00    -0.491 OA
ATOM     24  C   LIG    1        2.837  -4.107   6.772  0.00  0.00    +0.277 C 
ENDBRANCH  12  23
BRANCH  13  25
ATOM     25  O   LIG    1        2.529   0.057   6.929  0.00  0.00    -0.503 OA
ATOM     26  H   LIG    1        3.457   0.330   6.928  0.00  0.00    +0.292 HD
ENDBRANCH  13  25
TORSDOF 4
