REMARK  Name = ZINC00210352
REMARK                            x       y       z     vdW  Elec       q    Type
REMARK                         _______ _______ _______ _____ _____    ______ ____
ROOT
ATOM      1  C   LIG    1       -0.070   5.323   0.029  0.00  0.00    +0.247 C 
ATOM      2  N   LIG    1        1.084   6.012   0.124  0.00  0.00    -0.295 N 
ATOM      3  C   LIG    1        2.381   5.318   0.117  0.00  0.00    +0.127 C 
ATOM      4  C   LIG    1        3.276   5.980  -0.943  0.00  0.00    +0.124 C 
ATOM      5  N   LIG    1        3.347   7.424  -0.683  0.00  0.00    -0.327 N 
ATOM      6  C   LIG    1        2.027   8.055  -0.815  0.00  0.00    +0.124 C 
ATOM      7  C   LIG    1        1.081   7.478   0.243  0.00  0.00    +0.127 C 
ATOM      8  O   LIG    1       -1.127   5.917  -0.064  0.00  0.00    -0.270 OA
ENDROOT
BRANCH   1  14
ATOM      9  C   LIG    1       -1.792   0.972  -1.704  0.00  0.00    +0.044 C 
ATOM     10  C   LIG    1       -0.877   1.748  -0.792  0.00  0.00    -0.050 A 
ATOM     11  C   LIG    1       -0.017   1.076   0.058  0.00  0.00    +0.003 A 
ATOM     12  C   LIG    1        0.829   1.781   0.895  0.00  0.00    +0.001 A 
ATOM     13  C   LIG    1        0.817   3.160   0.891  0.00  0.00    +0.013 A 
ATOM     14  C   LIG    1       -0.052   3.845   0.039  0.00  0.00    +0.037 A 
ATOM     15  C   LIG    1       -0.903   3.127  -0.802  0.00  0.00    +0.016 A 
ENDBRANCH   1  14
BRANCH   5  16
ATOM     16  C   LIG    1        4.282   8.038  -1.520  0.00  0.00    +0.031 A 
ATOM     17  C   LIG    1        3.897   9.096  -2.334  0.00  0.00    +0.023 A 
ATOM     18  C   LIG    1        4.824   9.705  -3.157  0.00  0.00    +0.003 A 
ATOM     19  C   LIG    1        6.132   9.255  -3.180  0.00  0.00    +0.020 A 
ATOM     20  C   LIG    1        6.517   8.198  -2.374  0.00  0.00    +0.043 A 
ATOM     21 CL   LIG    1        8.160   7.637  -2.406  0.00  0.00    -0.083 Cl
ATOM     22  C   LIG    1        5.595   7.588  -1.544  0.00  0.00    +0.043 A 
ENDBRANCH   5  16
TORSDOF 2
