REMARK  Name = ZINC00140722
REMARK                            x       y       z     vdW  Elec       q    Type
REMARK                         _______ _______ _______ _____ _____    ______ ____
ROOT
ATOM      1  C   LIG    1       -1.208  -2.373   2.610  0.00  0.00    +0.063 C 
ATOM      2  C   LIG    1       -0.029  -2.830   1.791  0.00  0.00    +0.017 A 
ATOM      3  C   LIG    1        0.846  -2.016   1.180  0.00  0.00    -0.021 A 
ATOM      4  C   LIG    1        1.829  -2.870   0.508  0.00  0.00    +0.006 A 
ATOM      5  C   LIG    1        2.961  -2.619  -0.271  0.00  0.00    +0.056 A 
ATOM      6  C   LIG    1        3.694  -3.676  -0.770  0.00  0.00    +0.121 A 
ATOM      7  C   LIG    1        3.309  -4.987  -0.500  0.00  0.00    +0.047 A 
ATOM      8  C   LIG    1        2.195  -5.247   0.266  0.00  0.00    +0.030 A 
ATOM      9  C   LIG    1        1.442  -4.195   0.778  0.00  0.00    +0.047 A 
ATOM     10  N   LIG    1        0.307  -4.136   1.559  0.00  0.00    -0.358 N 
ATOM     11  H   LIG    1       -0.179  -4.904   1.896  0.00  0.00    +0.166 HD
ENDROOT
BRANCH   6  12
ATOM     12  O   LIG    1        4.797  -3.437  -1.529  0.00  0.00    -0.495 OA
ATOM     13  C   LIG    1        5.510  -4.576  -2.014  0.00  0.00    +0.277 C 
ENDBRANCH   6  12
BRANCH   3  14
ATOM     14  C   LIG    1        0.826  -0.509   1.188  0.00  0.00    +0.018 C 
BRANCH  14  15
ATOM     15  C   LIG    1        0.002  -0.004   0.002  0.00  0.00    -0.082 C 
BRANCH  15  16
ATOM     16  N   LIG    1       -0.029   1.469   0.032  0.00  0.00    +0.378 N 
ATOM     17  H   LIG    1       -0.484   1.779   0.899  0.00  0.00    -0.090 HD
ATOM     18  H   LIG    1       -0.556   1.823  -0.764  0.00  0.00    -0.090 HD
ATOM     19  H   LIG    1        0.919   1.839   0.003  0.00  0.00    -0.090 HD
ENDBRANCH  15  16
ENDBRANCH  14  15
ENDBRANCH   3  14
TORSDOF 4
