REMARK  Name = ZINC00146104
REMARK                            x       y       z     vdW  Elec       q    Type
REMARK                         _______ _______ _______ _____ _____    ______ ____
ROOT
ATOM      1  C   LIG    1        3.666  -2.005  -0.043  0.00  0.00    +0.092 A 
ATOM      2  C   LIG    1        3.659  -0.622  -0.036  0.00  0.00    +0.029 A 
ATOM      3  C   LIG    1        2.414   0.054  -0.021  0.00  0.00    +0.018 A 
ATOM      4  C   LIG    1        2.375   1.458  -0.013  0.00  0.00    +0.015 A 
ATOM      5  C   LIG    1        1.175   2.104   0.002  0.00  0.00    +0.046 A 
ATOM      6  C   LIG    1       -0.017   1.381   0.010  0.00  0.00    +0.120 A 
ATOM      7  C   LIG    1        0.002  -0.004   0.002  0.00  0.00    +0.092 A 
ATOM      8  C   LIG    1        1.214  -0.681  -0.013  0.00  0.00    +0.143 A 
ATOM      9  O   LIG    1        1.230  -2.031  -0.020  0.00  0.00    -0.422 OA
ATOM     10  C   LIG    1        2.384  -2.718  -0.034  0.00  0.00    +0.347 A 
ATOM     11  O   LIG    1        2.367  -3.935  -0.040  0.00  0.00    -0.244 OA
ENDROOT
BRANCH   1  18
ATOM     12  C   LIG    1        8.015  -6.360  -0.104  0.00  0.00    +0.002 A 
ATOM     13  C   LIG    1        9.051  -5.436  -0.109  0.00  0.00    +0.001 A 
ATOM     14  C   LIG    1        8.756  -4.086  -0.099  0.00  0.00    +0.017 A 
ATOM     15  C   LIG    1        7.444  -3.682  -0.085  0.00  0.00    +0.040 A 
ATOM     16  C   LIG    1        6.365  -4.598  -0.080  0.00  0.00    +0.079 A 
ATOM     17  N   LIG    1        5.134  -4.051  -0.066  0.00  0.00    -0.239 NA
ATOM     18  C   LIG    1        4.938  -2.749  -0.058  0.00  0.00    +0.116 A 
ATOM     19  S   LIG    1        6.609  -2.114  -0.078  0.00  0.00    -0.067 S 
ATOM     20  C   LIG    1        6.712  -5.970  -0.090  0.00  0.00    +0.029 A 
ENDBRANCH   1  18
BRANCH   6  21
ATOM     21  O   LIG    1       -1.204   2.038   0.019  0.00  0.00    -0.507 OA
ATOM     22  H   LIG    1       -1.544   2.224   0.905  0.00  0.00    +0.292 HD
ENDBRANCH   6  21
TORSDOF 2
