REMARK  Name = ZINC00098417
REMARK                            x       y       z     vdW  Elec       q    Type
REMARK                         _______ _______ _______ _____ _____    ______ ____
ROOT
ATOM      1  N   LIG    1       -2.939   1.286   1.403  0.00  0.00    -0.328 N 
ATOM      2  H   LIG    1       -2.729   0.468   1.880  0.00  0.00    +0.148 HD
ENDROOT
BRANCH   1   3
ATOM      3  C   LIG    1       -3.674   2.296   2.036  0.00  0.00    +0.028 A 
ATOM      4  C   LIG    1       -3.969   3.470   1.356  0.00  0.00    +0.025 A 
ATOM      5  C   LIG    1       -4.696   4.465   1.979  0.00  0.00    +0.025 A 
ATOM      6  C   LIG    1       -5.125   4.295   3.289  0.00  0.00    +0.030 A 
ATOM      7  C   LIG    1       -4.824   3.123   3.971  0.00  0.00    +0.025 A 
ATOM      8  C   LIG    1       -4.101   2.127   3.347  0.00  0.00    +0.025 A 
BRANCH   6   9
ATOM      9  N   LIG    1       -5.859   5.305   3.922  0.00  0.00    -0.326 N 
ATOM     10  C   LIG    1       -7.146   4.792   4.412  0.00  0.00    +0.133 C 
ATOM     11  C   LIG    1       -7.888   5.911   5.148  0.00  0.00    +0.178 C 
ATOM     12  O   LIG    1       -8.049   7.028   4.269  0.00  0.00    -0.377 OA
ATOM     13  C   LIG    1       -6.815   7.553   3.773  0.00  0.00    +0.178 C 
ATOM     14  C   LIG    1       -6.062   6.451   3.024  0.00  0.00    +0.133 C 
ENDBRANCH   6   9
ENDBRANCH   1   3
BRANCH   1  15
ATOM     15  C   LIG    1       -2.489   1.465   0.021  0.00  0.00    +0.221 C 
BRANCH  15  22
ATOM     16  C   LIG    1        3.413   2.946  -0.015  0.00  0.00    +0.001 A 
ATOM     17  C   LIG    1        2.926   4.239  -0.003  0.00  0.00    +0.001 A 
ATOM     18  C   LIG    1        1.561   4.477   0.010  0.00  0.00    +0.014 A 
ATOM     19  C   LIG    1        0.678   3.409   0.013  0.00  0.00    +0.049 A 
ATOM     20  C   LIG    1        1.174   2.089   0.002  0.00  0.00    +0.049 A 
ATOM     21  C   LIG    1       -0.014   1.210   0.009  0.00  0.00    +0.255 C 
ATOM     22  N   LIG    1       -1.117   1.980   0.018  0.00  0.00    -0.218 N 
ATOM     23  O   LIG    1        0.002  -0.004   0.002  0.00  0.00    -0.269 OA
ATOM     24  C   LIG    1       -0.795   3.287   0.026  0.00  0.00    +0.255 C 
ATOM     25  O   LIG    1       -1.583   4.211   0.038  0.00  0.00    -0.269 OA
ATOM     26  C   LIG    1        2.542   1.867  -0.012  0.00  0.00    +0.014 A 
ENDBRANCH  15  22
ENDBRANCH   1  15
TORSDOF 4
