REMARK  Name = ZINC00172636
REMARK                            x       y       z     vdW  Elec       q    Type
REMARK                         _______ _______ _______ _____ _____    ______ ____
ROOT
ATOM      1  C   LIG    1       -1.465   5.718   0.846  0.00  0.00    +0.003 A 
ATOM      2  C   LIG    1       -2.605   4.969   0.784  0.00  0.00    +0.028 A 
ATOM      3  C   LIG    1       -2.523   3.588   0.570  0.00  0.00    +0.079 A 
ATOM      4  C   LIG    1       -1.253   2.983   0.404  0.00  0.00    +0.054 A 
ATOM      5  C   LIG    1       -1.197   1.588   0.183  0.00  0.00    +0.130 A 
ATOM      6  N   LIG    1       -2.335   0.909   0.151  0.00  0.00    -0.199 NA
ATOM      7  C   LIG    1       -3.508   1.514   0.317  0.00  0.00    +0.215 A 
ATOM      8  C   LIG    1       -0.093   3.777   0.458  0.00  0.00    +0.025 A 
ATOM      9  N   LIG    1       -3.618   2.813   0.521  0.00  0.00    -0.215 NA
ATOM     10  C   LIG    1       -0.215   5.138   0.679  0.00  0.00    +0.016 A 
ENDROOT
BRANCH   5  11
ATOM     11  N   LIG    1        0.013   0.949   0.009  0.00  0.00    -0.342 N 
ATOM     12  H   LIG    1        0.188   0.111   0.466  0.00  0.00    +0.144 HD
ATOM     13  H   LIG    1        0.689   1.338  -0.566  0.00  0.00    +0.144 HD
ENDBRANCH   5  11
BRANCH   7  14
ATOM     14  N   LIG    1       -4.660   0.750   0.274  0.00  0.00    -0.327 N 
ATOM     15  H   LIG    1       -5.526   1.171   0.392  0.00  0.00    +0.145 HD
ATOM     16  H   LIG    1       -4.602  -0.206   0.125  0.00  0.00    +0.145 HD
ENDBRANCH   7  14
BRANCH   8  17
ATOM     17  S   LIG    1        1.496   3.047   0.247  0.00  0.00    -0.089 S 
BRANCH  17  18
ATOM     18  C   LIG    1        2.618   4.370   0.557  0.00  0.00    +0.013 A 
ATOM     19  C   LIG    1        3.078   5.153  -0.495  0.00  0.00    +0.016 A 
ATOM     20  C   LIG    1        3.952   6.193  -0.248  0.00  0.00    +0.021 A 
ATOM     21  C   LIG    1        4.379   6.449   1.044  0.00  0.00    +0.041 A 
ATOM     22 CL   LIG    1        5.484   7.753   1.349  0.00  0.00    -0.084 Cl
ATOM     23  C   LIG    1        3.926   5.668   2.092  0.00  0.00    +0.021 A 
ATOM     24  C   LIG    1        3.047   4.630   1.853  0.00  0.00    +0.016 A 
ENDBRANCH  17  18
ENDBRANCH   8  17
TORSDOF 4
