REMARK  Name = ZINC00346600
REMARK                            x       y       z     vdW  Elec       q    Type
REMARK                         _______ _______ _______ _____ _____    ______ ____
ROOT
ATOM      1  N   LIG    1       -1.116   1.972   0.018  0.00  0.00    -0.242 N 
ATOM      2  C   LIG    1       -0.877   3.290   0.027  0.00  0.00    +0.223 C 
ATOM      3  C   LIG    1        0.620   3.523   0.014  0.00  0.00    +0.112 C 
ATOM      4  C   LIG    1        1.201   2.101   0.002  0.00  0.00    +0.052 C 
ATOM      5  C   LIG    1        2.027   1.876  -1.260  0.00  0.00    -0.002 C 
ATOM      6  C   LIG    1        2.623   0.466  -1.232  0.00  0.00    -0.078 C 
ATOM      7  N   LIG    1        3.471   0.329  -0.028  0.00  0.00    +0.378 N 
ATOM      8  H   LIG    1        4.176   1.076  -0.031  0.00  0.00    -0.082 HD
ATOM      9  C   LIG    1        4.159  -0.978  -0.041  0.00  0.00    -0.096 C 
ATOM     10  C   LIG    1        2.646   0.454   1.193  0.00  0.00    -0.078 C 
ATOM     11  C   LIG    1        2.050   1.864   1.246  0.00  0.00    -0.002 C 
ATOM     12  O   LIG    1       -1.723   4.157   0.039  0.00  0.00    -0.275 OA
ATOM     13  C   LIG    1       -0.014   1.208   0.009  0.00  0.00    +0.228 C 
ATOM     14  O   LIG    1        0.002  -0.004   0.002  0.00  0.00    -0.275 OA
ENDROOT
BRANCH   1  16
ATOM     15  C   LIG    1       -2.934   1.209   1.464  0.00  0.00    +0.025 C 
ATOM     16  C   LIG    1       -2.470   1.411   0.021  0.00  0.00    +0.113 C 
ENDBRANCH   1  16
TORSDOF 1
