REMARK  Name = ZINC00331704
REMARK                            x       y       z     vdW  Elec       q    Type
REMARK                         _______ _______ _______ _____ _____    ______ ____
ROOT
ATOM      1  C   LIG    1       -0.056   4.237   0.025  0.00  0.00    +0.000 A 
ATOM      2  C   LIG    1        1.154   3.565   0.010  0.00  0.00    +0.001 A 
ATOM      3  C   LIG    1        1.181   2.187   0.003  0.00  0.00    +0.011 A 
ATOM      4  C   LIG    1       -0.018   1.467   0.010  0.00  0.00    +0.018 A 
ATOM      5  C   LIG    1       -1.236   2.154   0.020  0.00  0.00    +0.011 A 
ATOM      6  C   LIG    1       -1.247   3.533   0.032  0.00  0.00    +0.001 A 
ENDROOT
BRANCH   4   7
ATOM      7  C   LIG    1        0.002  -0.004   0.002  0.00  0.00    +0.173 C 
ATOM      8  O   LIG    1        1.060  -0.596  -0.011  0.00  0.00    -0.291 OA
BRANCH   7   9
ATOM      9  C   LIG    1       -1.293  -0.775   0.010  0.00  0.00    +0.159 C 
ATOM     10 BR   LIG    1       -0.907  -2.703  -0.004  0.00  0.00    -0.083 Br
ENDBRANCH   7   9
ENDBRANCH   4   7
TORSDOF 2
