REMARK  Name = ZINC00315577
REMARK                            x       y       z     vdW  Elec       q    Type
REMARK                         _______ _______ _______ _____ _____    ______ ____
ROOT
ATOM      1  C   LIG    1       -0.019   1.526   0.010  0.00  0.00    +0.018 C 
ATOM      2  C   LIG    1        0.002  -0.004   0.002  0.00  0.00    +0.068 C 
ATOM      3  C   LIG    1       -1.409  -0.521   0.005  0.00  0.00    +0.094 C 
ATOM      4  C   LIG    1       -1.966  -0.995   1.146  0.00  0.00    +0.198 C 
ATOM      5  O   LIG    1       -1.276  -1.013   2.299  0.00  0.00    -0.445 OA
ATOM      6  C   LIG    1        0.070  -0.968   2.288  0.00  0.00    +0.115 C 
ATOM      7  C   LIG    1        0.807  -1.451   3.514  0.00  0.00    +0.083 C 
ATOM      8  C   LIG    1        2.151  -2.040   3.108  0.00  0.00    +0.034 C 
ATOM      9  C   LIG    1        2.952  -0.956   2.379  0.00  0.00    +0.088 C 
ATOM     10  C   LIG    1        2.147  -0.461   1.208  0.00  0.00    +0.164 C 
ATOM     11  O   LIG    1        2.722  -0.018   0.234  0.00  0.00    -0.292 OA
ATOM     12  C   LIG    1        0.740  -0.501   1.222  0.00  0.00    +0.041 C 
ENDROOT
BRANCH   8  13
ATOM     13  C   LIG    1        2.904  -2.487   4.335  0.00  0.00    -0.043 A 
ATOM     14  C   LIG    1        3.204  -1.577   5.331  0.00  0.00    +0.004 A 
ATOM     15  C   LIG    1        3.895  -1.987   6.456  0.00  0.00    +0.000 A 
ATOM     16  C   LIG    1        4.284  -3.307   6.585  0.00  0.00    +0.000 A 
ATOM     17  C   LIG    1        3.983  -4.217   5.590  0.00  0.00    +0.000 A 
ATOM     18  C   LIG    1        3.289  -3.808   4.466  0.00  0.00    +0.004 A 
ENDBRANCH   8  13
BRANCH   4  19
ATOM     19  N   LIG    1       -3.256  -1.464   1.124  0.00  0.00    -0.328 N 
ATOM     20  H   LIG    1       -3.662  -1.805   1.936  0.00  0.00    +0.145 HD
ATOM     21  H   LIG    1       -3.761  -1.455   0.296  0.00  0.00    +0.145 HD
ENDBRANCH   4  19
BRANCH   3  22
ATOM     22  C   LIG    1       -2.171  -0.512  -1.207  0.00  0.00    +0.100 C 
ATOM     23  N   LIG    1       -2.776  -0.505  -2.169  0.00  0.00    -0.191 NA
ENDBRANCH   3  22
TORSDOF 3
