REMARK  Name = ZINC00238077
REMARK                            x       y       z     vdW  Elec       q    Type
REMARK                         _______ _______ _______ _____ _____    ______ ____
ROOT
ATOM      1  C   LIG    1       -0.423   8.530   0.975  0.00  0.00    +0.033 A 
ATOM      2  C   LIG    1        0.319   7.367   0.970  0.00  0.00    +0.015 A 
ATOM      3  C   LIG    1        0.037   6.366   0.038  0.00  0.00    +0.036 A 
ATOM      4  C   LIG    1       -1.004   6.547  -0.878  0.00  0.00    +0.054 A 
ATOM      5 CL   LIG    1       -1.369   5.306  -2.036  0.00  0.00    -0.083 Cl
ATOM      6  C   LIG    1       -1.741   7.714  -0.857  0.00  0.00    +0.053 A 
ATOM      7  C   LIG    1       -1.452   8.703   0.066  0.00  0.00    +0.123 A 
ENDROOT
BRANCH   3   8
ATOM      8  C   LIG    1        0.831   5.121   0.023  0.00  0.00    +0.137 A 
ATOM      9  C   LIG    1        2.195   5.047   0.009  0.00  0.00    +0.051 A 
ATOM     10  C   LIG    1        2.532   3.690   0.003  0.00  0.00    +0.057 A 
ATOM     11  C   LIG    1        1.347   2.985   0.005  0.00  0.00    +0.212 A 
ATOM     12  O   LIG    1        0.331   3.874   0.020  0.00  0.00    -0.448 OA
BRANCH  11  13
ATOM     13  C   LIG    1        1.214   1.528  -0.001  0.00  0.00    +0.372 C 
ATOM     14  O   LIG    1        2.208   0.827  -0.015  0.00  0.00    -0.242 OA
BRANCH  13  15
ATOM     15  O   LIG    1       -0.011   0.963   0.007  0.00  0.00    -0.475 OA
ATOM     16  H   LIG    1       -0.776   1.503   0.018  0.00  0.00    +0.296 HD
ENDBRANCH  13  15
ENDBRANCH  11  13
ENDBRANCH   3   8
BRANCH   7  17
ATOM     17  N   LIG    1       -2.247   9.951   0.082  0.00  0.00    +0.006 N 
ATOM     18  O   LIG    1       -3.153  10.106  -0.717  0.00  0.00    -0.130 OA
BRANCH  17  19
ATOM     19  O   LIG    1       -1.994  10.824   0.893  0.00  0.00    -0.396 OA
ATOM     20  H   LIG    1       -1.297  10.705   1.507  0.00  0.00    +0.329 HD
ENDBRANCH  17  19
ENDBRANCH   7  17
TORSDOF 5
