REMARK  Name = ZINC00315578
REMARK                            x       y       z     vdW  Elec       q    Type
REMARK                         _______ _______ _______ _____ _____    ______ ____
ROOT
ATOM      1  C   LIG    1       -0.019   1.526   0.010  0.00  0.00    +0.018 C 
ATOM      2  C   LIG    1        0.002  -0.004   0.002  0.00  0.00    +0.068 C 
ATOM      3  C   LIG    1        0.699  -0.485  -1.239  0.00  0.00    +0.094 C 
ATOM      4  C   LIG    1        1.979  -0.929  -1.181  0.00  0.00    +0.198 C 
ATOM      5  O   LIG    1        2.655  -0.947  -0.021  0.00  0.00    -0.445 OA
ATOM      6  C   LIG    1        1.994  -0.935   1.153  0.00  0.00    +0.115 C 
ATOM      7  C   LIG    1        2.723  -1.419   2.384  0.00  0.00    +0.083 C 
ATOM      8  C   LIG    1        1.733  -2.047   3.355  0.00  0.00    +0.034 C 
ATOM      9  C   LIG    1        0.681  -0.994   3.719  0.00  0.00    +0.088 C 
ATOM     10  C   LIG    1        0.033  -0.496   2.456  0.00  0.00    +0.164 C 
ATOM     11  O   LIG    1       -1.109  -0.084   2.494  0.00  0.00    -0.292 OA
ATOM     12  C   LIG    1        0.726  -0.501   1.230  0.00  0.00    +0.041 C 
ENDROOT
BRANCH   8  13
ATOM     13  C   LIG    1        2.454  -2.494   4.600  0.00  0.00    -0.043 A 
ATOM     14  C   LIG    1        3.149  -1.576   5.364  0.00  0.00    +0.004 A 
ATOM     15  C   LIG    1        3.810  -1.986   6.507  0.00  0.00    +0.000 A 
ATOM     16  C   LIG    1        3.777  -3.315   6.885  0.00  0.00    +0.000 A 
ATOM     17  C   LIG    1        3.081  -4.234   6.121  0.00  0.00    +0.000 A 
ATOM     18  C   LIG    1        2.416  -3.823   4.981  0.00  0.00    +0.004 A 
ENDBRANCH   8  13
BRANCH   4  19
ATOM     19  N   LIG    1        2.594  -1.366  -2.328  0.00  0.00    -0.328 N 
ATOM     20  H   LIG    1        3.510  -1.685  -2.296  0.00  0.00    +0.145 HD
ATOM     21  H   LIG    1        2.113  -1.356  -3.171  0.00  0.00    +0.145 HD
ENDBRANCH   4  19
BRANCH   3  22
ATOM     22  C   LIG    1        0.006  -0.475  -2.493  0.00  0.00    +0.100 C 
ATOM     23  N   LIG    1       -0.543  -0.468  -3.487  0.00  0.00    -0.191 NA
ENDBRANCH   3  22
TORSDOF 3
