REMARK  Name = ZINC00332634
REMARK                            x       y       z     vdW  Elec       q    Type
REMARK                         _______ _______ _______ _____ _____    ______ ____
ROOT
ATOM      1  C   LIG    1        4.035   2.010  -0.853  0.00  0.00    +0.000 C 
ATOM      2  C   LIG    1        3.675   1.633   0.585  0.00  0.00    +0.002 C 
ATOM      3  C   LIG    1        2.361   0.850   0.594  0.00  0.00    +0.022 C 
ATOM      4  C   LIG    1        1.248   1.716  -0.001  0.00  0.00    +0.073 C 
ATOM      5  C   LIG    1        1.608   2.092  -1.439  0.00  0.00    +0.022 C 
ATOM      6  C   LIG    1        2.922   2.875  -1.448  0.00  0.00    +0.002 C 
ENDROOT
BRANCH   4   7
ATOM      7  N   LIG    1       -0.011   0.966   0.007  0.00  0.00    -0.315 N 
ATOM      8  H   LIG    1        0.002  -0.004   0.002  0.00  0.00    +0.149 HD
ATOM      9  C   LIG    1       -1.187   1.624   0.017  0.00  0.00    +0.325 C 
ATOM     10  O   LIG    1       -1.204   2.837   0.023  0.00  0.00    -0.280 OA
ENDBRANCH   4   7
TORSDOF 1
