REMARK  Name = ZINC00103151
REMARK                            x       y       z     vdW  Elec       q    Type
REMARK                         _______ _______ _______ _____ _____    ______ ____
ROOT
ATOM      1  C   LIG    1       -1.697   5.926  -0.262  0.00  0.00    +0.250 C 
ATOM      2  N   LIG    1       -0.677   5.090  -0.540  0.00  0.00    -0.281 N 
ATOM      3  H   LIG    1        0.218   5.442  -0.666  0.00  0.00    +0.155 HD
ATOM      4  O   LIG    1       -2.799   5.477  -0.011  0.00  0.00    -0.270 OA
ENDROOT
BRANCH   2   5
ATOM      5  C   LIG    1       -0.909   3.715  -0.648  0.00  0.00    +0.036 A 
ATOM      6  C   LIG    1       -2.113   3.251  -1.160  0.00  0.00    +0.043 A 
ATOM      7  C   LIG    1       -2.340   1.891  -1.265  0.00  0.00    +0.044 A 
ATOM      8 CL   LIG    1       -3.846   1.310  -1.904  0.00  0.00    -0.083 Cl
ATOM      9  C   LIG    1       -1.368   0.993  -0.860  0.00  0.00    +0.040 A 
ATOM     10  C   LIG    1       -0.169   1.453  -0.344  0.00  0.00    +0.044 A 
ATOM     11 CL   LIG    1        1.045   0.323   0.169  0.00  0.00    -0.083 Cl
ATOM     12  C   LIG    1        0.065   2.812  -0.242  0.00  0.00    +0.043 A 
ENDBRANCH   2   5
BRANCH   1  17
ATOM     13  C   LIG    1       -0.735   9.380  -1.379  0.00  0.00    +0.001 A 
ATOM     14  C   LIG    1       -1.063  10.126  -0.261  0.00  0.00    +0.002 A 
ATOM     15  C   LIG    1       -1.596   9.509   0.857  0.00  0.00    +0.033 A 
ATOM     16  C   LIG    1       -1.805   8.145   0.864  0.00  0.00    +0.134 A 
ATOM     17  C   LIG    1       -1.476   7.387  -0.261  0.00  0.00    +0.067 A 
ATOM     18  C   LIG    1       -0.933   8.015  -1.384  0.00  0.00    +0.015 A 
BRANCH  16  19
ATOM     19  N   LIG    1       -2.375   7.488   2.061  0.00  0.00    +0.007 N 
ATOM     20  O   LIG    1       -2.771   8.161   2.995  0.00  0.00    -0.130 OA
BRANCH  19  21
ATOM     21  O   LIG    1       -2.449   6.273   2.111  0.00  0.00    -0.396 OA
ATOM     22  H   LIG    1       -2.144   5.755   1.392  0.00  0.00    +0.329 HD
ENDBRANCH  19  21
ENDBRANCH  16  19
ENDBRANCH   1  17
TORSDOF 4
