REMARK  Name = ZINC00257247
REMARK                            x       y       z     vdW  Elec       q    Type
REMARK                         _______ _______ _______ _____ _____    ______ ____
ROOT
ATOM      1  C   LIG    1        3.676   2.041  -0.004  0.00  0.00    +0.098 A 
ATOM      2  C   LIG    1        4.847   1.336  -0.018  0.00  0.00    +0.078 A 
ATOM      3  S   LIG    1        6.038   2.669  -0.031  0.00  0.00    -0.060 S 
ATOM      4  C   LIG    1        4.867   4.019  -0.016  0.00  0.00    +0.164 A 
ATOM      5  N   LIG    1        3.717   3.371  -0.009  0.00  0.00    -0.223 NA
ENDROOT
BRANCH   1  10
ATOM      6  C   LIG    1       -0.018   1.387   0.038  0.00  0.00    +0.004 A 
ATOM      7  C   LIG    1        0.000  -0.002   0.036  0.00  0.00    +0.020 A 
ATOM      8  C   LIG    1        1.213  -0.664   0.022  0.00  0.00    +0.111 A 
ATOM      9  N   LIG    1        2.349   0.004   0.009  0.00  0.00    -0.253 NA
ATOM     10  C   LIG    1        2.375   1.331   0.010  0.00  0.00    +0.090 A 
ATOM     11  C   LIG    1        1.188   2.063   0.025  0.00  0.00    +0.030 A 
ENDBRANCH   1  10
BRANCH   4  12
ATOM     12  N   LIG    1        5.103   5.385  -0.018  0.00  0.00    -0.279 N 
ATOM     13  H   LIG    1        4.361   6.006  -0.085  0.00  0.00    +0.155 HD
BRANCH  12  14
ATOM     14  C   LIG    1        6.406   5.866   0.078  0.00  0.00    +0.124 A 
ATOM     15  C   LIG    1        6.629   7.235   0.188  0.00  0.00    +0.044 A 
ATOM     16  C   LIG    1        7.928   7.698   0.287  0.00  0.00    +0.005 A 
ATOM     17  C   LIG    1        8.965   6.775   0.263  0.00  0.00    +0.020 A 
ATOM     18  C   LIG    1        8.671   5.431   0.146  0.00  0.00    +0.113 A 
ATOM     19  N   LIG    1        7.421   5.017   0.058  0.00  0.00    -0.240 NA
ENDBRANCH  12  14
ENDBRANCH   4  12
TORSDOF 3
