REMARK  Name = ZINC00105246
REMARK                            x       y       z     vdW  Elec       q    Type
REMARK                         _______ _______ _______ _____ _____    ______ ____
ROOT
ATOM      1  C   LIG    1       -0.017   1.381   0.010  0.00  0.00    +0.005 A 
ATOM      2  C   LIG    1        1.191   2.060   0.002  0.00  0.00    +0.035 A 
ATOM      3  CA  LIG    1        2.384   1.332  -0.014  0.00  0.00    +0.148 A 
ATOM      4  N   LIG    1        2.367   0.008  -0.021  0.00  0.00    -0.234 NA
ATOM      5  CA  LIG    1        1.231  -0.670  -0.013  0.00  0.00    +0.148 A 
ATOM      6  C   LIG    1        0.002  -0.004   0.002  0.00  0.00    +0.035 A 
ENDROOT
BRANCH   3   7
ATOM      7  C   LIG    1        3.679   2.048  -0.023  0.00  0.00    +0.355 C 
ATOM      8  O   LIG    1        3.702   3.270  -0.017  0.00  0.00    -0.243 OA
BRANCH   7   9
ATOM      9  OXT LIG    1        4.726   1.417  -0.036  0.00  0.00    -0.476 OA
ATOM     10  HXT LIG    1        4.709   0.480  -0.041  0.00  0.00    +0.295 HD
ENDBRANCH   7   9
ENDBRANCH   3   7
BRANCH   5  11
ATOM     11  C   LIG    1        1.261  -2.150  -0.022  0.00  0.00    +0.355 C 
ATOM     12  O   LIG    1        2.332  -2.739  -0.036  0.00  0.00    -0.243 OA
BRANCH  11  13
ATOM     13  OXT LIG    1        0.216  -2.783  -0.015  0.00  0.00    -0.476 OA
ATOM     14  HXT LIG    1       -0.605  -2.332  -0.005  0.00  0.00    +0.295 HD
ENDBRANCH  11  13
ENDBRANCH   5  11
TORSDOF 4
