REMARK  Name = ZINC00077360
REMARK                            x       y       z     vdW  Elec       q    Type
REMARK                         _______ _______ _______ _____ _____    ______ ____
ROOT
ATOM      1  C   LIG    1       -1.201  -0.638   0.010  0.00  0.00    +0.122 A 
ATOM      2  C   LIG    1       -2.375   0.111   0.020  0.00  0.00    +0.046 A 
ATOM      3  C   LIG    1       -3.592  -0.510   0.028  0.00  0.00    +0.014 A 
ATOM      4  C   LIG    1       -3.660  -1.905   0.027  0.00  0.00    +0.003 A 
ATOM      5  C   LIG    1       -2.478  -2.667   0.017  0.00  0.00    +0.050 A 
ATOM      6  N   LIG    1       -2.850  -3.993   0.018  0.00  0.00    -0.360 N 
ATOM      7  C   LIG    1       -4.216  -4.094   0.028  0.00  0.00    +0.087 A 
ATOM      8  H   LIG    1       -2.236  -4.744   0.012  0.00  0.00    +0.165 HD
ATOM      9  C   LIG    1       -4.764  -2.869   0.034  0.00  0.00    -0.024 A 
ATOM     10  C   LIG    1       -1.248  -2.019   0.003  0.00  0.00    +0.071 A 
ENDROOT
BRANCH   1  12
ATOM     11  C   LIG    1       -0.017   1.425   0.010  0.00  0.00    +0.277 C 
ATOM     12  O   LIG    1        0.002  -0.004   0.002  0.00  0.00    -0.495 OA
ENDBRANCH   1  12
BRANCH   9  13
ATOM     13  C   LIG    1       -6.236  -2.546   0.046  0.00  0.00    +0.018 C 
BRANCH  13  14
ATOM     14  C   LIG    1       -6.719  -2.311  -1.386  0.00  0.00    -0.082 C 
BRANCH  14  15
ATOM     15  N   LIG    1       -8.153  -1.996  -1.374  0.00  0.00    +0.378 N 
ATOM     16  H   LIG    1       -8.472  -1.842  -2.319  0.00  0.00    -0.090 HD
ATOM     17  H   LIG    1       -8.311  -1.164  -0.826  0.00  0.00    -0.090 HD
ATOM     18  H   LIG    1       -8.664  -2.767  -0.970  0.00  0.00    -0.090 HD
ENDBRANCH  14  15
ENDBRANCH  13  14
ENDBRANCH   9  13
TORSDOF 4
