REMARK  Name = ZINC00282205
REMARK                            x       y       z     vdW  Elec       q    Type
REMARK                         _______ _______ _______ _____ _____    ______ ____
ROOT
ATOM      1  C   LIG    1        0.083  -2.913   7.297  0.00  0.00    +0.179 C 
ATOM      2  O   LIG    1        0.117  -4.132   7.290  0.00  0.00    -0.288 OA
ENDROOT
BRANCH   1   4
ATOM      3  C   LIG    1        0.047  -2.844   4.860  0.00  0.00    +0.011 C 
ATOM      4  C   LIG    1        0.045  -2.175   6.034  0.00  0.00    +0.051 C 
BRANCH   3   8
ATOM      5  C   LIG    1       -0.064  -0.707   1.204  0.00  0.00    +0.029 A 
ATOM      6  C   LIG    1       -0.025  -2.099   1.193  0.00  0.00    +0.023 A 
ATOM      7  C   LIG    1        0.011  -2.794   2.374  0.00  0.00    +0.010 A 
ATOM      8  C   LIG    1        0.009  -2.103   3.592  0.00  0.00    -0.025 A 
ATOM      9  C   LIG    1       -0.030  -0.703   3.598  0.00  0.00    +0.010 A 
ATOM     10  C   LIG    1       -0.061  -0.015   2.412  0.00  0.00    +0.023 A 
BRANCH   5  12
ATOM     11  C   LIG    1       -0.136   1.459   0.011  0.00  0.00    +0.129 C 
ATOM     12  N   LIG    1       -0.101  -0.005   0.003  0.00  0.00    -0.336 N 
ATOM     13  C   LIG    1       -0.104  -0.731  -1.270  0.00  0.00    +0.129 C 
ENDBRANCH   5  12
ENDBRANCH   3   8
ENDBRANCH   1   4
BRANCH   1  14
ATOM     14  C   LIG    1        0.080  -2.188   8.568  0.00  0.00    +0.051 C 
ATOM     15  C   LIG    1        0.116  -2.870   9.734  0.00  0.00    +0.011 C 
BRANCH  15  16
ATOM     16  C   LIG    1        0.113  -2.143  11.010  0.00  0.00    -0.025 A 
ATOM     17  C   LIG    1        0.068  -0.743  11.021  0.00  0.00    +0.010 A 
ATOM     18  C   LIG    1        0.066  -0.068  12.214  0.00  0.00    +0.023 A 
ATOM     19  C   LIG    1        0.108  -0.772  13.415  0.00  0.00    +0.029 A 
ATOM     20  C   LIG    1        0.154  -2.164  13.409  0.00  0.00    +0.023 A 
ATOM     21  C   LIG    1        0.149  -2.847  12.220  0.00  0.00    +0.010 A 
BRANCH  19  22
ATOM     22  N   LIG    1        0.106  -0.083  14.623  0.00  0.00    -0.336 N 
ATOM     23  C   LIG    1        0.024  -0.821  15.886  0.00  0.00    +0.129 C 
ATOM     24  C   LIG    1        0.187   1.380  14.633  0.00  0.00    +0.129 C 
ENDBRANCH  19  22
ENDBRANCH  15  16
ENDBRANCH   1  14
TORSDOF 6
