REMARK  Name = ZINC00171669
REMARK                            x       y       z     vdW  Elec       q    Type
REMARK                         _______ _______ _______ _____ _____    ______ ____
ROOT
ATOM      1  C   LIG    1        4.902  -4.293  -0.412  0.00  0.00    +0.162 A 
ATOM      2  C   LIG    1        3.692  -4.922  -0.677  0.00  0.00    +0.053 A 
ATOM      3  C   LIG    1        2.514  -4.223  -0.546  0.00  0.00    -0.033 A 
ATOM      4  C   LIG    1        2.534  -2.883  -0.155  0.00  0.00    +0.007 A 
ATOM      5  C   LIG    1        1.248  -2.163  -0.021  0.00  0.00    +0.073 C 
ATOM      6  N   LIG    1        0.140  -2.839   0.085  0.00  0.00    -0.282 NA
ATOM      7  C   LIG    1        0.124  -4.298   0.108  0.00  0.00    +0.147 C 
ATOM      8  C   LIG    1        3.746  -2.251   0.117  0.00  0.00    +0.059 A 
ATOM      9  C   LIG    1        1.186  -4.877  -0.826  0.00  0.00    +0.059 C 
ATOM     10  C   LIG    1        4.928  -2.958  -0.015  0.00  0.00    +0.162 A 
ENDROOT
BRANCH   5  11
ATOM     11  C   LIG    1        1.221  -0.682  -0.013  0.00  0.00    +0.002 A 
ATOM     12  C   LIG    1        2.170   0.040  -0.738  0.00  0.00    +0.010 A 
ATOM     13  C   LIG    1        2.140   1.419  -0.727  0.00  0.00    +0.002 A 
ATOM     14  C   LIG    1        1.172   2.088   0.001  0.00  0.00    +0.020 A 
ATOM     15  C   LIG    1        0.227   1.378   0.722  0.00  0.00    +0.042 A 
ATOM     16 CL   LIG    1       -0.989   2.225   1.627  0.00  0.00    -0.084 Cl
ATOM     17  C   LIG    1        0.247  -0.003   0.719  0.00  0.00    +0.030 A 
ENDBRANCH   5  11
BRANCH   1  19
ATOM     18  C   LIG    1        5.968  -6.348  -0.953  0.00  0.00    +0.277 C 
ATOM     19  O   LIG    1        6.066  -4.983  -0.542  0.00  0.00    -0.491 OA
ENDBRANCH   1  19
BRANCH  10  20
ATOM     20  O   LIG    1        6.116  -2.348   0.243  0.00  0.00    -0.491 OA
ATOM     21  C   LIG    1        6.069  -0.978   0.645  0.00  0.00    +0.277 C 
ENDBRANCH  10  20
TORSDOF 3
