REMARK  Name = ZINC00077527
REMARK                            x       y       z     vdW  Elec       q    Type
REMARK                         _______ _______ _______ _____ _____    ______ ____
ROOT
ATOM      1  CA  PHE A  1       -3.011   4.124  -1.392  0.00  0.00    +0.186 C 
ENDROOT
BRANCH   1   2
ATOM      2  N   PHE A  1       -2.068   5.031  -2.051  0.00  0.00    -0.298 N 
ATOM      3  H   PHE A  1       -1.531   5.641  -1.522  0.00  0.00    +0.150 HD
ATOM      4  C   UNK A  0       -1.946   5.017  -3.393  0.00  0.00    +0.246 C 
ATOM      5  O   UNK A  0       -2.619   4.252  -4.057  0.00  0.00    -0.270 OA
BRANCH   4   6
ATOM      6  C   UNK A  0       -0.995   5.931  -4.058  0.00  0.00    +0.051 A 
ATOM      7  C   UNK A  0       -0.224   6.815  -3.300  0.00  0.00    +0.014 A 
ATOM      8  C   UNK A  0        0.665   7.662  -3.926  0.00  0.00    +0.001 A 
ATOM      9  C   UNK A  0        0.788   7.646  -5.305  0.00  0.00    +0.001 A 
ATOM     10  C   UNK A  0        0.025   6.777  -6.064  0.00  0.00    +0.016 A 
ATOM     11  C   UNK A  0       -0.866   5.920  -5.449  0.00  0.00    +0.030 A 
ATOM     12 BR   UNK A  0       -1.909   4.733  -6.488  0.00  0.00    -0.050 Br
ENDBRANCH   4   6
ENDBRANCH   1   2
BRANCH   1  13
ATOM     13  C   PHE A  1       -4.382   4.749  -1.378  0.00  0.00    +0.326 C 
ATOM     14  O   PHE A  1       -4.554   5.840  -1.869  0.00  0.00    -0.249 OA
BRANCH  13  15
ATOM     15  OXT PHE A  1       -5.413   4.095  -0.821  0.00  0.00    -0.479 OA
ATOM     16  HXT PHE A  1       -5.280   3.249  -0.440  0.00  0.00    +0.295 HD
ENDBRANCH  13  15
ENDBRANCH   1  13
BRANCH   1  17
ATOM     17  CB  PHE A  1       -2.553   3.869   0.045  0.00  0.00    +0.069 C 
BRANCH  17  21
ATOM     18  CZ  PHE A  1        1.175   1.783   0.000  0.00  0.00    +0.000 A 
ATOM     19  CE1 PHE A  1       -0.013   1.076   0.008  0.00  0.00    +0.000 A 
ATOM     20  CD1 PHE A  1       -1.219   1.751   0.017  0.00  0.00    +0.004 A 
ATOM     21  CG  PHE A  1       -1.238   3.133   0.030  0.00  0.00    -0.045 A 
ATOM     22  CD2 PHE A  1       -0.050   3.840   0.022  0.00  0.00    +0.004 A 
ATOM     23  CE2 PHE A  1        1.156   3.165   0.008  0.00  0.00    +0.000 A 
ENDBRANCH  17  21
ENDBRANCH   1  17
TORSDOF 6
