REMARK  Name = ZINC00150351
REMARK                            x       y       z     vdW  Elec       q    Type
REMARK                         _______ _______ _______ _____ _____    ______ ____
ROOT
ATOM      1  C   LIG    1       -2.388   0.159   0.130  0.00  0.00    +0.247 C 
ATOM      2  N   LIG    1       -3.575  -0.453   0.316  0.00  0.00    -0.303 N 
ATOM      3  H   LIG    1       -3.615  -1.418   0.404  0.00  0.00    +0.150 HD
ATOM      4  O   LIG    1       -2.339   1.369   0.020  0.00  0.00    -0.270 OA
ENDROOT
BRANCH   1   9
ATOM      5  C   LIG    1        0.344  -2.256   1.028  0.00  0.00    +0.001 A 
ATOM      6  C   LIG    1        1.177  -2.141  -0.071  0.00  0.00    +0.002 A 
ATOM      7  C   LIG    1        0.851  -1.283  -1.107  0.00  0.00    +0.033 A 
ATOM      8  C   LIG    1       -0.303  -0.529  -1.045  0.00  0.00    +0.134 A 
ATOM      9  C   LIG    1       -1.147  -0.641   0.060  0.00  0.00    +0.067 A 
ATOM     10  C   LIG    1       -0.815  -1.512   1.099  0.00  0.00    +0.015 A 
BRANCH   8  11
ATOM     11  N   LIG    1       -0.647   0.391  -2.152  0.00  0.00    +0.007 N 
ATOM     12  O   LIG    1        0.143   0.574  -3.060  0.00  0.00    -0.130 OA
BRANCH  11  13
ATOM     13  O   LIG    1       -1.723   0.962  -2.156  0.00  0.00    -0.396 OA
ATOM     14  H   LIG    1       -2.331   0.822  -1.457  0.00  0.00    +0.329 HD
ENDBRANCH  11  13
ENDBRANCH   8  11
ENDBRANCH   1   9
BRANCH   2  15
ATOM     15  C   LIG    1       -4.805   0.340   0.385  0.00  0.00    +0.201 C 
BRANCH  15  16
ATOM     16  C   LIG    1       -5.982  -0.576   0.597  0.00  0.00    +0.243 C 
ATOM     17  N   LIG    1       -7.226  -0.065   0.692  0.00  0.00    -0.252 N 
ATOM     18  H   LIG    1       -7.363   0.893   0.624  0.00  0.00    +0.169 HD
ATOM     19  O   LIG    1       -5.811  -1.774   0.681  0.00  0.00    -0.273 OA
BRANCH  17  20
ATOM     20  N   LIG    1       -8.293  -0.896   0.883  0.00  0.00    -0.254 NA
ATOM     21  H   LIG    1       -8.339  -1.598   0.160  0.00  0.00    +0.140 HD
ATOM     22  H   LIG    1       -9.154  -0.372   0.935  0.00  0.00    +0.140 HD
ENDBRANCH  17  20
ENDBRANCH  15  16
ENDBRANCH   2  15
TORSDOF 6
