REMARK  Name = ZINC00204903
REMARK                            x       y       z     vdW  Elec       q    Type
REMARK                         _______ _______ _______ _____ _____    ______ ____
ROOT
ATOM      1  C   LIG    1       -0.018   1.461   0.010  0.00  0.00    +0.151 C 
ATOM      2  N   LIG    1        0.002  -0.004   0.002  0.00  0.00    -0.325 N 
ATOM      3  C   LIG    1        0.008  -0.817  -1.113  0.00  0.00    +0.069 A 
ATOM      4  C   LIG    1       -0.002  -0.578  -2.481  0.00  0.00    +0.028 A 
ATOM      5  C   LIG    1        0.008  -1.639  -3.361  0.00  0.00    +0.002 A 
ATOM      6  C   LIG    1        0.028  -2.944  -2.889  0.00  0.00    +0.002 A 
ATOM      7  C   LIG    1        0.037  -3.200  -1.547  0.00  0.00    +0.030 A 
ATOM      8  C   LIG    1        0.028  -2.140  -0.635  0.00  0.00    +0.090 A 
ATOM      9  N   LIG    1        0.033  -2.075   0.718  0.00  0.00    -0.226 NA
ATOM     10  C   LIG    1        0.024  -0.822   1.099  0.00  0.00    +0.167 A 
ENDROOT
BRANCH  10  11
ATOM     11  C   LIG    1        0.032  -0.360   2.505  0.00  0.00    +0.190 A 
ATOM     12  C   LIG    1        0.061  -1.222   3.694  0.00  0.00    +0.191 A 
ATOM     13  N   LIG    1        0.060  -0.460   4.752  0.00  0.00    -0.033 NA
ATOM     14  O   LIG    1        0.031   0.889   4.319  0.00  0.00    -0.240 OA
ATOM     15  N   LIG    1        0.019   0.886   2.903  0.00  0.00    -0.044 NA
BRANCH  12  16
ATOM     16  N   LIG    1        0.086  -2.610   3.691  0.00  0.00    -0.339 N 
ATOM     17  H   LIG    1        0.104  -3.096   4.530  0.00  0.00    +0.144 HD
ATOM     18  H   LIG    1        0.084  -3.094   2.851  0.00  0.00    +0.144 HD
ENDBRANCH  12  16
ENDBRANCH  10  11
TORSDOF 2
