REMARK  Name = ZINC00187107
REMARK                            x       y       z     vdW  Elec       q    Type
REMARK                         _______ _______ _______ _____ _____    ______ ____
ROOT
ATOM      1  C   LIG    1       -0.018   1.503   0.010  0.00  0.00    +0.063 C 
ATOM      2  C   LIG    1        0.002  -0.004   0.002  0.00  0.00    +0.014 A 
ATOM      3  C   LIG    1       -1.168  -0.680   0.004  0.00  0.00    +0.033 A 
ATOM      4  C   LIG    1       -1.155  -2.089  -0.004  0.00  0.00    +0.036 A 
ATOM      5  C   LIG    1        0.090  -2.764  -0.013  0.00  0.00    +0.101 A 
ATOM      6  C   LIG    1       -0.200  -4.146  -0.020  0.00  0.00    +0.348 C 
ATOM      7  O   LIG    1       -1.532  -4.328  -0.015  0.00  0.00    -0.422 OA
ATOM      8  O   LIG    1        0.630  -5.037  -0.029  0.00  0.00    -0.244 OA
ATOM      9  C   LIG    1        1.275  -1.999  -0.014  0.00  0.00    +0.099 A 
ATOM     10  S   LIG    1        2.801  -2.775  -0.025  0.00  0.00    -0.032 S 
ATOM     11  C   LIG    1       -2.174  -3.131  -0.005  0.00  0.00    +0.143 C 
ATOM     12  C   LIG    1       -3.524  -2.940   0.003  0.00  0.00    +0.093 C 
ATOM     13  N   LIG    1        1.199  -0.653  -0.013  0.00  0.00    -0.352 N 
ATOM     14  H   LIG    1        2.018  -0.134  -0.018  0.00  0.00    +0.166 HD
ENDROOT
BRANCH  12  15
ATOM     15  C   LIG    1       -4.395  -4.053   0.000  0.00  0.00    +0.131 A 
ATOM     16  C   LIG    1       -5.776  -4.006   0.002  0.00  0.00    +0.049 A 
ATOM     17  C   LIG    1       -6.221  -5.337  -0.002  0.00  0.00    +0.042 A 
ATOM     18  C   LIG    1       -5.123  -6.125  -0.006  0.00  0.00    +0.195 A 
ATOM     19  O   LIG    1       -4.028  -5.351  -0.011  0.00  0.00    -0.463 OA
ENDBRANCH  12  15
TORSDOF 1
