REMARK  Name = ZINC00078174
REMARK                            x       y       z     vdW  Elec       q    Type
REMARK                         _______ _______ _______ _____ _____    ______ ____
ROOT
ATOM      1  C   LIG    1       -6.928   0.614   0.577  0.00  0.00    +0.224 A 
ATOM      2  N   LIG    1       -6.482   0.453  -0.653  0.00  0.00    -0.220 NA
ATOM      3  C   LIG    1       -5.192   0.429  -0.980  0.00  0.00    +0.128 A 
ATOM      4  C   LIG    1       -4.275   0.591   0.099  0.00  0.00    +0.051 A 
ATOM      5  C   LIG    1       -2.824   0.604   0.024  0.00  0.00    -0.025 A 
ATOM      6  C   LIG    1       -2.157   0.772   1.189  0.00  0.00    -0.004 A 
ATOM      7  C   LIG    1       -0.670   0.821   1.389  0.00  0.00    +0.043 C 
ATOM      8  C   LIG    1        0.004   0.280   0.120  0.00  0.00    +0.005 C 
ATOM      9  C   LIG    1       -0.634   0.950  -1.101  0.00  0.00    +0.005 C 
ATOM     10  S   LIG    1       -3.417   0.923   2.431  0.00  0.00    -0.073 S 
ATOM     11  C   LIG    1       -2.061   0.436  -1.288  0.00  0.00    +0.037 C 
ATOM     12  C   LIG    1       -4.833   0.759   1.392  0.00  0.00    +0.114 A 
ATOM     13  N   LIG    1       -6.130   0.770   1.626  0.00  0.00    -0.228 NA
ENDROOT
BRANCH   3  14
ATOM     14  N   LIG    1       -4.767   0.257  -2.285  0.00  0.00    -0.343 N 
ATOM     15  H   LIG    1       -3.846   0.011  -2.467  0.00  0.00    +0.144 HD
ATOM     16  H   LIG    1       -5.389   0.383  -3.018  0.00  0.00    +0.144 HD
ENDBRANCH   3  14
TORSDOF 1
