REMARK  Name = ZINC00092298
REMARK                            x       y       z     vdW  Elec       q    Type
REMARK                         _______ _______ _______ _____ _____    ______ ____
ROOT
ATOM      1  C   LIG    1       -4.236  -0.191   0.107  0.00  0.00    +0.249 A 
ATOM      2  N   LIG    1       -4.739   1.018   0.001  0.00  0.00    -0.107 NA
ATOM      3  N   LIG    1       -3.782   1.877  -0.040  0.00  0.00    -0.107 NA
ATOM      4  C   LIG    1       -2.629   1.251   0.039  0.00  0.00    +0.250 A 
ATOM      5  O   LIG    1       -2.892  -0.069   0.127  0.00  0.00    -0.416 OA
ENDROOT
BRANCH   1   9
ATOM      6  C   LIG    1       -6.435  -3.817   0.326  0.00  0.00    -0.042 A 
ATOM      7  C   LIG    1       -7.104  -2.611   0.216  0.00  0.00    +0.005 A 
ATOM      8  C   LIG    1       -6.396  -1.429   0.145  0.00  0.00    +0.013 A 
ATOM      9  C   LIG    1       -5.001  -1.452   0.183  0.00  0.00    +0.039 A 
ATOM     10  C   LIG    1       -4.331  -2.673   0.288  0.00  0.00    +0.013 A 
ATOM     11  C   LIG    1       -5.052  -3.847   0.364  0.00  0.00    +0.005 A 
BRANCH   6  13
ATOM     12  C   LIG    1       -8.063  -5.263  -0.861  0.00  0.00    +0.015 C 
ATOM     13  C   LIG    1       -7.215  -5.104   0.402  0.00  0.00    -0.013 C 
ATOM     14  C   LIG    1       -8.129  -5.074   1.629  0.00  0.00    +0.015 C 
ATOM     15  C   LIG    1       -6.246  -6.282   0.517  0.00  0.00    +0.015 C 
ENDBRANCH   6  13
ENDBRANCH   1   9
BRANCH   4  16
ATOM     16  C   LIG    1       -1.293   1.876   0.027  0.00  0.00    +0.059 A 
ATOM     17  C   LIG    1       -0.146   1.081  -0.002  0.00  0.00    +0.015 A 
ATOM     18  C   LIG    1        1.100   1.671  -0.018  0.00  0.00    +0.001 A 
ATOM     19  C   LIG    1        1.221   3.051  -0.002  0.00  0.00    +0.002 A 
ATOM     20  C   LIG    1        0.095   3.850   0.032  0.00  0.00    +0.023 A 
ATOM     21  C   LIG    1       -1.167   3.273   0.049  0.00  0.00    +0.037 A 
BRANCH  21  22
ATOM     22  N   LIG    1       -2.304   4.077   0.082  0.00  0.00    -0.357 N 
ATOM     23  H   LIG    1       -3.184   3.676   0.015  0.00  0.00    +0.142 HD
ATOM     24  H   LIG    1       -2.215   5.039   0.172  0.00  0.00    +0.142 HD
ENDBRANCH  21  22
ENDBRANCH   4  16
TORSDOF 4
