REMARK  Name = ZINC00087274
REMARK                            x       y       z     vdW  Elec       q    Type
REMARK                         _______ _______ _______ _____ _____    ______ ____
ROOT
ATOM      1  C   LIG    1       -1.488   2.353  -1.334  0.00  0.00    +0.023 A 
ATOM      2  C   LIG    1       -1.275   3.728  -1.385  0.00  0.00    +0.030 A 
ATOM      3  C   LIG    1       -1.421   4.416  -2.552  0.00  0.00    +0.051 A 
ATOM      4 CL   LIG    1       -1.151   6.130  -2.593  0.00  0.00    -0.083 Cl
ATOM      5  C   LIG    1       -1.791   3.731  -3.723  0.00  0.00    +0.022 A 
ATOM      6  C   LIG    1       -1.951   4.407  -4.947  0.00  0.00    +0.013 A 
ATOM      7  C   LIG    1       -2.311   3.677  -6.043  0.00  0.00    +0.020 A 
ATOM      8  C   LIG    1       -2.509   2.303  -5.929  0.00  0.00    +0.111 A 
ATOM      9  N   LIG    1       -2.359   1.677  -4.787  0.00  0.00    -0.251 NA
ATOM     10  C   LIG    1       -2.008   2.333  -3.677  0.00  0.00    +0.114 A 
ATOM     11  C   LIG    1       -1.843   1.653  -2.452  0.00  0.00    +0.148 A 
ENDROOT
BRANCH  11  12
ATOM     12  O   LIG    1       -2.040   0.311  -2.383  0.00  0.00    -0.504 OA
ATOM     13  H   LIG    1       -2.950   0.057  -2.177  0.00  0.00    +0.292 HD
ENDBRANCH  11  12
BRANCH   1  14
ATOM     14  C   LIG    1       -1.317   1.624  -0.026  0.00  0.00    +0.144 C 
BRANCH  14  17
ATOM     15  C   LIG    1        2.387   0.697  -0.285  0.00  0.00    +0.109 C 
ATOM     16  C   LIG    1        1.094   1.468  -0.344  0.00  0.00    +0.211 C 
ATOM     17  N   LIG    1       -0.070   0.854  -0.055  0.00  0.00    -0.304 N 
ATOM     18  H   LIG    1       -0.084  -0.098   0.130  0.00  0.00    +0.150 HD
ATOM     19  O   LIG    1        1.101   2.641  -0.652  0.00  0.00    -0.276 OA
ENDBRANCH  14  17
BRANCH  14  20
ATOM     20  C   LIG    1       -1.265   2.621   1.102  0.00  0.00    +0.015 A 
ATOM     21  C   LIG    1       -2.248   2.994   1.958  0.00  0.00    +0.013 A 
ATOM     22  C   LIG    1       -1.968   3.936   2.930  0.00  0.00    +0.008 A 
ATOM     23  C   LIG    1       -0.723   4.468   2.991  0.00  0.00    +0.045 A 
ATOM     24  S   LIG    1        0.105   3.626   1.653  0.00  0.00    -0.099 S 
ENDBRANCH  14  20
ENDBRANCH   1  14
TORSDOF 4
