REMARK  Name = ZINC00120271
REMARK                            x       y       z     vdW  Elec       q    Type
REMARK                         _______ _______ _______ _____ _____    ______ ____
ROOT
ATOM      1  N   LIG    1       -0.069   5.239   0.030  0.00  0.00    -0.333 N 
ATOM      2  C   LIG    1        0.676   5.782  -1.114  0.00  0.00    +0.086 C 
ATOM      3  C   LIG    1        0.699   7.310  -1.026  0.00  0.00    -0.063 C 
ATOM      4  N   LIG    1       -0.684   7.824  -1.017  0.00  0.00    +0.381 N 
ATOM      5  H   LIG    1       -0.664   8.848  -0.950  0.00  0.00    -0.086 HD
ATOM      6  H   LIG    1       -1.155   7.546  -1.887  0.00  0.00    -0.086 HD
ATOM      7  C   LIG    1       -1.425   7.275   0.134  0.00  0.00    -0.063 C 
ATOM      8  C   LIG    1       -1.448   5.747   0.046  0.00  0.00    +0.086 C 
ENDROOT
BRANCH   1  12
ATOM      9  C   LIG    1       -0.013   1.076   0.008  0.00  0.00    +0.000 A 
ATOM     10  C   LIG    1       -1.220   1.749   0.017  0.00  0.00    +0.002 A 
ATOM     11  C   LIG    1       -1.243   3.130   0.031  0.00  0.00    +0.023 A 
ATOM     12  C   LIG    1       -0.050   3.842   0.023  0.00  0.00    +0.030 A 
ATOM     13  C   LIG    1        1.161   3.163   0.008  0.00  0.00    +0.023 A 
ATOM     14  C   LIG    1        1.176   1.782   0.000  0.00  0.00    +0.002 A 
ENDBRANCH   1  12
TORSDOF 1
