REMARK  Name = ZINC00125385
REMARK                            x       y       z     vdW  Elec       q    Type
REMARK                         _______ _______ _______ _____ _____    ______ ____
ROOT
ATOM      1  C   LIG    1        1.137   1.742   4.509  0.00  0.00    +0.078 A 
ATOM      2  C   LIG    1        0.728   0.500   4.915  0.00  0.00    +0.075 A 
ATOM      3  S   LIG    1       -0.451   0.106   3.631  0.00  0.00    -0.078 S 
ATOM      4  C   LIG    1       -0.283   1.568   2.710  0.00  0.00    +0.100 A 
ATOM      5  N   LIG    1        0.606   2.238   3.402  0.00  0.00    -0.242 NA
ENDROOT
BRANCH   1   9
ATOM      6  C   LIG    1        4.022   3.936   6.731  0.00  0.00    +0.000 A 
ATOM      7  C   LIG    1        3.702   2.643   7.105  0.00  0.00    +0.001 A 
ATOM      8  C   LIG    1        2.766   1.927   6.388  0.00  0.00    +0.010 A 
ATOM      9  C   LIG    1        2.143   2.508   5.285  0.00  0.00    +0.001 A 
ATOM     10  C   LIG    1        2.474   3.808   4.909  0.00  0.00    +0.010 A 
ATOM     11  C   LIG    1        3.407   4.518   5.638  0.00  0.00    +0.001 A 
ENDBRANCH   1   9
BRANCH   4  12
ATOM     12  C   LIG    1       -0.987   1.970   1.440  0.00  0.00    +0.229 C 
BRANCH  12  13
ATOM     13  S   LIG    1       -0.017   1.417   0.010  0.00  0.00    -0.018 S 
ATOM     14  O   LIG    1        1.215   2.125   0.002  0.00  0.00    -0.174 OA
ATOM     15  O   LIG    1        0.002  -0.004   0.002  0.00  0.00    -0.174 OA
BRANCH  13  16
ATOM     16  C   LIG    1       -1.014   1.985  -1.395  0.00  0.00    +0.240 C 
BRANCH  16  17
ATOM     17  C   LIG    1       -0.335   1.597  -2.683  0.00  0.00    +0.126 A 
ATOM     18  C   LIG    1       -0.520   0.447  -3.355  0.00  0.00    +0.046 A 
ATOM     19  C   LIG    1        0.311   0.502  -4.498  0.00  0.00    +0.041 A 
ATOM     20  C   LIG    1        0.954   1.683  -4.456  0.00  0.00    +0.195 A 
ATOM     21  O   LIG    1        0.555   2.345  -3.357  0.00  0.00    -0.466 OA
ENDBRANCH  16  17
ENDBRANCH  13  16
ENDBRANCH  12  13
ENDBRANCH   4  12
TORSDOF 5
