REMARK  Name = ZINC00154642
REMARK                            x       y       z     vdW  Elec       q    Type
REMARK                         _______ _______ _______ _____ _____    ______ ____
ROOT
ATOM      1  C   LIG    1        3.543  -2.034  -0.111  0.00  0.00    +0.045 A 
ATOM      2  C   LIG    1        2.305  -2.662  -0.175  0.00  0.00    +0.024 A 
ATOM      3  C   LIG    1        2.228  -4.039  -0.183  0.00  0.00    +0.002 A 
ATOM      4  C   LIG    1        3.380  -4.808  -0.125  0.00  0.00    +0.001 A 
ATOM      5  C   LIG    1        4.617  -4.205  -0.060  0.00  0.00    +0.017 A 
ATOM      6  C   LIG    1        4.713  -2.810  -0.058  0.00  0.00    +0.080 A 
ENDROOT
BRANCH   1   7
ATOM      7  N   LIG    1        3.623  -0.648  -0.103  0.00  0.00    -0.314 N 
ATOM      8  H   LIG    1        3.438  -0.156   0.712  0.00  0.00    +0.152 HD
BRANCH   7  12
ATOM      9  C   LIG    1        4.657   1.396  -3.580  0.00  0.00    +0.000 A 
ATOM     10  C   LIG    1        4.314   2.102  -2.441  0.00  0.00    +0.002 A 
ATOM     11  C   LIG    1        3.971   1.427  -1.286  0.00  0.00    +0.023 A 
ATOM     12  C   LIG    1        3.969   0.038  -1.270  0.00  0.00    +0.031 A 
ATOM     13  C   LIG    1        4.314  -0.668  -2.416  0.00  0.00    +0.023 A 
ATOM     14  C   LIG    1        4.656   0.014  -3.568  0.00  0.00    +0.002 A 
ENDBRANCH   7  12
ENDBRANCH   1   7
BRANCH   6  15
ATOM     15  C   LIG    1        6.030  -2.159   0.004  0.00  0.00    +0.339 C 
ATOM     16  O   LIG    1        7.050  -2.832  -0.072  0.00  0.00    -0.245 OA
BRANCH  15  17
ATOM     17  O   LIG    1        6.107  -0.945   0.133  0.00  0.00    -0.477 OA
ATOM     18  H   LIG    1        5.327  -0.429   0.191  0.00  0.00    +0.295 HD
ENDBRANCH  15  17
ENDBRANCH   6  15
TORSDOF 4
