REMARK  Name = ZINC00164422
REMARK                            x       y       z     vdW  Elec       q    Type
REMARK                         _______ _______ _______ _____ _____    ______ ____
ROOT
ATOM      1  C   LIG    1        1.175   1.783   0.000  0.00  0.00    +0.002 A 
ATOM      2  C   LIG    1        1.156   3.166   0.008  0.00  0.00    +0.002 A 
ATOM      3  C   LIG    1       -0.050   3.841   0.023  0.00  0.00    -0.064 A 
ATOM      4  C   LIG    1       -1.238   3.135   0.030  0.00  0.00    +0.021 A 
ATOM      5  C   LIG    1       -1.220   1.752   0.017  0.00  0.00    +0.041 A 
ATOM      6 CL   LIG    1       -2.712   0.864   0.019  0.00  0.00    -0.084 Cl
ATOM      7  C   LIG    1       -0.013   1.076   0.008  0.00  0.00    +0.020 A 
ENDROOT
BRANCH   3   8
ATOM      8  C   LIG    1       -0.069   5.348   0.031  0.00  0.00    -0.051 C 
BRANCH   8   9
ATOM      9  N   LIG    1       -0.066   5.835  -1.360  0.00  0.00    +0.381 N 
ATOM     10  H   LIG    1        0.794   5.524  -1.825  0.00  0.00    -0.090 HD
ATOM     11  H   LIG    1       -0.102   6.853  -1.373  0.00  0.00    -0.090 HD
ATOM     12  H   LIG    1       -0.870   5.462  -1.863  0.00  0.00    -0.090 HD
ENDBRANCH   8   9
ENDBRANCH   3   8
TORSDOF 2
