REMARK  Name = ZINC00209104
REMARK                            x       y       z     vdW  Elec       q    Type
REMARK                         _______ _______ _______ _____ _____    ______ ____
ROOT
ATOM      1  N   LIG    1       -6.508   1.934  -1.204  0.00  0.00    -0.271 N 
ATOM      2  C   LIG    1       -6.114   1.865   0.208  0.00  0.00    +0.127 C 
ATOM      3  C   LIG    1       -4.892   0.921   0.249  0.00  0.00    +0.102 C 
ATOM      4  C   LIG    1       -5.120   0.055  -1.011  0.00  0.00    +0.110 C 
ATOM      5  C   LIG    1       -5.969   0.926  -1.911  0.00  0.00    +0.221 C 
ATOM      6  O   LIG    1       -6.138   0.742  -3.098  0.00  0.00    -0.275 OA
ENDROOT
BRANCH   1  10
ATOM      7  C   LIG    1       -8.980   4.876  -2.814  0.00  0.00    +0.000 A 
ATOM      8  C   LIG    1       -8.576   4.960  -1.495  0.00  0.00    +0.002 A 
ATOM      9  C   LIG    1       -7.757   3.987  -0.958  0.00  0.00    +0.023 A 
ATOM     10  C   LIG    1       -7.338   2.922  -1.745  0.00  0.00    +0.036 A 
ATOM     11  C   LIG    1       -7.741   2.843  -3.072  0.00  0.00    +0.023 A 
ATOM     12  C   LIG    1       -8.565   3.817  -3.601  0.00  0.00    +0.002 A 
ENDBRANCH   1  10
BRANCH   3  13
ATOM     13  C   LIG    1       -3.606   1.699   0.144  0.00  0.00    +0.222 C 
ATOM     14  N   LIG    1       -2.431   1.047   0.036  0.00  0.00    -0.285 N 
ATOM     15  H   LIG    1       -2.418   0.080  -0.039  0.00  0.00    +0.155 HD
ATOM     16  O   LIG    1       -3.627   2.911   0.156  0.00  0.00    -0.275 OA
BRANCH  14  17
ATOM     17  C   LIG    1       -1.230   1.765   0.032  0.00  0.00    +0.035 A 
ATOM     18  C   LIG    1       -0.095   1.226   0.626  0.00  0.00    +0.023 A 
ATOM     19  C   LIG    1        1.087   1.940   0.627  0.00  0.00    +0.003 A 
ATOM     20  C   LIG    1        1.145   3.187   0.031  0.00  0.00    +0.020 A 
ATOM     21  C   LIG    1        0.018   3.724  -0.566  0.00  0.00    +0.043 A 
ATOM     22 CL   LIG    1        0.094   5.290  -1.311  0.00  0.00    -0.083 Cl
ATOM     23  C   LIG    1       -1.169   3.015  -0.569  0.00  0.00    +0.043 A 
ENDBRANCH  14  17
ENDBRANCH   3  13
TORSDOF 3
