REMARK  Name = ZINC00119632
REMARK                            x       y       z     vdW  Elec       q    Type
REMARK                         _______ _______ _______ _____ _____    ______ ____
ROOT
ATOM      1  N   LIG    1        0.601  -0.395  -1.283  0.00  0.00    -0.292 NA
ATOM      2  C   LIG    1       -0.203  -0.504  -2.352  0.00  0.00    +0.062 C 
ATOM      3  C   LIG    1       -1.540  -0.085  -2.273  0.00  0.00    +0.037 C 
ATOM      4  C   LIG    1       -2.360  -0.199  -3.377  0.00  0.00    +0.052 C 
ATOM      5  C   LIG    1       -1.874  -0.730  -4.574  0.00  0.00    +0.019 C 
ATOM      6  C   LIG    1       -0.578  -1.145  -4.672  0.00  0.00    +0.007 C 
ATOM      7  C   LIG    1        0.274  -1.040  -3.571  0.00  0.00    +0.010 C 
ATOM      8  C   LIG    1        1.672  -1.477  -3.649  0.00  0.00    -0.001 C 
ATOM      9  C   LIG    1        2.221  -2.015  -4.812  0.00  0.00    +0.006 C 
ATOM     10  C   LIG    1        3.530  -2.405  -4.826  0.00  0.00    +0.019 C 
ATOM     11  C   LIG    1        4.327  -2.272  -3.687  0.00  0.00    +0.051 C 
ATOM     12  C   LIG    1        3.805  -1.742  -2.521  0.00  0.00    +0.024 C 
ATOM     13  C   LIG    1        2.470  -1.337  -2.489  0.00  0.00    +0.015 C 
ATOM     14  C   LIG    1        1.861  -0.763  -1.287  0.00  0.00    +0.091 C 
ENDROOT
BRANCH  14  15
ATOM     15  C   LIG    1        2.676  -0.599  -0.061  0.00  0.00    -0.030 A 
ATOM     16  C   LIG    1        3.820   0.199  -0.082  0.00  0.00    +0.005 A 
ATOM     17  C   LIG    1        4.575   0.347   1.063  0.00  0.00    +0.000 A 
ATOM     18  C   LIG    1        4.199  -0.294   2.231  0.00  0.00    +0.000 A 
ATOM     19  C   LIG    1        3.066  -1.087   2.257  0.00  0.00    +0.000 A 
ATOM     20  C   LIG    1        2.299  -1.238   1.120  0.00  0.00    +0.005 A 
ENDBRANCH  14  15
BRANCH   4  21
ATOM     21  N   LIG    1       -3.689   0.219  -3.296  0.00  0.00    -0.327 NA
ATOM     22  H   LIG    1       -4.271   0.141  -4.069  0.00  0.00    +0.118 HD
ATOM     23  H   LIG    1       -4.032   0.589  -2.467  0.00  0.00    +0.118 HD
ENDBRANCH   4  21
BRANCH  11  24
ATOM     24  N   LIG    1        5.662  -2.678  -3.726  0.00  0.00    -0.327 NA
ATOM     25  H   LIG    1        6.220  -2.587  -2.937  0.00  0.00    +0.118 HD
ATOM     26  H   LIG    1        6.032  -3.050  -4.541  0.00  0.00    +0.118 HD
ENDBRANCH  11  24
BRANCH   1  28
ATOM     27  C   LIG    1        0.172   1.692  -0.083  0.00  0.00    +0.020 C 
ATOM     28  C   LIG    1        0.045   0.168  -0.050  0.00  0.00    +0.082 C 
ENDBRANCH   1  28
TORSDOF 4
