REMARK  Name = ZINC00099114
REMARK                            x       y       z     vdW  Elec       q    Type
REMARK                         _______ _______ _______ _____ _____    ______ ____
ROOT
ATOM      1  C   LIG    1        1.203   3.047  -0.154  0.00  0.00    +0.134 A 
ATOM      2  C   LIG    1       -0.026   3.749  -0.131  0.00  0.00    +0.041 A 
ATOM      3  C   LIG    1       -0.088   5.136   0.046  0.00  0.00    +0.028 A 
ATOM      4  C   LIG    1       -1.302   5.758   0.059  0.00  0.00    +0.019 A 
ATOM      5 BR   LIG    1       -1.387   7.632   0.298  0.00  0.00    -0.050 Br
ATOM      6  C   LIG    1       -2.480   5.032  -0.100  0.00  0.00    +0.017 A 
ATOM      7  C   LIG    1       -2.453   3.680  -0.274  0.00  0.00    +0.029 A 
ATOM      8  C   LIG    1       -1.223   3.009  -0.293  0.00  0.00    +0.076 A 
ATOM      9  N   LIG    1       -1.140   1.681  -0.466  0.00  0.00    -0.235 NA
ATOM     10  C   LIG    1        0.027   1.082  -0.474  0.00  0.00    +0.223 A 
ATOM     11  N   LIG    1        1.171   1.732  -0.327  0.00  0.00    -0.220 NA
ENDROOT
BRANCH   1  12
ATOM     12  N   LIG    1        2.402   3.712  -0.002  0.00  0.00    -0.299 N 
ATOM     13  H   LIG    1        2.417   4.680   0.043  0.00  0.00    +0.154 HD
BRANCH  12  19
ATOM     14  C   LIG    1        3.609   1.738   0.694  0.00  0.00    +0.027 A 
ATOM     15  C   LIG    1        4.787   1.023   0.777  0.00  0.00    +0.047 A 
ATOM     16  C   LIG    1        5.961   1.557   0.267  0.00  0.00    +0.117 A 
ATOM     17  C   LIG    1        5.952   2.808  -0.332  0.00  0.00    +0.047 A 
ATOM     18  C   LIG    1        4.773   3.523  -0.421  0.00  0.00    +0.027 A 
ATOM     19  C   LIG    1        3.597   2.988   0.089  0.00  0.00    +0.033 A 
BRANCH  16  20
ATOM     20  O   LIG    1        7.122   0.855   0.355  0.00  0.00    -0.507 OA
ATOM     21  H   LIG    1        7.626   1.027   1.163  0.00  0.00    +0.292 HD
ENDBRANCH  16  20
ENDBRANCH  12  19
ENDBRANCH   1  12
TORSDOF 3
