REMARK  Name = ZINC00084613
REMARK                            x       y       z     vdW  Elec       q    Type
REMARK                         _______ _______ _______ _____ _____    ______ ____
ROOT
ATOM      1  C   LIG    1        0.236  -3.589  -1.455  0.00  0.00    +0.197 C 
ENDROOT
BRANCH   1   2
ATOM      2  N   LIG    1       -0.550  -2.472  -1.985  0.00  0.00    -0.220 N 
ATOM      3  C   LIG    1       -1.699  -2.026  -1.446  0.00  0.00    +0.255 C 
ATOM      4  C   LIG    1       -2.191  -0.892  -2.256  0.00  0.00    +0.049 A 
ATOM      5  C   LIG    1       -3.295  -0.059  -2.184  0.00  0.00    +0.014 A 
ATOM      6  C   LIG    1       -3.467   0.939  -3.131  0.00  0.00    +0.001 A 
ATOM      7  C   LIG    1       -2.543   1.107  -4.146  0.00  0.00    +0.001 A 
ATOM      8  C   LIG    1       -1.433   0.281  -4.231  0.00  0.00    +0.014 A 
ATOM      9  C   LIG    1       -1.249  -0.720  -3.291  0.00  0.00    +0.049 A 
ATOM     10  O   LIG    1       -2.241  -2.480  -0.458  0.00  0.00    -0.270 OA
ATOM     11  C   LIG    1       -0.214  -1.753  -3.071  0.00  0.00    +0.255 C 
ATOM     12  O   LIG    1        0.773  -1.924  -3.758  0.00  0.00    -0.270 OA
ENDBRANCH   1   2
BRANCH   1  13
ATOM     13  C   LIG    1       -0.602  -4.842  -1.466  0.00  0.00    +0.326 C 
ATOM     14  O   LIG    1       -1.812  -4.767  -1.336  0.00  0.00    -0.249 OA
BRANCH  13  15
ATOM     15  O   LIG    1       -0.069  -5.930  -1.604  0.00  0.00    -0.479 OA
ATOM     16  H   LIG    1        0.861  -5.987  -1.704  0.00  0.00    +0.295 HD
ENDBRANCH  13  15
ENDBRANCH   1  13
BRANCH   1  17
ATOM     17  C   LIG    1        0.666  -3.275  -0.021  0.00  0.00    +0.071 C 
BRANCH  17  23
ATOM     18  C   LIG    1       -0.017   1.362   0.009  0.00  0.00    +0.001 A 
ATOM     19  C   LIG    1        1.170   2.083   0.002  0.00  0.00    +0.002 A 
ATOM     20  C   LIG    1        2.386   1.436  -0.013  0.00  0.00    +0.026 A 
ATOM     21  C   LIG    1        2.428   0.046  -0.021  0.00  0.00    +0.047 A 
ATOM     22  C   LIG    1        1.223  -0.681  -0.013  0.00  0.00    +0.003 A 
ATOM     23  C   LIG    1        1.604  -2.095  -0.025  0.00  0.00    -0.020 A 
ATOM     24  C   LIG    1        2.945  -2.141  -0.038  0.00  0.00    +0.087 A 
ATOM     25  N   LIG    1        3.455  -0.871  -0.036  0.00  0.00    -0.360 N 
ATOM     26  H   LIG    1        4.399  -0.650  -0.044  0.00  0.00    +0.165 HD
ATOM     27  C   LIG    1        0.002  -0.004   0.002  0.00  0.00    +0.010 A 
ENDBRANCH  17  23
ENDBRANCH   1  17
TORSDOF 5
