REMARK  Name = ZINC00100793
REMARK                            x       y       z     vdW  Elec       q    Type
REMARK                         _______ _______ _______ _____ _____    ______ ____
ROOT
ATOM      1  N   LIG    1       -1.191   1.867   0.018  0.00  0.00    -0.285 N 
ATOM      2  H   LIG    1       -1.205   2.833   0.098  0.00  0.00    +0.155 HD
ATOM      3  C   LIG    1       -0.014   1.209   0.007  0.00  0.00    +0.227 C 
ATOM      4  O   LIG    1        0.002  -0.004  -0.008  0.00  0.00    -0.275 OA
ENDROOT
BRANCH   1  12
ATOM      5  C   LIG    1       -3.468   1.704  -0.769  0.00  0.00    +0.026 A 
ATOM      6  C   LIG    1       -4.651   0.998  -0.876  0.00  0.00    +0.041 A 
ATOM      7  C   LIG    1       -4.768  -0.252  -0.292  0.00  0.00    +0.142 A 
ATOM      8  F   LIG    1       -5.927  -0.938  -0.393  0.00  0.00    -0.204 F 
ATOM      9  C   LIG    1       -3.696  -0.800   0.395  0.00  0.00    +0.078 A 
ATOM     10 CL   LIG    1       -3.845  -2.368   1.126  0.00  0.00    -0.081 Cl
ATOM     11  C   LIG    1       -2.510  -0.099   0.499  0.00  0.00    +0.046 A 
ATOM     12  C   LIG    1       -2.392   1.155  -0.086  0.00  0.00    +0.035 A 
ENDBRANCH   1  12
BRANCH   3  13
ATOM     13  C   LIG    1        1.280   1.980   0.007  0.00  0.00    +0.165 C 
BRANCH  13  14
ATOM     14  S   LIG    1        2.675   0.821  -0.017  0.00  0.00    -0.140 S 
BRANCH  14  15
ATOM     15  C   LIG    1        4.138   1.893  -0.014  0.00  0.00    +0.189 C 
BRANCH  15  16
ATOM     16  C   LIG    1        5.383   1.045  -0.033  0.00  0.00    +0.315 C 
ATOM     17  O   LIG    1        5.293  -0.160  -0.048  0.00  0.00    -0.250 OA
BRANCH  16  18
ATOM     18  O   LIG    1        6.592   1.627  -0.035  0.00  0.00    -0.480 OA
ATOM     19  H   LIG    1        6.662   2.562  -0.024  0.00  0.00    +0.295 HD
ENDBRANCH  16  18
ENDBRANCH  15  16
ENDBRANCH  14  15
ENDBRANCH  13  14
ENDBRANCH   3  13
TORSDOF 6
