REMARK  Name = ZINC00080832
REMARK                            x       y       z     vdW  Elec       q    Type
REMARK                         _______ _______ _______ _____ _____    ______ ____
ROOT
ATOM      1  CA  TRP A  1        2.422   1.185  -0.015  0.00  0.00    +0.189 C 
ENDROOT
BRANCH   1   3
ATOM      2  C   UNK A  0       -0.014   1.211   0.009  0.00  0.00    +0.401 C 
ATOM      3  N   TRP A  1        1.143   1.901   0.001  0.00  0.00    -0.268 N 
ATOM      4  H   TRP A  1        1.130   2.870   0.007  0.00  0.00    +0.153 HD
ATOM      5  O   UNK A  0        0.002  -0.004   0.002  0.00  0.00    -0.226 OA
BRANCH   2   6
ATOM      6  O   UNK A  0       -1.189   1.868   0.018  0.00  0.00    -0.446 OA
BRANCH   6   7
ATOM      7  C   UNK A  0       -2.396   1.061   0.019  0.00  0.00    +0.269 C 
BRANCH   7  11
ATOM      8  C   UNK A  0       -5.819   3.616   0.049  0.00  0.00    +0.000 A 
ATOM      9  C   UNK A  0       -5.271   3.209  -1.153  0.00  0.00    +0.000 A 
ATOM     10  C   UNK A  0       -4.163   2.383  -1.162  0.00  0.00    +0.007 A 
ATOM     11  C   UNK A  0       -3.604   1.963   0.030  0.00  0.00    -0.010 A 
ATOM     12  C   UNK A  0       -4.155   2.365   1.232  0.00  0.00    +0.007 A 
ATOM     13  C   UNK A  0       -5.260   3.196   1.242  0.00  0.00    +0.000 A 
ENDBRANCH   7  11
ENDBRANCH   6   7
ENDBRANCH   2   6
ENDBRANCH   1   3
BRANCH   1  14
ATOM     14  C   TRP A  1        2.813   0.825   1.395  0.00  0.00    +0.326 C 
ATOM     15  O   TRP A  1        2.098   1.133   2.318  0.00  0.00    -0.249 OA
BRANCH  14  16
ATOM     16  OXT TRP A  1        3.957   0.160   1.625  0.00  0.00    -0.479 OA
ATOM     17  HXT TRP A  1        4.512  -0.079   0.909  0.00  0.00    +0.295 HD
ENDBRANCH  14  16
ENDBRANCH   1  14
BRANCH   1  18
ATOM     18  CB  TRP A  1        3.499   2.081  -0.630  0.00  0.00    +0.071 C 
BRANCH  18  19
ATOM     19  CG  TRP A  1        3.170   2.341  -2.077  0.00  0.00    -0.020 A 
ATOM     20  CD1 TRP A  1        3.634   1.660  -3.137  0.00  0.00    +0.087 A 
ATOM     21  NE1 TRP A  1        3.116   2.183  -4.290  0.00  0.00    -0.360 N 
ATOM     22  CE2 TRP A  1        2.285   3.239  -3.994  0.00  0.00    +0.047 A 
ATOM     23  CZ2 TRP A  1        1.521   4.104  -4.771  0.00  0.00    +0.026 A 
ATOM     24  CH2 TRP A  1        0.772   5.088  -4.164  0.00  0.00    +0.002 A 
ATOM     25  CZ3 TRP A  1        0.773   5.228  -2.783  0.00  0.00    +0.001 A 
ATOM     26  CE3 TRP A  1        1.516   4.390  -2.001  0.00  0.00    +0.010 A 
ATOM     27  HE1 TRP A  1        3.307   1.857  -5.184  0.00  0.00    +0.165 HD
ATOM     28  CD2 TRP A  1        2.278   3.381  -2.594  0.00  0.00    +0.003 A 
ENDBRANCH  18  19
ENDBRANCH   1  18
TORSDOF 8
