REMARK  Name = ZINC00194811
REMARK                            x       y       z     vdW  Elec       q    Type
REMARK                         _______ _______ _______ _____ _____    ______ ____
ROOT
ATOM      1  N   LIG    1        3.975   2.086   0.113  0.00  0.00    -0.248 N 
ATOM      2  C   LIG    1        3.627   3.493  -0.081  0.00  0.00    +0.173 C 
ATOM      3  N   LIG    1        4.637   4.158  -0.913  0.00  0.00    -0.324 N 
ATOM      4  H   LIG    1        4.372   4.765  -1.621  0.00  0.00    +0.148 HD
ATOM      5  C   LIG    1        5.981   3.901  -0.667  0.00  0.00    +0.041 A 
ATOM      6  C   LIG    1        6.964   4.838  -0.940  0.00  0.00    +0.024 A 
ATOM      7  C   LIG    1        8.288   4.533  -0.689  0.00  0.00    +0.002 A 
ATOM      8  C   LIG    1        8.640   3.298  -0.166  0.00  0.00    +0.001 A 
ATOM      9  C   LIG    1        7.673   2.355   0.115  0.00  0.00    +0.015 A 
ATOM     10  C   LIG    1        6.333   2.651  -0.128  0.00  0.00    +0.058 A 
ATOM     11  C   LIG    1        5.261   1.689   0.184  0.00  0.00    +0.254 C 
ATOM     12  O   LIG    1        5.534   0.546   0.499  0.00  0.00    -0.270 OA
ENDROOT
BRANCH   1  17
ATOM     13  C   LIG    1       -0.159  -1.768   0.597  0.00  0.00    +0.044 C 
ATOM     14  C   LIG    1        0.939  -0.744   0.468  0.00  0.00    -0.050 A 
ATOM     15  C   LIG    1        1.065  -0.011  -0.697  0.00  0.00    +0.005 A 
ATOM     16  C   LIG    1        2.071   0.929  -0.818  0.00  0.00    +0.024 A 
ATOM     17  C   LIG    1        2.956   1.136   0.232  0.00  0.00    +0.038 A 
ATOM     18  C   LIG    1        2.826   0.397   1.401  0.00  0.00    +0.024 A 
ATOM     19  C   LIG    1        1.818  -0.540   1.516  0.00  0.00    +0.005 A 
ENDBRANCH   1  17
BRANCH   2  20
ATOM     20  C   LIG    1        3.553   4.189   1.280  0.00  0.00    +0.055 C 
ATOM     21  C   LIG    1        3.331   5.689   1.074  0.00  0.00    +0.016 C 
BRANCH  20  22
ATOM     22  C   LIG    1        2.409   3.616   2.075  0.00  0.00    -0.041 A 
ATOM     23  C   LIG    1        1.118   3.703   1.590  0.00  0.00    +0.004 A 
ATOM     24  C   LIG    1        0.069   3.172   2.318  0.00  0.00    +0.000 A 
ATOM     25  C   LIG    1        0.310   2.566   3.536  0.00  0.00    +0.000 A 
ATOM     26  C   LIG    1        1.601   2.484   4.024  0.00  0.00    +0.000 A 
ATOM     27  C   LIG    1        2.650   3.009   3.294  0.00  0.00    +0.004 A 
ENDBRANCH  20  22
ENDBRANCH   2  20
TORSDOF 3
