REMARK  Name = ZINC00225950
REMARK                            x       y       z     vdW  Elec       q    Type
REMARK                         _______ _______ _______ _____ _____    ______ ____
ROOT
ATOM      1  C   LIG    1       -0.017   1.374   0.010  0.00  0.00    +0.002 A 
ATOM      2  C   LIG    1        1.170   2.095   0.002  0.00  0.00    +0.002 A 
ATOM      3  C   LIG    1        2.375   1.452  -0.013  0.00  0.00    +0.030 A 
ATOM      4  C   LIG    1        2.420   0.054  -0.021  0.00  0.00    +0.090 A 
ATOM      5  C   LIG    1        1.217  -0.676  -0.013  0.00  0.00    +0.067 A 
ATOM      6  N   LIG    1        1.575  -2.009  -0.024  0.00  0.00    -0.337 N 
ATOM      7  C   LIG    1        2.943  -2.060  -0.038  0.00  0.00    +0.158 A 
ATOM      8  H   LIG    1        0.971  -2.767  -0.022  0.00  0.00    +0.167 HD
ATOM      9  N   LIG    1        3.433  -0.845  -0.036  0.00  0.00    -0.226 NA
ATOM     10  C   LIG    1        0.002  -0.004   0.002  0.00  0.00    +0.028 A 
ENDROOT
BRANCH   7  11
ATOM     11  C   LIG    1        3.748  -3.302  -0.051  0.00  0.00    +0.106 A 
ATOM     12  C   LIG    1        5.140  -3.224  -0.059  0.00  0.00    +0.031 A 
ATOM     13  C   LIG    1        5.879  -4.394  -0.072  0.00  0.00    +0.004 A 
ATOM     14  C   LIG    1        5.202  -5.605  -0.076  0.00  0.00    +0.020 A 
ATOM     15  C   LIG    1        3.818  -5.609  -0.068  0.00  0.00    +0.111 A 
ATOM     16  N   LIG    1        3.139  -4.481  -0.051  0.00  0.00    -0.252 NA
ENDBRANCH   7  11
TORSDOF 1
