REMARK  Name = ZINC00120286
REMARK                            x       y       z     vdW  Elec       q    Type
REMARK                         _______ _______ _______ _____ _____    ______ ____
ROOT
ATOM      1  C   LIG    1        3.724  -0.645   0.024  0.00  0.00    +0.116 C 
ATOM      2  C   LIG    1        3.862  -1.859   0.739  0.00  0.00    +0.142 C 
ATOM      3  N   LIG    1        4.987  -2.548   0.675  0.00  0.00    -0.283 NA
ATOM      4  H   LIG    1        4.747  -3.473   0.317  0.00  0.00    +0.125 HD
ATOM      5  C   LIG    1        5.999  -2.095  -0.071  0.00  0.00    +0.145 C 
ATOM      6  C   LIG    1        5.857  -0.880  -0.786  0.00  0.00    +0.117 C 
ATOM      7  C   LIG    1        6.953  -0.430  -1.567  0.00  0.00    +0.141 C 
ATOM      8  N   LIG    1        8.054  -1.166  -1.592  0.00  0.00    -0.273 NA
ATOM      9  H   LIG    1        8.809  -0.567  -1.258  0.00  0.00    +0.126 HD
ATOM     10  C   LIG    1        8.143  -2.301  -0.905  0.00  0.00    +0.194 C 
ATOM     11  N   LIG    1        7.155  -2.765  -0.163  0.00  0.00    -0.272 NA
ATOM     12  H   LIG    1        7.267  -3.599   0.321  0.00  0.00    +0.126 HD
ATOM     13  N   LIG    1        4.718  -0.193  -0.720  0.00  0.00    -0.299 NA
ATOM     14  H   LIG    1        4.952   0.735  -0.368  0.00  0.00    +0.123 HD
ENDROOT
BRANCH   1  18
ATOM     15  C   LIG    1        0.090   1.547   0.256  0.00  0.00    +0.000 A 
ATOM     16  C   LIG    1        0.647   1.013   1.405  0.00  0.00    +0.000 A 
ATOM     17  C   LIG    1        1.826   0.300   1.335  0.00  0.00    +0.005 A 
ATOM     18  C   LIG    1        2.457   0.119   0.105  0.00  0.00    -0.028 A 
ATOM     19  C   LIG    1        1.891   0.660  -1.049  0.00  0.00    +0.005 A 
ATOM     20  C   LIG    1        0.711   1.371  -0.967  0.00  0.00    +0.000 A 
ENDBRANCH   1  18
BRANCH   2  21
ATOM     21  N   LIG    1        2.813  -2.325   1.510  0.00  0.00    -0.314 NA
ATOM     22  H   LIG    1        2.944  -3.084   2.099  0.00  0.00    +0.120 HD
ATOM     23  H   LIG    1        1.946  -1.892   1.462  0.00  0.00    +0.120 HD
ENDBRANCH   2  21
BRANCH   7  24
ATOM     24  N   LIG    1        6.873   0.745  -2.284  0.00  0.00    -0.314 NA
ATOM     25  H   LIG    1        7.629   1.042  -2.814  0.00  0.00    +0.120 HD
ATOM     26  H   LIG    1        6.061   1.275  -2.258  0.00  0.00    +0.120 HD
ENDBRANCH   7  24
BRANCH  10  27
ATOM     27  N   LIG    1        9.319  -3.025  -0.972  0.00  0.00    -0.303 NA
ATOM     28  H   LIG    1        9.405  -3.856  -0.479  0.00  0.00    +0.121 HD
ATOM     29  H   LIG    1       10.057  -2.702  -1.511  0.00  0.00    +0.121 HD
ENDBRANCH  10  27
TORSDOF 4
