REMARK  Name = ZINC00163337
REMARK                            x       y       z     vdW  Elec       q    Type
REMARK                         _______ _______ _______ _____ _____    ______ ____
ROOT
ATOM      1  C   LIG    1       -0.016   1.355   0.009  0.00  0.00    +0.002 A 
ATOM      2  C   LIG    1        1.155   2.100   0.002  0.00  0.00    +0.001 A 
ATOM      3  C   LIG    1        2.373   1.448  -0.013  0.00  0.00    +0.017 A 
ATOM      4  C   LIG    1        2.403   0.074  -0.020  0.00  0.00    +0.040 A 
ATOM      5  C   LIG    1        1.227  -0.713  -0.013  0.00  0.00    +0.079 A 
ATOM      6  N   LIG    1        1.417  -2.046  -0.022  0.00  0.00    -0.239 NA
ATOM      7  C   LIG    1        2.615  -2.590  -0.037  0.00  0.00    +0.109 A 
ATOM      8  S   LIG    1        3.683  -1.157  -0.039  0.00  0.00    -0.067 S 
ATOM      9  C   LIG    1        0.002  -0.004   0.002  0.00  0.00    +0.029 A 
ENDROOT
BRANCH   7  10
ATOM     10  C   LIG    1        2.983  -4.022  -0.047  0.00  0.00    +0.007 A 
ATOM     11  C   LIG    1        1.989  -5.001  -0.049  0.00  0.00    +0.012 A 
ATOM     12  C   LIG    1        2.338  -6.335  -0.059  0.00  0.00    +0.020 A 
ATOM     13  C   LIG    1        3.673  -6.704  -0.068  0.00  0.00    +0.041 A 
ATOM     14 CL   LIG    1        4.106  -8.385  -0.081  0.00  0.00    -0.084 Cl
ATOM     15  C   LIG    1        4.664  -5.737  -0.067  0.00  0.00    +0.020 A 
ATOM     16  C   LIG    1        4.327  -4.400  -0.062  0.00  0.00    +0.012 A 
ENDBRANCH   7  10
TORSDOF 1
