REMARK  Name = ZINC00119985
REMARK                            x       y       z     vdW  Elec       q    Type
REMARK                         _______ _______ _______ _____ _____    ______ ____
ROOT
ATOM      1  C   LIG    1       -1.294  -0.774   0.010  0.00  0.00    +0.232 C 
ATOM      2  C   LIG    1       -1.859  -0.818   1.436  0.00  0.00    +0.164 C 
ATOM      3  C   LIG    1       -3.112  -1.698   1.428  0.00  0.00    +0.078 C 
ATOM      4  C   LIG    1       -4.012  -1.290   0.289  0.00  0.00    +0.038 A 
ATOM      5  C   LIG    1       -5.345  -1.684   0.317  0.00  0.00    +0.127 A 
ATOM      6  C   LIG    1       -6.199  -1.331  -0.715  0.00  0.00    +0.091 A 
ATOM      7  C   LIG    1       -5.723  -0.581  -1.780  0.00  0.00    +0.124 A 
ATOM      8  C   LIG    1       -4.396  -0.185  -1.807  0.00  0.00    +0.091 A 
ATOM      9  C   LIG    1       -3.537  -0.538  -0.771  0.00  0.00    +0.132 A 
ATOM     10  O   LIG    1       -2.245  -0.122  -0.832  0.00  0.00    -0.481 OA
ENDROOT
BRANCH   1  16
ATOM     11  C   LIG    1       -0.017   1.378   0.010  0.00  0.00    +0.011 A 
ATOM     12  C   LIG    1        1.170   2.089   0.002  0.00  0.00    +0.049 A 
ATOM     13  C   LIG    1        2.380   1.415  -0.013  0.00  0.00    +0.158 A 
ATOM     14  C   LIG    1        2.399   0.024  -0.021  0.00  0.00    +0.159 A 
ATOM     15  C   LIG    1        1.207  -0.682  -0.013  0.00  0.00    +0.056 A 
ATOM     16  C   LIG    1        0.002  -0.004   0.002  0.00  0.00    -0.001 A 
BRANCH  13  17
ATOM     17  O   LIG    1        3.548   2.113  -0.021  0.00  0.00    -0.503 OA
ATOM     18  H   LIG    1        3.894   2.310   0.860  0.00  0.00    +0.292 HD
ENDBRANCH  13  17
BRANCH  14  19
ATOM     19  O   LIG    1        3.585  -0.642  -0.036  0.00  0.00    -0.503 OA
ATOM     20  H   LIG    1        3.937  -0.839   0.843  0.00  0.00    +0.292 HD
ENDBRANCH  14  19
ENDBRANCH   1  16
BRANCH   2  21
ATOM     21  O   LIG    1       -0.886  -1.373   2.323  0.00  0.00    -0.387 OA
ATOM     22  H   LIG    1       -1.179  -1.430   3.242  0.00  0.00    +0.210 HD
ENDBRANCH   2  21
BRANCH   5  23
ATOM     23  O   LIG    1       -5.811  -2.419   1.360  0.00  0.00    -0.506 OA
ATOM     24  H   LIG    1       -6.157  -1.889   2.091  0.00  0.00    +0.292 HD
ENDBRANCH   5  23
BRANCH   7  25
ATOM     25  O   LIG    1       -6.557  -0.234  -2.795  0.00  0.00    -0.507 OA
ATOM     26  H   LIG    1       -7.011   0.609  -2.660  0.00  0.00    +0.292 HD
ENDBRANCH   7  25
TORSDOF 6
