REMARK  Name = ZINC00287294
REMARK                            x       y       z     vdW  Elec       q    Type
REMARK                         _______ _______ _______ _____ _____    ______ ____
ROOT
ATOM      1  C   LIG    1       -0.018   1.503   0.010  0.00  0.00    +0.044 C 
ATOM      2  C   LIG    1        0.002  -0.004   0.002  0.00  0.00    -0.050 A 
ATOM      3  C   LIG    1        0.006  -0.686  -1.207  0.00  0.00    +0.005 A 
ATOM      4  C   LIG    1        0.024  -2.063  -1.237  0.00  0.00    +0.026 A 
ATOM      5  C   LIG    1        0.040  -2.780  -0.044  0.00  0.00    +0.050 A 
ATOM      6  C   LIG    1        0.037  -2.084   1.178  0.00  0.00    +0.007 A 
ATOM      7  C   LIG    1        0.054  -2.853   2.433  0.00  0.00    +0.000 A 
ATOM      8  C   LIG    1        0.072  -4.220   2.357  0.00  0.00    +0.036 A 
ATOM      9  C   LIG    1        0.074  -4.857   1.103  0.00  0.00    +0.253 A 
ATOM     10  O   LIG    1        0.090  -6.075   1.057  0.00  0.00    -0.268 OA
ATOM     11  N   LIG    1        0.059  -4.159  -0.045  0.00  0.00    -0.322 N 
ATOM     12  H   LIG    1        0.061  -4.634  -0.891  0.00  0.00    +0.169 HD
ATOM     13  C   LIG    1        0.023  -0.688   1.185  0.00  0.00    +0.014 A 
ENDROOT
BRANCH   7  14
ATOM     14  C   LIG    1        0.051  -2.165   3.743  0.00  0.00    -0.017 A 
ATOM     15  C   LIG    1       -1.053  -1.407   4.135  0.00  0.00    +0.008 A 
ATOM     16  C   LIG    1       -1.049  -0.769   5.358  0.00  0.00    +0.001 A 
ATOM     17  C   LIG    1        0.047  -0.878   6.195  0.00  0.00    +0.000 A 
ATOM     18  C   LIG    1        1.145  -1.628   5.813  0.00  0.00    +0.001 A 
ATOM     19  C   LIG    1        1.151  -2.277   4.595  0.00  0.00    +0.008 A 
ENDBRANCH   7  14
BRANCH   8  20
ATOM     20  C   LIG    1        0.090  -5.043   3.619  0.00  0.00    +0.161 C 
BRANCH  20  21
ATOM     21  C   LIG    1       -1.318  -5.441   3.980  0.00  0.00    +0.309 C 
ATOM     22  O   LIG    1       -2.250  -5.088   3.277  0.00  0.00    -0.251 OA
BRANCH  21  23
ATOM     23  O   LIG    1       -1.526  -6.115   4.974  0.00  0.00    -0.480 OA
ATOM     24  H   LIG    1       -0.809  -6.386   5.514  0.00  0.00    +0.295 HD
ENDBRANCH  21  23
ENDBRANCH  20  21
ENDBRANCH   8  20
TORSDOF 4
