REMARK  Name = ZINC00201053
REMARK                            x       y       z     vdW  Elec       q    Type
REMARK                         _______ _______ _______ _____ _____    ______ ____
ROOT
ATOM      1  N   LIG    1        3.584   2.125  -0.021  0.00  0.00    -0.269 N 
ATOM      2  H   LIG    1        3.572   3.093  -0.084  0.00  0.00    +0.156 HD
ATOM      3  C   LIG    1        4.758   1.470   0.066  0.00  0.00    +0.304 C 
ATOM      4  N   LIG    1        5.911   2.163   0.160  0.00  0.00    -0.296 N 
ATOM      5  H   LIG    1        5.895   3.133   0.165  0.00  0.00    +0.151 HD
ATOM      6  O   LIG    1        4.779   0.255   0.060  0.00  0.00    -0.253 OA
ENDROOT
BRANCH   1   9
ATOM      7  C   LIG    1        0.070   1.231   0.593  0.00  0.00    +0.003 A 
ATOM      8  C   LIG    1        1.256   1.940   0.595  0.00  0.00    +0.023 A 
ATOM      9  C   LIG    1        2.382   1.409  -0.021  0.00  0.00    +0.036 A 
ATOM     10  C   LIG    1        2.312   0.167  -0.637  0.00  0.00    +0.043 A 
ATOM     11  C   LIG    1        1.123  -0.538  -0.635  0.00  0.00    +0.043 A 
ATOM     12 CL   LIG    1        1.034  -2.091  -1.405  0.00  0.00    -0.083 Cl
ATOM     13  C   LIG    1        0.003  -0.005  -0.021  0.00  0.00    +0.020 A 
ENDBRANCH   1   9
BRANCH   4  14
ATOM     14  C   LIG    1        7.188   1.451   0.254  0.00  0.00    +0.074 C 
ATOM     15  C   LIG    1        7.460   1.084   1.714  0.00  0.00    +0.022 C 
ATOM     16  C   LIG    1        8.794   0.340   1.813  0.00  0.00    +0.002 C 
ATOM     17  C   LIG    1        9.918   1.239   1.295  0.00  0.00    +0.000 C 
ATOM     18  C   LIG    1        9.646   1.605  -0.165  0.00  0.00    +0.002 C 
ATOM     19  C   LIG    1        8.312   2.349  -0.264  0.00  0.00    +0.022 C 
ENDBRANCH   4  14
TORSDOF 2
