REMARK  Name = ZINC00207239
REMARK                            x       y       z     vdW  Elec       q    Type
REMARK                         _______ _______ _______ _____ _____    ______ ____
ROOT
ATOM      1  C   LIG    1        3.717  -0.700  -0.037  0.00  0.00    +0.044 C 
ATOM      2  C   LIG    1        2.399   0.032  -0.021  0.00  0.00    -0.049 A 
ATOM      3  C   LIG    1        2.377   1.415  -0.013  0.00  0.00    +0.003 A 
ATOM      4  C   LIG    1        1.171   2.089   0.002  0.00  0.00    +0.002 A 
ATOM      5  C   LIG    1       -0.017   1.384   0.010  0.00  0.00    +0.024 A 
ATOM      6  C   LIG    1        0.002  -0.004   0.002  0.00  0.00    +0.045 A 
ATOM      7  C   LIG    1        1.215  -0.679  -0.013  0.00  0.00    +0.027 A 
ENDROOT
BRANCH   6   8
ATOM      8  N   LIG    1       -1.201  -0.723   0.009  0.00  0.00    -0.203 N 
ATOM      9  C   LIG    1       -1.304  -2.064  -0.003  0.00  0.00    +0.250 C 
ATOM     10  C   LIG    1       -2.739  -2.423   0.013  0.00  0.00    +0.073 C 
ATOM     11  C   LIG    1       -3.428  -1.270   0.026  0.00  0.00    +0.073 C 
ATOM     12  O   LIG    1       -0.376  -2.847  -0.021  0.00  0.00    -0.270 OA
ATOM     13  C   LIG    1       -2.431  -0.177   0.023  0.00  0.00    +0.250 C 
ATOM     14  O   LIG    1       -2.680   1.012   0.032  0.00  0.00    -0.270 OA
ENDBRANCH   6   8
TORSDOF 1
