REMARK  Name = ZINC00158012
REMARK                            x       y       z     vdW  Elec       q    Type
REMARK                         _______ _______ _______ _____ _____    ______ ____
ROOT
ATOM      1  C   LIG    1       -0.018   1.461   0.010  0.00  0.00    +0.149 C 
ATOM      2  N   LIG    1        0.002  -0.004   0.002  0.00  0.00    -0.349 N 
ATOM      3  C   LIG    1        0.008  -0.763  -1.110  0.00  0.00    +0.097 A 
ATOM      4  C   LIG    1        0.028  -2.097  -0.760  0.00  0.00    +0.039 A 
ATOM      5  C   LIG    1        0.035  -2.135   0.715  0.00  0.00    +0.010 A 
ATOM      6  C   LIG    1        0.054  -3.160   1.656  0.00  0.00    +0.011 A 
ATOM      7  C   LIG    1        0.069  -2.853   3.000  0.00  0.00    +0.001 A 
ATOM      8  C   LIG    1        0.053  -1.530   3.415  0.00  0.00    +0.002 A 
ATOM      9  C   LIG    1        0.031  -0.505   2.494  0.00  0.00    +0.026 A 
ATOM     10  C   LIG    1        0.024  -0.795   1.133  0.00  0.00    +0.049 A 
ENDROOT
BRANCH   4  11
ATOM     11  C   LIG    1        0.039  -3.208  -1.640  0.00  0.00    +0.260 C 
ATOM     12  O   LIG    1        0.031  -3.031  -2.841  0.00  0.00    -0.296 OA
ENDBRANCH   4  11
TORSDOF 1
