REMARK  Name = ZINC00087267
REMARK                            x       y       z     vdW  Elec       q    Type
REMARK                         _______ _______ _______ _____ _____    ______ ____
ROOT
ATOM      1  C   LIG    1        4.997  -2.744  -0.061  0.00  0.00    +0.070 C 
ATOM      2  C   LIG    1        5.487  -2.884  -1.505  0.00  0.00    +0.004 C 
ATOM      3  C   LIG    1        6.783  -3.697  -1.522  0.00  0.00    -0.077 C 
ATOM      4  N   LIG    1        6.537  -5.029  -0.956  0.00  0.00    +0.382 N 
ATOM      5  H   LIG    1        5.802  -5.483  -1.476  0.00  0.00    -0.081 HD
ATOM      6  C   LIG    1        6.137  -4.906   0.450  0.00  0.00    -0.077 C 
ATOM      7  C   LIG    1        4.815  -4.139   0.543  0.00  0.00    +0.004 C 
ENDROOT
BRANCH   1   9
ATOM      8  C   LIG    1        3.696  -0.685  -0.037  0.00  0.00    +0.244 C 
ATOM      9  N   LIG    1        3.717  -2.032  -0.045  0.00  0.00    -0.309 N 
ATOM     10  H   LIG    1        2.885  -2.531  -0.039  0.00  0.00    +0.149 HD
ATOM     11  O   LIG    1        4.738  -0.060  -0.044  0.00  0.00    -0.270 OA
BRANCH   8  15
ATOM     12  C   LIG    1       -0.017   1.379   0.010  0.00  0.00    +0.000 A 
ATOM     13  C   LIG    1        1.168   2.094   0.002  0.00  0.00    +0.001 A 
ATOM     14  C   LIG    1        2.377   1.429  -0.013  0.00  0.00    +0.013 A 
ATOM     15  C   LIG    1        2.403   0.034  -0.021  0.00  0.00    +0.037 A 
ATOM     16  C   LIG    1        1.204  -0.681  -0.013  0.00  0.00    +0.013 A 
ATOM     17  C   LIG    1        0.002  -0.004   0.002  0.00  0.00    +0.001 A 
ENDBRANCH   8  15
ENDBRANCH   1   9
BRANCH   4  18
ATOM     18  C   LIG    1        7.764  -5.832  -1.046  0.00  0.00    -0.043 C 
BRANCH  18  19
ATOM     19  C   LIG    1        7.481  -7.236  -0.579  0.00  0.00    -0.063 A 
ATOM     20  C   LIG    1        7.637  -7.556   0.768  0.00  0.00    +0.002 A 
ATOM     21  C   LIG    1        7.390  -8.815   1.223  0.00  0.00    +0.009 A 
ATOM     22  C   LIG    1        6.970  -9.809   0.323  0.00  0.00    -0.018 A 
ATOM     23  C   LIG    1        6.705 -11.120   0.755  0.00  0.00    +0.008 A 
ATOM     24  C   LIG    1        6.300 -12.057  -0.145  0.00  0.00    +0.001 A 
ATOM     25  C   LIG    1        6.143 -11.736  -1.493  0.00  0.00    +0.001 A 
ATOM     26  C   LIG    1        6.390 -10.478  -1.947  0.00  0.00    +0.008 A 
ATOM     27  C   LIG    1        6.811  -9.484  -1.047  0.00  0.00    -0.018 A 
ATOM     28  C   LIG    1        7.071  -8.171  -1.478  0.00  0.00    +0.010 A 
ENDBRANCH  18  19
ENDBRANCH   4  18
TORSDOF 4
