REMARK  Name = ZINC00217276
REMARK                            x       y       z     vdW  Elec       q    Type
REMARK                         _______ _______ _______ _____ _____    ______ ____
ROOT
ATOM      1  C   LIG    1        0.678   6.361  -2.536  0.00  0.00    +0.109 C 
ATOM      2  C   LIG    1       -0.763   6.367  -2.095  0.00  0.00    +0.213 C 
ATOM      3  N   LIG    1       -1.105   5.844  -0.901  0.00  0.00    -0.289 N 
ATOM      4  C   LIG    1       -2.516   5.730  -0.503  0.00  0.00    +0.113 C 
ATOM      5  C   LIG    1       -2.764   6.629   0.715  0.00  0.00    +0.056 C 
ATOM      6  C   LIG    1       -1.645   6.431   1.706  0.00  0.00    -0.015 A 
ATOM      7  C   LIG    1       -1.619   6.781   3.111  0.00  0.00    +0.003 A 
ATOM      8  C   LIG    1       -2.562   7.372   3.958  0.00  0.00    +0.010 A 
ATOM      9  C   LIG    1       -2.188   7.562   5.266  0.00  0.00    +0.001 A 
ATOM     10  C   LIG    1       -0.939   7.191   5.736  0.00  0.00    +0.002 A 
ATOM     11  C   LIG    1        0.013   6.605   4.920  0.00  0.00    +0.026 A 
ATOM     12  C   LIG    1       -0.339   6.399   3.587  0.00  0.00    +0.047 A 
ATOM     13  N   LIG    1        0.341   5.858   2.534  0.00  0.00    -0.356 N 
ATOM     14  H   LIG    1        1.246   5.511   2.573  0.00  0.00    +0.166 HD
ATOM     15  C   LIG    1       -0.447   5.879   1.415  0.00  0.00    +0.046 A 
ATOM     16  C   LIG    1       -0.074   5.372   0.040  0.00  0.00    +0.153 C 
ATOM     17  O   LIG    1       -1.616   6.841  -2.816  0.00  0.00    -0.276 OA
ENDROOT
BRANCH  16  18
ATOM     18  C   LIG    1       -0.034   3.866   0.043  0.00  0.00    -0.018 A 
ATOM     19  C   LIG    1       -1.138   3.147   0.463  0.00  0.00    +0.006 A 
ATOM     20  C   LIG    1       -1.107   1.765   0.462  0.00  0.00    +0.004 A 
ATOM     21  C   LIG    1        0.031   1.099   0.051  0.00  0.00    +0.045 A 
ATOM     22  C   LIG    1        1.140   1.818  -0.370  0.00  0.00    +0.117 A 
ATOM     23  C   LIG    1        1.105   3.205  -0.374  0.00  0.00    +0.051 A 
BRANCH  22  24
ATOM     24  O   LIG    1        2.260   1.165  -0.779  0.00  0.00    -0.507 OA
ATOM     25  H   LIG    1        2.276   0.966  -1.725  0.00  0.00    +0.292 HD
ENDBRANCH  22  24
ENDBRANCH  16  18
TORSDOF 2
