REMARK  Name = ZINC00315576
REMARK                            x       y       z     vdW  Elec       q    Type
REMARK                         _______ _______ _______ _____ _____    ______ ____
ROOT
ATOM      1  C   LIG    1       -0.019   1.526   0.010  0.00  0.00    +0.018 C 
ATOM      2  C   LIG    1        0.002  -0.004   0.002  0.00  0.00    +0.068 C 
ATOM      3  C   LIG    1        0.699  -0.485  -1.239  0.00  0.00    +0.094 C 
ATOM      4  C   LIG    1        1.978  -0.930  -1.182  0.00  0.00    +0.198 C 
ATOM      5  O   LIG    1        2.653  -0.951  -0.021  0.00  0.00    -0.445 OA
ATOM      6  C   LIG    1        1.990  -0.945   1.152  0.00  0.00    +0.115 C 
ATOM      7  C   LIG    1        2.708  -1.457   2.378  0.00  0.00    +0.083 C 
ATOM      8  C   LIG    1        2.209  -0.720   3.612  0.00  0.00    +0.034 C 
ATOM      9  C   LIG    1        0.698  -0.944   3.729  0.00  0.00    +0.088 C 
ATOM     10  C   LIG    1        0.037  -0.483   2.458  0.00  0.00    +0.164 C 
ATOM     11  O   LIG    1       -1.111  -0.087   2.493  0.00  0.00    -0.292 OA
ATOM     12  C   LIG    1        0.726  -0.501   1.230  0.00  0.00    +0.041 C 
ENDROOT
BRANCH   8  13
ATOM     13  C   LIG    1        2.898  -1.258   4.840  0.00  0.00    -0.043 A 
ATOM     14  C   LIG    1        2.790  -2.598   5.162  0.00  0.00    +0.004 A 
ATOM     15  C   LIG    1        3.421  -3.090   6.289  0.00  0.00    +0.000 A 
ATOM     16  C   LIG    1        4.161  -2.244   7.093  0.00  0.00    +0.000 A 
ATOM     17  C   LIG    1        4.269  -0.904   6.770  0.00  0.00    +0.000 A 
ATOM     18  C   LIG    1        3.642  -0.412   5.641  0.00  0.00    +0.004 A 
ENDBRANCH   8  13
BRANCH   4  19
ATOM     19  N   LIG    1        2.594  -1.366  -2.329  0.00  0.00    -0.328 N 
ATOM     20  H   LIG    1        3.509  -1.686  -2.297  0.00  0.00    +0.145 HD
ATOM     21  H   LIG    1        2.113  -1.354  -3.172  0.00  0.00    +0.145 HD
ENDBRANCH   4  19
BRANCH   3  22
ATOM     22  C   LIG    1        0.006  -0.475  -2.493  0.00  0.00    +0.100 C 
ATOM     23  N   LIG    1       -0.544  -0.466  -3.487  0.00  0.00    -0.191 NA
ENDBRANCH   3  22
TORSDOF 3
