REMARK  Name = ZINC00164581
REMARK                            x       y       z     vdW  Elec       q    Type
REMARK                         _______ _______ _______ _____ _____    ______ ____
ROOT
ATOM      1  C   LIG    1       -0.017   1.378   0.010  0.00  0.00    +0.007 A 
ATOM      2  C   LIG    1        1.169   2.087   0.002  0.00  0.00    +0.045 A 
ATOM      3  C   LIG    1        2.380   1.409  -0.013  0.00  0.00    +0.117 A 
ATOM      4  C   LIG    1        2.396   0.022  -0.021  0.00  0.00    +0.045 A 
ATOM      5  C   LIG    1        1.207  -0.681  -0.013  0.00  0.00    +0.007 A 
ATOM      6  C   LIG    1        0.002  -0.004   0.002  0.00  0.00    -0.045 A 
ENDROOT
BRANCH   3   7
ATOM      7  O   LIG    1        3.548   2.104  -0.021  0.00  0.00    -0.507 OA
ATOM      8  H   LIG    1        3.895   2.300   0.860  0.00  0.00    +0.292 HD
ENDBRANCH   3   7
BRANCH   6   9
ATOM      9  C   LIG    1       -1.293  -0.774   0.011  0.00  0.00    +0.063 C 
BRANCH   9  10
ATOM     10  C   LIG    1       -1.746  -1.027  -1.429  0.00  0.00    +0.160 C 
BRANCH  10  11
ATOM     11  O   LIG    1       -2.974  -1.757  -1.421  0.00  0.00    -0.395 OA
ATOM     12  H   LIG    1       -3.321  -1.953  -2.302  0.00  0.00    +0.209 HD
ENDBRANCH  10  11
ENDBRANCH   9  10
ENDBRANCH   6   9
TORSDOF 4
