REMARK  Name = ZINC00244546
REMARK                            x       y       z     vdW  Elec       q    Type
REMARK                         _______ _______ _______ _____ _____    ______ ____
ROOT
ATOM      1  C   LIG    1       -1.126  -0.837   0.008  0.00  0.00    +0.047 A 
ATOM      2  C   LIG    1       -1.973  -0.852   1.108  0.00  0.00    +0.026 A 
ATOM      3  C   LIG    1       -3.086  -1.670   1.109  0.00  0.00    +0.006 A 
ATOM      4  C   LIG    1       -3.350  -2.482   0.021  0.00  0.00    -0.037 A 
ATOM      5  C   LIG    1       -2.505  -2.473  -1.073  0.00  0.00    +0.006 A 
ATOM      6  C   LIG    1       -1.394  -1.653  -1.083  0.00  0.00    +0.026 A 
ENDROOT
BRANCH   1  13
ATOM      7  C   LIG    1       -1.249   2.228   0.020  0.00  0.00    +0.064 C 
ATOM      8  C   LIG    1       -0.016   1.361   0.009  0.00  0.00    +0.021 A 
ATOM      9  C   LIG    1        1.259   1.800  -0.000  0.00  0.00    +0.023 A 
ATOM     10  C   LIG    1        2.096   0.666  -0.014  0.00  0.00    +0.023 A 
ATOM     11  C   LIG    1        1.302  -0.423  -0.013  0.00  0.00    +0.021 A 
ATOM     12  C   LIG    1        1.768  -1.857  -0.025  0.00  0.00    +0.064 C 
ATOM     13  N   LIG    1        0.002  -0.004   0.002  0.00  0.00    -0.318 N 
ENDBRANCH   1  13
BRANCH   4  14
ATOM     14  C   LIG    1       -4.562  -3.378   0.029  0.00  0.00    +0.155 C 
BRANCH  14  15
ATOM     15  C   LIG    1       -4.194  -4.715   0.619  0.00  0.00    +0.309 C 
ATOM     16  O   LIG    1       -3.064  -4.919   0.994  0.00  0.00    -0.251 OA
BRANCH  15  17
ATOM     17  O   LIG    1       -5.121  -5.679   0.726  0.00  0.00    -0.480 OA
ATOM     18  H   LIG    1       -5.998  -5.521   0.435  0.00  0.00    +0.295 HD
ENDBRANCH  15  17
ENDBRANCH  14  15
ENDBRANCH   4  14
TORSDOF 4
