REMARK  Name = ZINC00085631
REMARK                            x       y       z     vdW  Elec       q    Type
REMARK                         _______ _______ _______ _____ _____    ______ ____
ROOT
ATOM      1  C   LIG    1       -0.018   1.461   0.010  0.00  0.00    +0.152 C 
ATOM      2  N   LIG    1        0.002  -0.004   0.002  0.00  0.00    -0.316 N 
ATOM      3  C   LIG    1        0.008  -0.820  -1.118  0.00  0.00    +0.068 A 
ATOM      4  C   LIG    1       -0.002  -0.578  -2.483  0.00  0.00    +0.028 A 
ATOM      5  C   LIG    1        0.008  -1.636  -3.368  0.00  0.00    +0.002 A 
ATOM      6  C   LIG    1        0.028  -2.942  -2.901  0.00  0.00    +0.002 A 
ATOM      7  C   LIG    1        0.037  -3.201  -1.549  0.00  0.00    +0.028 A 
ATOM      8  C   LIG    1        0.028  -2.140  -0.639  0.00  0.00    +0.069 A 
ATOM      9  N   LIG    1        0.033  -2.073   0.718  0.00  0.00    -0.306 N 
ATOM     10  C   LIG    1        0.024  -0.820   1.097  0.00  0.00    +0.174 A 
ENDROOT
BRANCH  10  11
ATOM     11  N   LIG    1        0.032  -0.388   2.406  0.00  0.00    -0.330 N 
ATOM     12  H   LIG    1        0.048  -1.034   3.130  0.00  0.00    +0.145 HD
ATOM     13  H   LIG    1        0.021   0.562   2.604  0.00  0.00    +0.145 HD
ENDBRANCH  10  11
BRANCH   9  14
ATOM     14  C   LIG    1        0.053  -3.228   1.620  0.00  0.00    +0.204 C 
BRANCH  14  15
ATOM     15  C   LIG    1        1.480  -3.604   1.923  0.00  0.00    +0.183 C 
ATOM     16  O   LIG    1        2.392  -2.971   1.433  0.00  0.00    -0.290 OA
BRANCH  15  17
ATOM     17  C   LIG    1        1.769  -4.740   2.812  0.00  0.00    +0.019 A 
ATOM     18  C   LIG    1        0.720  -5.477   3.373  0.00  0.00    +0.013 A 
ATOM     19  C   LIG    1        0.998  -6.540   4.205  0.00  0.00    +0.020 A 
ATOM     20  C   LIG    1        2.312  -6.880   4.485  0.00  0.00    +0.041 A 
ATOM     21 CL   LIG    1        2.652  -8.220   5.535  0.00  0.00    -0.084 Cl
ATOM     22  C   LIG    1        3.355  -6.155   3.933  0.00  0.00    +0.020 A 
ATOM     23  C   LIG    1        3.093  -5.093   3.095  0.00  0.00    +0.013 A 
ENDBRANCH  15  17
ENDBRANCH  14  15
ENDBRANCH   9  14
TORSDOF 4
