REMARK  Name = ZINC00171738
REMARK                            x       y       z     vdW  Elec       q    Type
REMARK                         _______ _______ _______ _____ _____    ______ ____
ROOT
ATOM      1  C   LIG    1        1.831   2.398  -1.966  0.00  0.00    +0.067 C 
ATOM      2  C   LIG    1        2.224   1.326  -0.947  0.00  0.00    +0.041 C 
ATOM      3  C   LIG    1        0.436   2.090  -2.518  0.00  0.00    +0.046 C 
ATOM      4  C   LIG    1       -0.580   2.142  -1.373  0.00  0.00    -0.001 C 
ATOM      5  C   LIG    1       -0.510   3.518  -0.704  0.00  0.00    +0.039 C 
ATOM      6  C   LIG    1        0.921   3.771  -0.223  0.00  0.00    +0.161 C 
ATOM      7  O   LIG    1        1.819   3.678  -1.331  0.00  0.00    -0.374 OA
ENDROOT
BRANCH   4   8
ATOM      8  C   LIG    1       -1.966   1.915  -1.919  0.00  0.00    -0.041 A 
ATOM      9  C   LIG    1       -2.138   1.592  -3.252  0.00  0.00    +0.008 A 
ATOM     10  C   LIG    1       -3.408   1.377  -3.754  0.00  0.00    +0.046 A 
ATOM     11  C   LIG    1       -4.511   1.498  -2.921  0.00  0.00    +0.120 A 
ATOM     12  C   LIG    1       -4.335   1.828  -1.585  0.00  0.00    +0.046 A 
ATOM     13  C   LIG    1       -3.064   2.035  -1.087  0.00  0.00    +0.008 A 
BRANCH  11  14
ATOM     14  O   LIG    1       -5.761   1.294  -3.413  0.00  0.00    -0.495 OA
ATOM     15  C   LIG    1       -5.865   0.958  -4.798  0.00  0.00    +0.277 C 
ENDBRANCH  11  14
ENDBRANCH   4   8
BRANCH   1  17
ATOM     16  C   LIG    1        4.231   2.745  -2.566  0.00  0.00    +0.007 C 
ATOM     17  C   LIG    1        2.843   2.407  -3.113  0.00  0.00    +0.031 C 
ENDBRANCH   1  17
BRANCH   4  18
ATOM     18  C   LIG    1       -0.250   1.057  -0.346  0.00  0.00    -0.008 C 
BRANCH  18  19
ATOM     19  C   LIG    1       -0.234  -0.309  -1.035  0.00  0.00    -0.086 C 
BRANCH  19  20
ATOM     20  N   LIG    1        0.245  -1.323  -0.079  0.00  0.00    +0.378 N 
ATOM     21  H   LIG    1        1.204  -1.092   0.206  0.00  0.00    -0.090 HD
ATOM     22  H   LIG    1        0.241  -2.244  -0.515  0.00  0.00    -0.090 HD
ATOM     23  H   LIG    1       -0.353  -1.336   0.745  0.00  0.00    -0.090 HD
ENDBRANCH  19  20
ENDBRANCH  18  19
ENDBRANCH   4  18
TORSDOF 6
