REMARK  Name = ZINC00184798
REMARK                            x       y       z     vdW  Elec       q    Type
REMARK                         _______ _______ _______ _____ _____    ______ ____
ROOT
ATOM      1  N   LIG    1        0.059  -4.171  -0.021  0.00  0.00    -0.267 N 
ATOM      2  C   LIG    1       -0.035  -4.853  -1.193  0.00  0.00    +0.207 A 
ATOM      3  N   LIG    1       -0.023  -6.148  -1.258  0.00  0.00    -0.235 NA
ATOM      4  C   LIG    1        0.086  -6.928  -0.144  0.00  0.00    +0.096 A 
ATOM      5  C   LIG    1        0.113  -8.397  -0.077  0.00  0.00    +0.055 A 
ATOM      6  C   LIG    1        0.031  -9.317  -1.160  0.00  0.00    +0.043 A 
ATOM      7  C   LIG    1        0.075 -10.675  -0.885  0.00  0.00    +0.043 A 
ATOM      8  C   LIG    1        0.197 -11.118   0.418  0.00  0.00    +0.114 A 
ATOM      9  N   LIG    1        0.272 -10.256   1.415  0.00  0.00    -0.248 NA
ATOM     10  C   LIG    1        0.234  -8.955   1.207  0.00  0.00    +0.113 A 
ATOM     11  S   LIG    1        0.309  -7.546   2.287  0.00  0.00    -0.062 S 
ATOM     12  C   LIG    1        0.184  -6.259   1.075  0.00  0.00    +0.105 A 
ATOM     13  C   LIG    1        0.176  -4.861   1.139  0.00  0.00    +0.273 A 
ATOM     14  O   LIG    1        0.267  -4.280   2.208  0.00  0.00    -0.266 OA
ENDROOT
BRANCH   1  19
ATOM     15  C   LIG    1       -0.016   1.503   0.009  0.00  0.00    +0.044 C 
ATOM     16  C   LIG    1        0.004  -0.004   0.001  0.00  0.00    -0.050 A 
ATOM     17  C   LIG    1        1.157  -0.681   0.353  0.00  0.00    +0.005 A 
ATOM     18  C   LIG    1        1.178  -2.062   0.347  0.00  0.00    +0.026 A 
ATOM     19  C   LIG    1        0.040  -2.771  -0.013  0.00  0.00    +0.051 A 
ATOM     20  C   LIG    1       -1.117  -2.088  -0.366  0.00  0.00    +0.026 A 
ATOM     21  C   LIG    1       -1.133  -0.707  -0.354  0.00  0.00    +0.005 A 
ENDBRANCH   1  19
BRANCH   6  22
ATOM     22  N   LIG    1       -0.091  -8.863  -2.465  0.00  0.00    -0.335 N 
ATOM     23  C   LIG    1        1.108  -8.605  -3.266  0.00  0.00    +0.129 C 
ATOM     24  C   LIG    1       -1.419  -8.643  -3.043  0.00  0.00    +0.129 C 
ENDBRANCH   6  22
TORSDOF 2
