REMARK  Name = ZINC00163299
REMARK                            x       y       z     vdW  Elec       q    Type
REMARK                         _______ _______ _______ _____ _____    ______ ____
ROOT
ATOM      1  C   LIG    1        2.575  -2.538   4.290  0.00  0.00    +0.109 A 
ATOM      2  N   LIG    1        3.170  -1.998   5.332  0.00  0.00    -0.239 NA
ATOM      3  C   LIG    1        3.753  -2.736   6.296  0.00  0.00    +0.079 A 
ATOM      4  C   LIG    1        4.421  -2.284   7.460  0.00  0.00    +0.029 A 
ATOM      5  C   LIG    1        4.961  -3.168   8.341  0.00  0.00    +0.002 A 
ATOM      6  C   LIG    1        4.881  -4.539   8.140  0.00  0.00    +0.001 A 
ATOM      7  C   LIG    1        4.237  -5.022   7.016  0.00  0.00    +0.017 A 
ATOM      8  C   LIG    1        3.688  -4.138   6.120  0.00  0.00    +0.040 A 
ATOM      9  S   LIG    1        2.791  -4.287   4.594  0.00  0.00    -0.067 S 
ENDROOT
BRANCH   1  13
ATOM     10  C   LIG    1        0.625  -0.618   1.041  0.00  0.00    +0.120 A 
ATOM     11  C   LIG    1        1.202   0.143   2.050  0.00  0.00    +0.046 A 
ATOM     12  C   LIG    1        1.835  -0.477   3.106  0.00  0.00    +0.014 A 
ATOM     13  C   LIG    1        1.897  -1.870   3.160  0.00  0.00    +0.007 A 
ATOM     14  C   LIG    1        1.316  -2.631   2.144  0.00  0.00    +0.014 A 
ATOM     15  C   LIG    1        0.680  -2.005   1.094  0.00  0.00    +0.046 A 
BRANCH  10  17
ATOM     16  C   LIG    1       -0.017   1.425   0.010  0.00  0.00    +0.277 C 
ATOM     17  O   LIG    1        0.002  -0.004   0.002  0.00  0.00    -0.495 OA
ENDBRANCH  10  17
ENDBRANCH   1  13
TORSDOF 2
