REMARK  Name = ZINC00092708
REMARK                            x       y       z     vdW  Elec       q    Type
REMARK                         _______ _______ _______ _____ _____    ______ ____
ROOT
ATOM      1  N   LIG    1        0.050  -2.637   2.417  0.00  0.00    -0.266 N 
ATOM      2  H   LIG    1        0.121  -2.125   3.237  0.00  0.00    +0.157 HD
ATOM      3  C   LIG    1       -0.033  -3.982   2.467  0.00  0.00    +0.249 C 
ATOM      4  O   LIG    1       -0.029  -4.630   1.439  0.00  0.00    -0.270 OA
ENDROOT
BRANCH   1  10
ATOM      5  C   LIG    1        0.028  -2.965  -2.361  0.00  0.00    +0.065 C 
ATOM      6  C   LIG    1        0.023  -2.114  -1.118  0.00  0.00    +0.040 A 
ATOM      7  C   LIG    1        0.002  -0.738  -1.234  0.00  0.00    +0.023 A 
ATOM      8  C   LIG    1       -0.003   0.041  -0.085  0.00  0.00    +0.005 A 
ATOM      9  C   LIG    1        0.013  -0.595   1.144  0.00  0.00    +0.044 A 
ATOM     10  C   LIG    1        0.034  -1.984   1.186  0.00  0.00    +0.125 A 
ATOM     11  N   LIG    1        0.033  -2.693   0.067  0.00  0.00    -0.237 NA
ENDBRANCH   1  10
BRANCH   3  12
ATOM     12  C   LIG    1       -0.129  -4.668   3.773  0.00  0.00    +0.041 A 
ATOM     13  C   LIG    1       -0.140  -3.925   4.955  0.00  0.00    +0.013 A 
ATOM     14  C   LIG    1       -0.230  -4.568   6.172  0.00  0.00    +0.004 A 
ATOM     15  C   LIG    1       -0.309  -5.948   6.226  0.00  0.00    +0.045 A 
ATOM     16  C   LIG    1       -0.299  -6.695   5.056  0.00  0.00    +0.121 A 
ATOM     17  C   LIG    1       -0.215  -6.059   3.829  0.00  0.00    +0.058 A 
BRANCH  16  18
ATOM     18  O   LIG    1       -0.377  -8.050   5.115  0.00  0.00    -0.495 OA
ATOM     19  C   LIG    1       -0.467  -8.639   6.413  0.00  0.00    +0.277 C 
ENDBRANCH  16  18
ENDBRANCH   3  12
TORSDOF 3
