REMARK  Name = ZINC00087295
REMARK                            x       y       z     vdW  Elec       q    Type
REMARK                         _______ _______ _______ _____ _____    ______ ____
ROOT
ATOM      1  C   LIG    1        1.021  -3.651   3.023  0.00  0.00    +0.025 A 
ATOM      2  C   LIG    1        0.493  -4.498   2.052  0.00  0.00    +0.030 A 
ATOM      3  C   LIG    1       -0.021  -5.714   2.389  0.00  0.00    +0.051 A 
ATOM      4 CL   LIG    1       -0.675  -6.754   1.162  0.00  0.00    -0.083 Cl
ATOM      5  C   LIG    1       -0.021  -6.122   3.734  0.00  0.00    +0.022 A 
ATOM      6  C   LIG    1       -0.543  -7.370   4.120  0.00  0.00    +0.013 A 
ATOM      7  C   LIG    1       -0.510  -7.700   5.445  0.00  0.00    +0.020 A 
ATOM      8  C   LIG    1        0.031  -6.810   6.370  0.00  0.00    +0.111 A 
ATOM      9  N   LIG    1        0.516  -5.648   6.006  0.00  0.00    -0.251 NA
ATOM     10  C   LIG    1        0.514  -5.264   4.726  0.00  0.00    +0.114 A 
ATOM     11  C   LIG    1        1.043  -4.015   4.339  0.00  0.00    +0.148 A 
ENDROOT
BRANCH  11  12
ATOM     12  O   LIG    1        1.567  -3.177   5.271  0.00  0.00    -0.504 OA
ATOM     13  H   LIG    1        1.917  -2.348   5.011  0.00  0.00    +0.292 HD
ENDBRANCH  11  12
BRANCH   1  14
ATOM     14  C   LIG    1        1.583  -2.313   2.615  0.00  0.00    +0.173 C 
BRANCH  14  15
ATOM     15  C   LIG    1        3.062  -2.445   2.362  0.00  0.00    +0.130 A 
ATOM     16  C   LIG    1        4.040  -2.103   3.220  0.00  0.00    +0.047 A 
ATOM     17  C   LIG    1        5.267  -2.393   2.580  0.00  0.00    +0.041 A 
ATOM     18  C   LIG    1        4.965  -2.896   1.369  0.00  0.00    +0.195 A 
ATOM     19  O   LIG    1        3.628  -2.930   1.245  0.00  0.00    -0.466 OA
ENDBRANCH  14  15
BRANCH  14  21
ATOM     20  C   LIG    1        0.819  -0.539   1.129  0.00  0.00    +0.214 C 
ATOM     21  N   LIG    1        0.917  -1.857   1.391  0.00  0.00    -0.301 N 
ATOM     22  H   LIG    1        0.548  -2.504   0.770  0.00  0.00    +0.150 HD
ATOM     23  O   LIG    1        1.281   0.270   1.906  0.00  0.00    -0.276 OA
BRANCH  20  25
ATOM     24  C   LIG    1        0.160   1.459  -0.183  0.00  0.00    +0.013 C 
ATOM     25  C   LIG    1        0.135  -0.070  -0.129  0.00  0.00    +0.092 C 
ENDBRANCH  20  25
ENDBRANCH  14  21
ENDBRANCH   1  14
TORSDOF 5
