REMARK  Name = ZINC00132781
REMARK                            x       y       z     vdW  Elec       q    Type
REMARK                         _______ _______ _______ _____ _____    ______ ____
ROOT
ATOM      1  C   LIG    1       -2.485   3.700   0.043  0.00  0.00    +0.040 A 
ATOM      2  C   LIG    1       -3.660   2.976   0.050  0.00  0.00    +0.058 A 
ATOM      3  C   LIG    1       -3.627   1.592   0.043  0.00  0.00    +0.029 A 
ATOM      4  C   LIG    1       -2.417   0.925   0.029  0.00  0.00    +0.044 A 
ATOM      5 BR   LIG    1       -2.380  -0.965   0.019  0.00  0.00    -0.048 Br
ATOM      6  C   LIG    1       -1.227   1.645   0.017  0.00  0.00    +0.080 A 
ATOM      7  N   LIG    1       -0.011   0.966   0.007  0.00  0.00    -0.316 N 
ATOM      8  H   LIG    1        0.003  -0.034   0.006  0.00  0.00    +0.169 HD
ATOM      9  C   LIG    1        1.148   1.655   0.000  0.00  0.00    +0.314 A 
ATOM     10  O   LIG    1        2.211   1.067  -0.013  0.00  0.00    -0.262 OA
ATOM     11  C   LIG    1        1.111   3.146   0.008  0.00  0.00    +0.314 A 
ATOM     12  O   LIG    1        2.144   3.785   0.001  0.00  0.00    -0.262 OA
ATOM     13  N   LIG    1       -0.080   3.777   0.022  0.00  0.00    -0.316 N 
ATOM     14  H   LIG    1       -0.116   4.777   0.028  0.00  0.00    +0.169 HD
ATOM     15  C   LIG    1       -1.261   3.040   0.029  0.00  0.00    +0.067 A 
ENDROOT
BRANCH   2  16
ATOM     16  C   LIG    1       -4.984   3.695   0.066  0.00  0.00    +0.418 C 
ATOM     17  F   LIG    1       -4.843   4.918   0.731  0.00  0.00    -0.166 F 
ATOM     18  F   LIG    1       -5.933   2.910   0.730  0.00  0.00    -0.166 F 
ATOM     19  F   LIG    1       -5.406   3.925  -1.248  0.00  0.00    -0.166 F 
ENDBRANCH   2  16
TORSDOF 1
