REMARK  Name = ZINC00135323
REMARK                            x       y       z     vdW  Elec       q    Type
REMARK                         _______ _______ _______ _____ _____    ______ ____
ROOT
ATOM      1  C   LIG    1       -0.017   1.382   0.010  0.00  0.00    +0.001 A 
ATOM      2  C   LIG    1        1.165   2.098   0.002  0.00  0.00    +0.001 A 
ATOM      3  C   LIG    1        2.385   1.440  -0.013  0.00  0.00    +0.012 A 
ATOM      4  C   LIG    1        2.420   0.051  -0.021  0.00  0.00    +0.034 A 
ATOM      5  C   LIG    1        1.217  -0.678  -0.013  0.00  0.00    +0.034 A 
ATOM      6  C   LIG    1        1.265  -2.156  -0.021  0.00  0.00    +0.206 C 
ATOM      7  C   LIG    1        2.569  -2.846  -0.036  0.00  0.00    +0.110 C 
ATOM      8 CL   LIG    1        2.619  -4.581  -0.045  0.00  0.00    -0.078 Cl
ATOM      9  C   LIG    1        3.717  -2.150  -0.043  0.00  0.00    +0.110 C 
ATOM     10 CL   LIG    1        5.233  -2.997  -0.060  0.00  0.00    -0.078 Cl
ATOM     11  O   LIG    1        0.235  -2.800  -0.015  0.00  0.00    -0.286 OA
ATOM     12  C   LIG    1        3.708  -0.675  -0.036  0.00  0.00    +0.206 C 
ATOM     13  O   LIG    1        4.755  -0.059  -0.043  0.00  0.00    -0.286 OA
ATOM     14  C   LIG    1        0.002  -0.004   0.002  0.00  0.00    +0.012 A 
ENDROOT
TORSDOF 0
