REMARK  Name = ZINC00152137
REMARK                            x       y       z     vdW  Elec       q    Type
REMARK                         _______ _______ _______ _____ _____    ______ ____
ROOT
ATOM      1  C   LIG    1        4.179  -2.711   1.767  0.00  0.00    +0.274 A 
ATOM      2  C   LIG    1        4.164  -4.095   1.738  0.00  0.00    +0.195 A 
ATOM      3  N   LIG    1        5.335  -4.697   1.771  0.00  0.00    -0.172 NA
ATOM      4  S   LIG    1        6.424  -3.428   1.839  0.00  0.00    +0.121 S 
ATOM      5  N   LIG    1        5.360  -2.135   1.819  0.00  0.00    -0.153 NA
ENDROOT
BRANCH   2   6
ATOM      6  N   LIG    1        2.966  -4.818   1.678  0.00  0.00    -0.306 N 
ATOM      7  C   LIG    1        2.368  -5.186   0.385  0.00  0.00    +0.135 C 
ATOM      8  C   LIG    1        2.055  -6.687   0.407  0.00  0.00    +0.178 C 
ATOM      9  O   LIG    1        1.284  -6.990   1.572  0.00  0.00    -0.377 OA
ATOM     10  C   LIG    1        1.961  -6.730   2.805  0.00  0.00    +0.178 C 
ATOM     11  C   LIG    1        2.272  -5.237   2.905  0.00  0.00    +0.135 C 
ENDBRANCH   2   6
BRANCH   1  12
ATOM     12  O   LIG    1        3.030  -1.983   1.737  0.00  0.00    -0.388 OA
BRANCH  12  17
ATOM     13  C   LIG    1       -0.102   1.615   0.609  0.00  0.00    +0.003 C 
ATOM     14  C   LIG    1        1.330   2.153   0.574  0.00  0.00    +0.019 C 
ATOM     15  C   LIG    1        2.113   1.586   1.762  0.00  0.00    +0.111 C 
ATOM     16  N   LIG    1        2.019   0.120   1.735  0.00  0.00    -0.267 N 
ATOM     17  C   LIG    1        3.131  -0.640   1.763  0.00  0.00    +0.410 C 
ATOM     18  O   LIG    1        4.226  -0.114   1.811  0.00  0.00    -0.226 OA
ATOM     19  C   LIG    1        0.689  -0.501   1.675  0.00  0.00    +0.111 C 
ATOM     20  C   LIG    1       -0.079   0.089   0.488  0.00  0.00    +0.019 C 
ENDBRANCH  12  17
ENDBRANCH   1  12
TORSDOF 3
