REMARK  Name = ZINC00159215
REMARK                            x       y       z     vdW  Elec       q    Type
REMARK                         _______ _______ _______ _____ _____    ______ ____
ROOT
ATOM      1  C   LIG    1        0.177  -4.865   1.168  0.00  0.00    +0.156 A 
ATOM      2  C   LIG    1        0.309  -6.269   1.171  0.00  0.00    +0.171 A 
ATOM      3  C   LIG    1        0.427  -6.917   2.413  0.00  0.00    +0.184 A 
ATOM      4  N   LIG    1        0.539  -8.251   2.134  0.00  0.00    -0.222 N 
ATOM      5  N   LIG    1        0.486  -8.375   0.737  0.00  0.00    -0.063 NA
ATOM      6  N   LIG    1        0.410  -6.191   3.527  0.00  0.00    -0.215 NA
ATOM      7  C   LIG    1        0.285  -4.882   3.474  0.00  0.00    +0.225 A 
ATOM      8  N   LIG    1        0.352  -7.207   0.210  0.00  0.00    -0.124 NA
ATOM      9  N   LIG    1        0.176  -4.226   2.332  0.00  0.00    -0.218 NA
ENDROOT
BRANCH   1  10
ATOM     10  N   LIG    1        0.058  -4.168  -0.021  0.00  0.00    -0.298 N 
ATOM     11  H   LIG    1       -0.017  -4.650  -0.860  0.00  0.00    +0.154 HD
BRANCH  10  16
ATOM     12  C   LIG    1        0.009   1.503   0.007  0.00  0.00    +0.044 C 
ATOM     13  C   LIG    1        0.022  -0.004  -0.000  0.00  0.00    -0.050 A 
ATOM     14  C   LIG    1        0.770  -0.692   0.938  0.00  0.00    +0.005 A 
ATOM     15  C   LIG    1        0.784  -2.073   0.934  0.00  0.00    +0.023 A 
ATOM     16  C   LIG    1        0.046  -2.771  -0.014  0.00  0.00    +0.032 A 
ATOM     17  C   LIG    1       -0.704  -2.076  -0.955  0.00  0.00    +0.023 A 
ATOM     18  C   LIG    1       -0.718  -0.696  -0.941  0.00  0.00    +0.005 A 
ENDBRANCH  10  16
ENDBRANCH   1  10
BRANCH   4  19
ATOM     19  C   LIG    1        0.685  -9.338   3.104  0.00  0.00    +0.182 C 
BRANCH  19  20
ATOM     20  C   LIG    1       -0.678  -9.843   3.502  0.00  0.00    -0.026 A 
ATOM     21  C   LIG    1       -1.338  -9.277   4.577  0.00  0.00    +0.005 A 
ATOM     22  C   LIG    1       -2.589  -9.740   4.942  0.00  0.00    +0.000 A 
ATOM     23  C   LIG    1       -3.179 -10.769   4.232  0.00  0.00    +0.000 A 
ATOM     24  C   LIG    1       -2.519 -11.335   3.158  0.00  0.00    +0.000 A 
ATOM     25  C   LIG    1       -1.270 -10.869   2.790  0.00  0.00    +0.005 A 
ENDBRANCH  19  20
ENDBRANCH   4  19
TORSDOF 4
