REMARK  Name = ZINC00229432
REMARK                            x       y       z     vdW  Elec       q    Type
REMARK                         _______ _______ _______ _____ _____    ______ ____
ROOT
ATOM      1  C   LIG    1        6.668  -2.801   3.897  0.00  0.00    +0.011 C 
ATOM      2  C   LIG    1        6.652  -1.601   4.846  0.00  0.00    -0.022 C 
ATOM      3  C   LIG    1        8.075  -1.336   5.344  0.00  0.00    +0.011 C 
ATOM      4  C   LIG    1        6.147  -0.369   4.089  0.00  0.00    +0.063 C 
ATOM      5  C   LIG    1        4.714  -0.638   3.649  0.00  0.00    +0.062 A 
ATOM      6  C   LIG    1        3.931  -1.521   4.404  0.00  0.00    +0.079 A 
ATOM      7  C   LIG    1        4.342  -2.188   5.551  0.00  0.00    +0.172 C 
ATOM      8  O   LIG    1        3.604  -2.954   6.138  0.00  0.00    -0.291 OA
ATOM      9  S   LIG    1        2.395  -1.512   3.528  0.00  0.00    -0.049 S 
ATOM     10  C   LIG    1        2.868  -0.400   2.277  0.00  0.00    +0.162 A 
ATOM     11  N   LIG    1        4.122  -0.114   2.602  0.00  0.00    -0.229 NA
ATOM     12  C   LIG    1        5.753  -1.918   6.041  0.00  0.00    +0.087 C 
ENDROOT
BRANCH  10  13
ATOM     13  N   LIG    1        2.125   0.070   1.217  0.00  0.00    -0.305 N 
ATOM     14  C   LIG    1        0.772  -0.505   1.227  0.00  0.00    +0.135 C 
ATOM     15  C   LIG    1        0.002  -0.004   0.002  0.00  0.00    +0.179 C 
ATOM     16  O   LIG    1       -0.017   1.426   0.010  0.00  0.00    -0.377 OA
ATOM     17  C   LIG    1        1.284   2.019   0.001  0.00  0.00    +0.179 C 
ATOM     18  C   LIG    1        2.067   1.539   1.225  0.00  0.00    +0.135 C 
ENDBRANCH  10  13
TORSDOF 1
