REMARK  Name = ZINC00257134
REMARK                            x       y       z     vdW  Elec       q    Type
REMARK                         _______ _______ _______ _____ _____    ______ ____
ROOT
ATOM      1  N   LIG    1       -3.754   3.417   0.058  0.00  0.00    -0.203 N 
ATOM      2  H   LIG    1       -2.926   3.923   0.052  0.00  0.00    +0.178 HD
ATOM      3  C   LIG    1       -3.720   2.070   0.051  0.00  0.00    +0.267 C 
ATOM      4  O   LIG    1       -4.758   1.435   0.058  0.00  0.00    -0.268 OA
ENDROOT
BRANCH   3   5
ATOM      5  C   LIG    1       -2.425   1.364   0.034  0.00  0.00    +0.080 A 
ATOM      6  C   LIG    1       -1.245   2.091   0.031  0.00  0.00    +0.025 A 
ATOM      7  C   LIG    1       -0.017   1.415   0.010  0.00  0.00    -0.017 A 
ATOM      8  C   LIG    1        1.200   2.121   0.002  0.00  0.00    +0.008 A 
ATOM      9  C   LIG    1        2.376   1.436  -0.013  0.00  0.00    +0.001 A 
ATOM     10  C   LIG    1        2.394   0.043  -0.021  0.00  0.00    +0.001 A 
ATOM     11  C   LIG    1        1.238  -0.674  -0.013  0.00  0.00    +0.008 A 
ATOM     12  C   LIG    1        0.002  -0.004   0.002  0.00  0.00    -0.014 A 
ATOM     13  C   LIG    1       -1.208  -0.718   0.010  0.00  0.00    +0.054 A 
ATOM     14  C   LIG    1       -2.395  -0.047   0.026  0.00  0.00    +0.130 A 
BRANCH  14  15
ATOM     15  O   LIG    1       -3.560  -0.743   0.033  0.00  0.00    -0.506 OA
ATOM     16  H   LIG    1       -3.889  -0.950   0.918  0.00  0.00    +0.292 HD
ENDBRANCH  14  15
ENDBRANCH   3   5
BRANCH   1  18
ATOM     17  C   LIG    1       -5.017   5.385   0.082  0.00  0.00    +0.138 C 
ATOM     18  N   LIG    1       -4.984   4.087   0.074  0.00  0.00    -0.187 NA
BRANCH  17  22
ATOM     19  C   LIG    1       -8.751   7.411   0.131  0.00  0.00    +0.161 A 
ATOM     20  C   LIG    1       -8.714   6.024   0.123  0.00  0.00    +0.050 A 
ATOM     21  C   LIG    1       -7.505   5.363   0.102  0.00  0.00    +0.013 A 
ATOM     22  C   LIG    1       -6.311   6.090   0.099  0.00  0.00    -0.002 A 
ATOM     23  C   LIG    1       -6.348   7.486   0.107  0.00  0.00    +0.058 A 
ATOM     24  C   LIG    1       -7.565   8.142   0.123  0.00  0.00    +0.159 A 
BRANCH  19  26
ATOM     25  C   LIG    1      -11.122   7.247   0.155  0.00  0.00    +0.277 C 
ATOM     26  O   LIG    1       -9.946   8.058   0.147  0.00  0.00    -0.491 OA
ENDBRANCH  19  26
BRANCH  24  27
ATOM     27  O   LIG    1       -7.604   9.502   0.131  0.00  0.00    -0.503 OA
ATOM     28  H   LIG    1       -7.625   9.900  -0.750  0.00  0.00    +0.292 HD
ENDBRANCH  24  27
ENDBRANCH  17  22
ENDBRANCH   1  18
TORSDOF 6
