REMARK  Name = ZINC00097282
REMARK                            x       y       z     vdW  Elec       q    Type
REMARK                         _______ _______ _______ _____ _____    ______ ____
ROOT
ATOM      1  C   LIG    1        2.402   0.034  -0.021  0.00  0.00    +0.122 A 
ATOM      2  C   LIG    1        2.377   1.421  -0.013  0.00  0.00    +0.046 A 
ATOM      3  C   LIG    1        1.170   2.092   0.002  0.00  0.00    +0.005 A 
ATOM      4  C   LIG    1       -0.017   1.384   0.010  0.00  0.00    +0.024 A 
ATOM      5  C   LIG    1        0.002  -0.004   0.002  0.00  0.00    +0.048 A 
ATOM      6  C   LIG    1        1.214  -0.680  -0.013  0.00  0.00    +0.069 A 
ENDROOT
BRANCH   5   7
ATOM      7  N   LIG    1       -1.202  -0.722   0.009  0.00  0.00    -0.203 N 
ATOM      8  C   LIG    1       -1.305  -2.063  -0.003  0.00  0.00    +0.250 C 
ATOM      9  C   LIG    1       -2.740  -2.422   0.013  0.00  0.00    +0.073 C 
ATOM     10  C   LIG    1       -3.428  -1.268   0.026  0.00  0.00    +0.073 C 
ATOM     11  O   LIG    1       -0.377  -2.846  -0.021  0.00  0.00    -0.270 OA
ATOM     12  C   LIG    1       -2.431  -0.175   0.024  0.00  0.00    +0.250 C 
ATOM     13  O   LIG    1       -2.679   1.013   0.032  0.00  0.00    -0.270 OA
ENDBRANCH   5   7
BRANCH   1  15
ATOM     14  C   LIG    1        4.775   0.174  -0.043  0.00  0.00    +0.277 C 
ATOM     15  O   LIG    1        3.591  -0.625  -0.036  0.00  0.00    -0.495 OA
ENDBRANCH   1  15
TORSDOF 2
