REMARK  Name = ZINC00086067
REMARK                            x       y       z     vdW  Elec       q    Type
REMARK                         _______ _______ _______ _____ _____    ______ ____
ROOT
ATOM      1  C   LIG    1        4.700   0.752  -0.041  0.00  0.00    +0.097 C 
ATOM      2  C   LIG    1        3.805  -0.464  -0.039  0.00  0.00    +0.130 C 
ATOM      3  C   LIG    1        2.413   0.016  -0.022  0.00  0.00    +0.049 A 
ATOM      4  C   LIG    1        2.394   1.426  -0.014  0.00  0.00    +0.054 A 
ATOM      5  C   LIG    1        1.169   2.098   0.002  0.00  0.00    +0.072 A 
ATOM      6 CL   LIG    1        1.131   3.833   0.011  0.00  0.00    -0.081 Cl
ATOM      7  C   LIG    1       -0.017   1.380   0.010  0.00  0.00    +0.080 A 
ATOM      8 CL   LIG    1       -1.535   2.223   0.021  0.00  0.00    -0.080 Cl
ATOM      9  C   LIG    1        0.002  -0.004   0.002  0.00  0.00    +0.080 A 
ATOM     10 CL   LIG    1       -1.492  -0.887   0.012  0.00  0.00    -0.080 Cl
ATOM     11  C   LIG    1        1.206  -0.689  -0.014  0.00  0.00    +0.072 A 
ATOM     12 CL   LIG    1        1.216  -2.425  -0.024  0.00  0.00    -0.081 Cl
ATOM     13  C   LIG    1        3.772   1.944  -0.025  0.00  0.00    +0.192 C 
ATOM     14  O   LIG    1        4.101   3.111  -0.021  0.00  0.00    -0.287 OA
ENDROOT
BRANCH   2  15
ATOM     15  O   LIG    1        4.165  -1.622  -0.049  0.00  0.00    -0.506 OA
ATOM     16  H   LIG    1        5.079  -1.828  -0.060  0.00  0.00    +0.292 HD
ENDBRANCH   2  15
TORSDOF 1
