REMARK  Name = ZINC00086599
REMARK                            x       y       z     vdW  Elec       q    Type
REMARK                         _______ _______ _______ _____ _____    ______ ____
ROOT
ATOM      1  C   LIG    1        4.285  -0.139  -2.368  0.00  0.00    +0.258 C 
ENDROOT
BRANCH   1   2
ATOM      2  C   LIG    1        2.816  -0.564  -2.418  0.00  0.00    +0.135 C 
BRANCH   2   3
ATOM      3  O   LIG    1        2.734  -1.989  -2.485  0.00  0.00    -0.390 OA
ATOM      4  H   LIG    1        3.137  -2.442  -1.731  0.00  0.00    +0.210 HD
ENDBRANCH   2   3
BRANCH   2   5
ATOM      5  C   LIG    1        2.100  -0.070  -1.159  0.00  0.00    -0.047 C 
BRANCH   5   6
ATOM      6  N   LIG    1        0.690  -0.478  -1.207  0.00  0.00    +0.382 N 
ATOM      7  H   LIG    1        0.251  -0.077  -2.022  0.00  0.00    -0.085 HD
ATOM      8  H   LIG    1        0.632  -1.484  -1.254  0.00  0.00    -0.085 HD
BRANCH   6  10
ATOM      9  C   LIG    1       -0.019   1.526   0.010  0.00  0.00    -0.014 C 
ATOM     10  C   LIG    1        0.002  -0.004   0.002  0.00  0.00    -0.078 C 
ATOM     11  C   LIG    1       -1.433  -0.534   0.013  0.00  0.00    -0.014 C 
ENDBRANCH   6  10
ENDBRANCH   5   6
ENDBRANCH   2   5
ENDBRANCH   1   2
BRANCH   1  12
ATOM     12  O   LIG    1        4.926  -0.498  -3.594  0.00  0.00    -0.489 OA
BRANCH  12  13
ATOM     13  C   LIG    1        6.244  -0.189  -3.715  0.00  0.00    +0.124 A 
ATOM     14  C   LIG    1        6.909   0.441  -2.672  0.00  0.00    +0.046 A 
ATOM     15  C   LIG    1        8.248   0.754  -2.797  0.00  0.00    +0.004 A 
ATOM     16  C   LIG    1        8.927   0.439  -3.959  0.00  0.00    +0.001 A 
ATOM     17  C   LIG    1        8.268  -0.188  -5.000  0.00  0.00    +0.007 A 
ATOM     18  C   LIG    1        6.929  -0.508  -4.878  0.00  0.00    -0.002 A 
BRANCH  18  19
ATOM     19  C   LIG    1        6.212  -1.197  -6.010  0.00  0.00    +0.065 C 
BRANCH  19  20
ATOM     20  C   LIG    1        5.524  -0.168  -6.870  0.00  0.00    -0.030 C 
ATOM     21  C   LIG    1        5.764  -0.122  -8.156  0.00  0.00    +0.004 C 
ENDBRANCH  19  20
ENDBRANCH  18  19
ENDBRANCH  12  13
ENDBRANCH   1  12
TORSDOF 9
