REMARK  Name = ZINC00172369
REMARK                            x       y       z     vdW  Elec       q    Type
REMARK                         _______ _______ _______ _____ _____    ______ ____
ROOT
ATOM      1  C   LIG    1       -1.596   1.384   0.669  0.00  0.00    +0.045 C 
ATOM      2  C   LIG    1       -1.424  -0.111   0.597  0.00  0.00    -0.028 A 
ATOM      3  C   LIG    1       -2.079  -0.826  -0.330  0.00  0.00    -0.008 A 
ATOM      4  C   LIG    1       -3.032  -0.331  -1.388  0.00  0.00    +0.052 C 
ATOM      5  S   LIG    1       -1.557  -2.500  -0.011  0.00  0.00    -0.074 S 
ATOM      6  C   LIG    1       -0.472  -2.195   1.358  0.00  0.00    +0.114 A 
ATOM      7  N   LIG    1        0.286  -2.944   2.134  0.00  0.00    -0.228 NA
ATOM      8  C   LIG    1        1.012  -2.394   3.089  0.00  0.00    +0.224 A 
ATOM      9  N   LIG    1        0.991  -1.091   3.307  0.00  0.00    -0.220 NA
ATOM     10  C   LIG    1        0.255  -0.267   2.579  0.00  0.00    +0.128 A 
ATOM     11  C   LIG    1       -0.541  -0.794   1.526  0.00  0.00    +0.050 A 
ENDROOT
BRANCH  10  12
ATOM     12  N   LIG    1        0.262   1.092   2.839  0.00  0.00    -0.343 N 
ATOM     13  H   LIG    1        0.418   1.412   3.741  0.00  0.00    +0.144 HD
ATOM     14  H   LIG    1        0.110   1.724   2.119  0.00  0.00    +0.144 HD
ENDBRANCH  10  12
TORSDOF 1
