REMARK  Name = ZINC00155677
REMARK                            x       y       z     vdW  Elec       q    Type
REMARK                         _______ _______ _______ _____ _____    ______ ____
ROOT
ATOM      1  C   LIG    1       -0.018   1.500   0.010  0.00  0.00    +0.063 C 
ATOM      2  C   LIG    1        1.386   2.039  -0.000  0.00  0.00    -0.022 C 
ATOM      3  C   LIG    1        2.436   1.329   0.408  0.00  0.00    -0.003 C 
ATOM      4  C   LIG    1        2.328  -0.013   0.824  0.00  0.00    +0.011 C 
ATOM      5  C   LIG    1        1.155  -0.701   0.588  0.00  0.00    +0.021 C 
ATOM      6  C   LIG    1        0.984  -2.123   0.918  0.00  0.00    +0.171 C 
ATOM      7  O   LIG    1        1.450  -2.615   1.924  0.00  0.00    -0.292 OA
ATOM      8  C   LIG    1        0.185  -2.938  -0.086  0.00  0.00    +0.158 C 
ATOM      9  C   LIG    1       -1.007  -2.130  -0.526  0.00  0.00    +0.164 C 
ATOM     10  O   LIG    1       -2.000  -2.717  -0.907  0.00  0.00    -0.292 OA
ATOM     11  C   LIG    1       -1.016  -0.731  -0.515  0.00  0.00    +0.051 C 
ATOM     12  C   LIG    1        0.002  -0.004   0.002  0.00  0.00    -0.030 C 
ENDROOT
TORSDOF 0
