REMARK  Name = ZINC00117601
REMARK                            x       y       z     vdW  Elec       q    Type
REMARK                         _______ _______ _______ _____ _____    ______ ____
ROOT
ATOM      1  C   LIG    1       -6.153   1.939   0.010  0.00  0.00    +0.163 A 
ATOM      2  C   LIG    1       -4.953   1.252  -0.006  0.00  0.00    +0.057 A 
ATOM      3  C   LIG    1       -3.748   1.956   0.026  0.00  0.00    -0.020 A 
ATOM      4  C   LIG    1       -3.760   3.352   0.063  0.00  0.00    +0.012 A 
ATOM      5  C   LIG    1       -4.960   4.032   0.072  0.00  0.00    +0.051 A 
ATOM      6  C   LIG    1       -6.157   3.332   0.046  0.00  0.00    +0.173 A 
ENDROOT
BRANCH   1   8
ATOM      7  C   LIG    1       -7.248  -0.171  -0.053  0.00  0.00    +0.277 C 
ATOM      8  O   LIG    1       -7.328   1.256  -0.017  0.00  0.00    -0.491 OA
ENDBRANCH   1   8
BRANCH   3   9
ATOM      9  C   LIG    1       -2.463   1.227   0.014  0.00  0.00    +0.032 C 
ATOM     10  C   LIG    1       -1.320   1.897   0.039  0.00  0.00    +0.174 C 
BRANCH  10  11
ATOM     11  N   LIG    1       -0.033   1.167   0.027  0.00  0.00    -0.001 N 
ATOM     12  O   LIG    1       -0.024  -0.051  -0.005  0.00  0.00    -0.131 OA
BRANCH  11  13
ATOM     13  O   LIG    1        1.018   1.783   0.044  0.00  0.00    -0.397 OA
ATOM     14  H   LIG    1        1.011   2.720   0.069  0.00  0.00    +0.329 HD
ENDBRANCH  11  13
ENDBRANCH  10  11
ENDBRANCH   3   9
BRANCH   6  15
ATOM     15  O   LIG    1       -7.338   4.006   0.056  0.00  0.00    -0.419 OA
BRANCH  15  16
ATOM     16  C   LIG    1       -7.968   4.118   1.241  0.00  0.00    +0.345 C 
ATOM     17  O   LIG    1       -7.433   3.714   2.254  0.00  0.00    -0.245 OA
BRANCH  16  18
ATOM     18  C   LIG    1       -9.310   4.731   1.308  0.00  0.00    +0.059 A 
ATOM     19  C   LIG    1       -9.926   5.201   0.147  0.00  0.00    +0.015 A 
ATOM     20  C   LIG    1      -11.181   5.768   0.216  0.00  0.00    +0.001 A 
ATOM     21  C   LIG    1      -11.826   5.882   1.435  0.00  0.00    +0.000 A 
ATOM     22  C   LIG    1      -11.220   5.423   2.591  0.00  0.00    +0.001 A 
ATOM     23  C   LIG    1       -9.967   4.849   2.535  0.00  0.00    +0.015 A 
ENDBRANCH  16  18
ENDBRANCH  15  16
ENDBRANCH   6  15
TORSDOF 7
