REMARK VINA RESULT:      -5.8      2.093      7.638
REMARK  Name = ZINC00000391
REMARK                            x       y       z     vdW  Elec       q    Type
REMARK                         _______ _______ _______ _____ _____    ______ ____
ROOT
ATOM      1  C   LIG    1       25.777  31.871  55.017  0.00  0.00    -0.034 A 
ATOM      2  C   LIG    1       25.342  31.543  56.289  0.00  0.00    +0.006 A 
ATOM      3  C   LIG    1       24.137  30.891  56.460  0.00  0.00    +0.024 A 
ATOM      4  C   LIG    1       23.362  30.564  55.355  0.00  0.00    +0.037 A 
ATOM      5  C   LIG    1       23.802  30.894  54.080  0.00  0.00    +0.024 A 
ATOM      6  C   LIG    1       25.006  31.550  53.916  0.00  0.00    +0.006 A 
ENDROOT
BRANCH   4   7
ATOM      7  N   LIG    1       22.142  29.903  55.526  0.00  0.00    -0.263 N 
ATOM      8  C   LIG    1       21.964  28.450  55.626  0.00  0.00    +0.149 C 
ATOM      9  C   LIG    1       20.484  28.217  55.804  0.00  0.00    -0.018 A 
ATOM     10  C   LIG    1       19.719  27.083  55.950  0.00  0.00    +0.006 A 
ATOM     11  C   LIG    1       18.345  27.190  56.097  0.00  0.00    +0.000 A 
ATOM     12  C   LIG    1       17.740  28.434  56.096  0.00  0.00    +0.001 A 
ATOM     13  C   LIG    1       18.498  29.577  55.949  0.00  0.00    +0.013 A 
ATOM     14  C   LIG    1       19.882  29.478  55.802  0.00  0.00    +0.042 A 
ATOM     15  C   LIG    1       20.939  30.494  55.633  0.00  0.00    +0.251 C 
ATOM     16  O   LIG    1       20.749  31.695  55.595  0.00  0.00    -0.270 OA
ENDBRANCH   4   7
BRANCH   1  18
ATOM     17  C   LIG    1       28.240  31.636  55.191  0.00  0.00    +0.024 C 
ATOM     18  C   LIG    1       27.092  32.583  54.834  0.00  0.00    +0.124 C 
BRANCH  18  19
ATOM     19  C   LIG    1       27.139  33.791  55.734  0.00  0.00    +0.312 C 
ATOM     20  O   LIG    1       27.881  33.801  56.702  0.00  0.00    -0.250 OA
BRANCH  19  21
ATOM     21  O   LIG    1       26.435  34.757  55.495  0.00  0.00    -0.480 OA
ATOM     22  H   LIG    1       25.889  35.115  56.166  0.00  0.00    +0.295 HD
ENDBRANCH  19  21
ENDBRANCH  18  19
ENDBRANCH   1  18
TORSDOF 4
