REMARK VINA RESULT:      -6.0      2.163      7.659
REMARK  Name = ZINC00000391
REMARK                            x       y       z     vdW  Elec       q    Type
REMARK                         _______ _______ _______ _____ _____    ______ ____
ROOT
ATOM      1  C   LIG    1       26.194  31.950  55.084  0.00  0.00    -0.034 A 
ATOM      2  C   LIG    1       25.421  31.741  53.956  0.00  0.00    +0.006 A 
ATOM      3  C   LIG    1       24.142  31.234  54.079  0.00  0.00    +0.024 A 
ATOM      4  C   LIG    1       23.633  30.935  55.335  0.00  0.00    +0.037 A 
ATOM      5  C   LIG    1       24.411  31.146  56.466  0.00  0.00    +0.024 A 
ATOM      6  C   LIG    1       25.691  31.648  56.336  0.00  0.00    +0.006 A 
ENDROOT
BRANCH   4   7
ATOM      7  N   LIG    1       22.338  30.422  55.462  0.00  0.00    -0.263 N 
ATOM      8  C   LIG    1       21.170  31.163  55.951  0.00  0.00    +0.149 C 
ATOM      9  C   LIG    1       20.010  30.199  55.906  0.00  0.00    -0.018 A 
ATOM     10  C   LIG    1       18.679  30.310  56.235  0.00  0.00    +0.006 A 
ATOM     11  C   LIG    1       17.835  29.222  56.082  0.00  0.00    +0.000 A 
ATOM     12  C   LIG    1       18.327  28.023  55.598  0.00  0.00    +0.001 A 
ATOM     13  C   LIG    1       19.661  27.901  55.265  0.00  0.00    +0.013 A 
ATOM     14  C   LIG    1       20.517  28.993  55.416  0.00  0.00    +0.042 A 
ATOM     15  C   LIG    1       21.957  29.171  55.149  0.00  0.00    +0.251 C 
ATOM     16  O   LIG    1       22.694  28.309  54.711  0.00  0.00    -0.270 OA
ENDBRANCH   4   7
BRANCH   1  18
ATOM     17  C   LIG    1       28.607  31.390  55.209  0.00  0.00    +0.024 C 
ATOM     18  C   LIG    1       27.589  32.503  54.947  0.00  0.00    +0.124 C 
BRANCH  18  19
ATOM     19  C   LIG    1       27.790  33.612  55.947  0.00  0.00    +0.312 C 
ATOM     20  O   LIG    1       27.193  34.667  55.814  0.00  0.00    -0.250 OA
BRANCH  19  21
ATOM     21  O   LIG    1       28.551  33.456  56.887  0.00  0.00    -0.480 OA
ATOM     22  H   LIG    1       29.392  33.068  56.749  0.00  0.00    +0.295 HD
ENDBRANCH  19  21
ENDBRANCH  18  19
ENDBRANCH   1  18
TORSDOF 4
