REMARK VINA RESULT:      -5.9      1.067      1.673
REMARK  Name = ZINC00000391
REMARK                            x       y       z     vdW  Elec       q    Type
REMARK                         _______ _______ _______ _____ _____    ______ ____
ROOT
ATOM      1  C   LIG    1       20.339  28.993  55.416  0.00  0.00    -0.034 A 
ATOM      2  C   LIG    1       21.525  28.284  55.353  0.00  0.00    +0.006 A 
ATOM      3  C   LIG    1       22.733  28.953  55.380  0.00  0.00    +0.024 A 
ATOM      4  C   LIG    1       22.756  30.339  55.471  0.00  0.00    +0.037 A 
ATOM      5  C   LIG    1       21.563  31.047  55.534  0.00  0.00    +0.024 A 
ATOM      6  C   LIG    1       20.359  30.372  55.501  0.00  0.00    +0.006 A 
ENDROOT
BRANCH   4   7
ATOM      7  N   LIG    1       23.977  31.019  55.499  0.00  0.00    -0.263 N 
ATOM      8  C   LIG    1       24.727  31.379  56.707  0.00  0.00    +0.149 C 
ATOM      9  C   LIG    1       25.969  32.093  56.236  0.00  0.00    -0.018 A 
ATOM     10  C   LIG    1       27.038  32.659  56.893  0.00  0.00    +0.006 A 
ATOM     11  C   LIG    1       28.055  33.259  56.169  0.00  0.00    +0.000 A 
ATOM     12  C   LIG    1       28.000  33.293  54.787  0.00  0.00    +0.001 A 
ATOM     13  C   LIG    1       26.932  32.729  54.119  0.00  0.00    +0.013 A 
ATOM     14  C   LIG    1       25.904  32.122  54.841  0.00  0.00    +0.042 A 
ATOM     15  C   LIG    1       24.662  31.444  54.423  0.00  0.00    +0.251 C 
ATOM     16  O   LIG    1       24.307  31.294  53.269  0.00  0.00    -0.270 OA
ENDBRANCH   4   7
BRANCH   1  18
ATOM     17  C   LIG    1       17.903  29.202  55.832  0.00  0.00    +0.024 C 
ATOM     18  C   LIG    1       19.023  28.260  55.386  0.00  0.00    +0.124 C 
BRANCH  18  19
ATOM     19  C   LIG    1       19.086  27.077  56.318  0.00  0.00    +0.312 C 
ATOM     20  O   LIG    1       19.123  27.253  57.524  0.00  0.00    -0.250 OA
BRANCH  19  21
ATOM     21  O   LIG    1       19.100  25.944  55.866  0.00  0.00    -0.480 OA
ATOM     22  H   LIG    1       19.464  25.245  56.370  0.00  0.00    +0.295 HD
ENDBRANCH  19  21
ENDBRANCH  18  19
ENDBRANCH   1  18
TORSDOF 4
