REMARK VINA RESULT:      -6.1      0.000      0.000
REMARK  Name = ZINC00000391
REMARK                            x       y       z     vdW  Elec       q    Type
REMARK                         _______ _______ _______ _____ _____    ______ ____
ROOT
ATOM      1  C   LIG    1       20.488  28.733  56.347  0.00  0.00    -0.034 A 
ATOM      2  C   LIG    1       20.510  30.087  56.628  0.00  0.00    +0.006 A 
ATOM      3  C   LIG    1       21.680  30.805  56.479  0.00  0.00    +0.024 A 
ATOM      4  C   LIG    1       22.834  30.166  56.046  0.00  0.00    +0.037 A 
ATOM      5  C   LIG    1       22.809  28.807  55.764  0.00  0.00    +0.024 A 
ATOM      6  C   LIG    1       21.637  28.094  55.921  0.00  0.00    +0.006 A 
ENDROOT
BRANCH   4   7
ATOM      7  N   LIG    1       24.021  30.891  55.892  0.00  0.00    -0.263 N 
ATOM      8  C   LIG    1       24.925  31.289  56.977  0.00  0.00    +0.149 C 
ATOM      9  C   LIG    1       26.058  32.044  56.327  0.00  0.00    -0.018 A 
ATOM     10  C   LIG    1       27.188  32.654  56.818  0.00  0.00    +0.006 A 
ATOM     11  C   LIG    1       28.066  33.285  55.951  0.00  0.00    +0.000 A 
ATOM     12  C   LIG    1       27.809  33.304  54.592  0.00  0.00    +0.001 A 
ATOM     13  C   LIG    1       26.677  32.696  54.089  0.00  0.00    +0.013 A 
ATOM     14  C   LIG    1       25.788  32.057  54.956  0.00  0.00    +0.042 A 
ATOM     15  C   LIG    1       24.525  31.331  54.726  0.00  0.00    +0.251 C 
ATOM     16  O   LIG    1       24.011  31.157  53.638  0.00  0.00    -0.270 OA
ENDBRANCH   4   7
BRANCH   1  18
ATOM     17  C   LIG    1       19.529  26.457  56.577  0.00  0.00    +0.024 C 
ATOM     18  C   LIG    1       19.209  27.952  56.512  0.00  0.00    +0.124 C 
BRANCH  18  19
ATOM     19  C   LIG    1       18.302  28.221  55.340  0.00  0.00    +0.312 C 
ATOM     20  O   LIG    1       17.383  29.016  55.450  0.00  0.00    -0.250 OA
BRANCH  19  21
ATOM     21  O   LIG    1       18.485  27.644  54.282  0.00  0.00    -0.480 OA
ATOM     22  H   LIG    1       18.111  27.983  53.493  0.00  0.00    +0.295 HD
ENDBRANCH  19  21
ENDBRANCH  18  19
ENDBRANCH   1  18
TORSDOF 4
