REMARK VINA RESULT:      -5.6      2.330      7.698
REMARK  Name = ZINC00000391
REMARK                            x       y       z     vdW  Elec       q    Type
REMARK                         _______ _______ _______ _____ _____    ______ ____
ROOT
ATOM      1  C   LIG    1       25.552  32.049  55.682  0.00  0.00    -0.034 A 
ATOM      2  C   LIG    1       25.814  30.692  55.625  0.00  0.00    +0.006 A 
ATOM      3  C   LIG    1       24.829  29.783  55.959  0.00  0.00    +0.024 A 
ATOM      4  C   LIG    1       23.576  30.234  56.352  0.00  0.00    +0.037 A 
ATOM      5  C   LIG    1       23.316  31.597  56.408  0.00  0.00    +0.024 A 
ATOM      6  C   LIG    1       24.307  32.500  56.078  0.00  0.00    +0.006 A 
ENDROOT
BRANCH   4   7
ATOM      7  N   LIG    1       22.576  29.316  56.691  0.00  0.00    -0.263 N 
ATOM      8  C   LIG    1       22.292  28.822  58.043  0.00  0.00    +0.149 C 
ATOM      9  C   LIG    1       21.136  27.861  57.907  0.00  0.00    -0.018 A 
ATOM     10  C   LIG    1       20.437  27.094  58.810  0.00  0.00    +0.006 A 
ATOM     11  C   LIG    1       19.397  26.289  58.374  0.00  0.00    +0.000 A 
ATOM     12  C   LIG    1       19.060  26.253  57.032  0.00  0.00    +0.001 A 
ATOM     13  C   LIG    1       19.756  27.018  56.119  0.00  0.00    +0.013 A 
ATOM     14  C   LIG    1       20.804  27.833  56.550  0.00  0.00    +0.042 A 
ATOM     15  C   LIG    1       21.712  28.747  55.832  0.00  0.00    +0.251 C 
ATOM     16  O   LIG    1       21.684  28.956  54.634  0.00  0.00    -0.270 OA
ENDBRANCH   4   7
BRANCH   1  18
ATOM     17  C   LIG    1       27.139  32.739  53.906  0.00  0.00    +0.024 C 
ATOM     18  C   LIG    1       26.630  33.038  55.317  0.00  0.00    +0.124 C 
BRANCH  18  19
ATOM     19  C   LIG    1       27.769  32.923  56.297  0.00  0.00    +0.312 C 
ATOM     20  O   LIG    1       28.867  32.554  55.915  0.00  0.00    -0.250 OA
BRANCH  19  21
ATOM     21  O   LIG    1       27.593  33.198  57.472  0.00  0.00    -0.480 OA
ATOM     22  H   LIG    1       27.751  34.068  57.778  0.00  0.00    +0.295 HD
ENDBRANCH  19  21
ENDBRANCH  18  19
ENDBRANCH   1  18
TORSDOF 4
