REMARK VINA RESULT:      -5.0      3.170      6.503
REMARK  Name = ZINC00000361
REMARK                            x       y       z     vdW  Elec       q    Type
REMARK                         _______ _______ _______ _____ _____    ______ ____
ROOT
ATOM      1  C   LIG    1       25.623  31.980  56.090  0.00  0.00    -0.034 A 
ATOM      2  C   LIG    1       25.683  30.604  55.972  0.00  0.00    +0.005 A 
ATOM      3  C   LIG    1       24.520  29.862  55.920  0.00  0.00    +0.009 A 
ATOM      4  C   LIG    1       23.284  30.502  55.976  0.00  0.00    -0.018 A 
ATOM      5  C   LIG    1       23.230  31.890  56.090  0.00  0.00    +0.009 A 
ATOM      6  C   LIG    1       24.399  32.622  56.146  0.00  0.00    +0.005 A 
ENDROOT
BRANCH   4   7
ATOM      7  C   LIG    1       22.031  29.711  55.915  0.00  0.00    -0.018 A 
ATOM      8  C   LIG    1       22.037  28.363  56.270  0.00  0.00    +0.008 A 
ATOM      9  C   LIG    1       20.867  27.634  56.217  0.00  0.00    +0.001 A 
ATOM     10  C   LIG    1       19.692  28.235  55.801  0.00  0.00    +0.000 A 
ATOM     11  C   LIG    1       19.681  29.570  55.442  0.00  0.00    +0.001 A 
ATOM     12  C   LIG    1       20.845  30.310  55.497  0.00  0.00    +0.008 A 
ENDBRANCH   4   7
BRANCH   1  14
ATOM     13  C   LIG    1       26.565  34.274  56.032  0.00  0.00    +0.024 C 
ATOM     14  C   LIG    1       26.896  32.785  56.152  0.00  0.00    +0.124 C 
BRANCH  14  15
ATOM     15  C   LIG    1       27.803  32.379  55.018  0.00  0.00    +0.312 C 
ATOM     16  O   LIG    1       28.879  31.883  55.253  0.00  0.00    -0.250 OA
BRANCH  15  17
ATOM     17  O   LIG    1       27.411  32.563  53.747  0.00  0.00    -0.480 OA
ATOM     18  H   LIG    1       26.700  33.142  53.556  0.00  0.00    +0.295 HD
ENDBRANCH  15  17
ENDBRANCH  14  15
ENDBRANCH   1  14
TORSDOF 4
