REMARK VINA RESULT:      -5.4      3.216      6.610
REMARK  Name = ZINC00000361
REMARK                            x       y       z     vdW  Elec       q    Type
REMARK                         _______ _______ _______ _____ _____    ______ ____
ROOT
ATOM      1  C   LIG    1       25.709  31.821  55.085  0.00  0.00    -0.034 A 
ATOM      2  C   LIG    1       24.832  31.539  54.054  0.00  0.00    +0.005 A 
ATOM      3  C   LIG    1       23.765  30.689  54.266  0.00  0.00    +0.009 A 
ATOM      4  C   LIG    1       23.568  30.122  55.523  0.00  0.00    -0.018 A 
ATOM      5  C   LIG    1       24.453  30.413  56.559  0.00  0.00    +0.009 A 
ATOM      6  C   LIG    1       25.519  31.261  56.335  0.00  0.00    +0.005 A 
ENDROOT
BRANCH   4   7
ATOM      7  C   LIG    1       22.420  29.212  55.758  0.00  0.00    -0.018 A 
ATOM      8  C   LIG    1       21.254  29.348  55.008  0.00  0.00    +0.008 A 
ATOM      9  C   LIG    1       20.192  28.495  55.227  0.00  0.00    +0.001 A 
ATOM     10  C   LIG    1       20.279  27.513  56.198  0.00  0.00    +0.000 A 
ATOM     11  C   LIG    1       21.432  27.376  56.949  0.00  0.00    +0.001 A 
ATOM     12  C   LIG    1       22.502  28.221  56.734  0.00  0.00    +0.008 A 
ENDBRANCH   4   7
BRANCH   1  14
ATOM     13  C   LIG    1       28.182  31.958  54.953  0.00  0.00    +0.024 C 
ATOM     14  C   LIG    1       26.876  32.746  54.846  0.00  0.00    +0.124 C 
BRANCH  14  15
ATOM     15  C   LIG    1       26.866  33.844  55.878  0.00  0.00    +0.312 C 
ATOM     16  O   LIG    1       27.724  33.883  56.727  0.00  0.00    -0.250 OA
BRANCH  15  17
ATOM     17  O   LIG    1       25.907  34.783  55.850  0.00  0.00    -0.480 OA
ATOM     18  H   LIG    1       25.674  35.239  56.635  0.00  0.00    +0.295 HD
ENDBRANCH  15  17
ENDBRANCH  14  15
ENDBRANCH   1  14
TORSDOF 4
