REMARK VINA RESULT:      -5.5      1.308      1.631
REMARK  Name = ZINC00000361
REMARK                            x       y       z     vdW  Elec       q    Type
REMARK                         _______ _______ _______ _____ _____    ______ ____
ROOT
ATOM      1  C   LIG    1       22.530  29.986  56.518  0.00  0.00    -0.034 A 
ATOM      2  C   LIG    1       23.715  29.305  56.306  0.00  0.00    +0.005 A 
ATOM      3  C   LIG    1       24.878  30.002  56.045  0.00  0.00    +0.009 A 
ATOM      4  C   LIG    1       24.857  31.395  56.004  0.00  0.00    -0.018 A 
ATOM      5  C   LIG    1       23.661  32.076  56.222  0.00  0.00    +0.009 A 
ATOM      6  C   LIG    1       22.504  31.368  56.478  0.00  0.00    +0.005 A 
ENDROOT
BRANCH   4   7
ATOM      7  C   LIG    1       26.104  32.151  55.728  0.00  0.00    -0.018 A 
ATOM      8  C   LIG    1       27.276  31.471  55.400  0.00  0.00    +0.008 A 
ATOM      9  C   LIG    1       28.431  32.180  55.139  0.00  0.00    +0.001 A 
ATOM     10  C   LIG    1       28.430  33.561  55.215  0.00  0.00    +0.000 A 
ATOM     11  C   LIG    1       27.272  34.241  55.545  0.00  0.00    +0.001 A 
ATOM     12  C   LIG    1       26.110  33.542  55.802  0.00  0.00    +0.008 A 
ENDBRANCH   4   7
BRANCH   1  14
ATOM     13  C   LIG    1       21.582  27.725  56.892  0.00  0.00    +0.024 C 
ATOM     14  C   LIG    1       21.263  29.218  56.798  0.00  0.00    +0.124 C 
BRANCH  14  15
ATOM     15  C   LIG    1       20.277  29.452  55.682  0.00  0.00    +0.312 C 
ATOM     16  O   LIG    1       19.231  30.012  55.908  0.00  0.00    -0.250 OA
BRANCH  15  17
ATOM     17  O   LIG    1       20.565  29.043  54.436  0.00  0.00    -0.480 OA
ATOM     18  H   LIG    1       20.052  29.347  53.713  0.00  0.00    +0.295 HD
ENDBRANCH  15  17
ENDBRANCH  14  15
ENDBRANCH   1  14
TORSDOF 4
