REMARK VINA RESULT:      -5.0      3.786      5.817
REMARK  Name = ZINC00000361
REMARK                            x       y       z     vdW  Elec       q    Type
REMARK                         _______ _______ _______ _____ _____    ______ ____
ROOT
ATOM      1  C   LIG    1       22.215  31.939  55.999  0.00  0.00    -0.034 A 
ATOM      2  C   LIG    1       20.978  32.363  55.547  0.00  0.00    +0.005 A 
ATOM      3  C   LIG    1       20.522  33.627  55.864  0.00  0.00    +0.009 A 
ATOM      4  C   LIG    1       21.312  34.478  56.633  0.00  0.00    -0.018 A 
ATOM      5  C   LIG    1       22.559  34.047  57.082  0.00  0.00    +0.009 A 
ATOM      6  C   LIG    1       23.004  32.780  56.763  0.00  0.00    +0.005 A 
ENDROOT
BRANCH   4   7
ATOM      7  C   LIG    1       20.829  35.839  56.972  0.00  0.00    -0.018 A 
ATOM      8  C   LIG    1       21.740  36.870  57.193  0.00  0.00    +0.008 A 
ATOM      9  C   LIG    1       21.283  38.135  57.503  0.00  0.00    +0.001 A 
ATOM     10  C   LIG    1       19.925  38.378  57.607  0.00  0.00    +0.000 A 
ATOM     11  C   LIG    1       19.017  37.358  57.394  0.00  0.00    +0.001 A 
ATOM     12  C   LIG    1       19.462  36.090  57.078  0.00  0.00    +0.008 A 
ENDBRANCH   4   7
BRANCH   1  14
ATOM     13  C   LIG    1       24.088  30.337  56.273  0.00  0.00    +0.024 C 
ATOM     14  C   LIG    1       22.707  30.556  55.653  0.00  0.00    +0.124 C 
BRANCH  14  15
ATOM     15  C   LIG    1       22.799  30.415  54.156  0.00  0.00    +0.312 C 
ATOM     16  O   LIG    1       23.653  31.013  53.545  0.00  0.00    -0.250 OA
BRANCH  15  17
ATOM     17  O   LIG    1       21.938  29.620  53.502  0.00  0.00    -0.480 OA
ATOM     18  H   LIG    1       21.267  29.168  53.975  0.00  0.00    +0.295 HD
ENDBRANCH  15  17
ENDBRANCH  14  15
ENDBRANCH   1  14
TORSDOF 4
