REMARK VINA RESULT:      -5.6      0.000      0.000
REMARK  Name = ZINC00000361
REMARK                            x       y       z     vdW  Elec       q    Type
REMARK                         _______ _______ _______ _____ _____    ______ ____
ROOT
ATOM      1  C   LIG    1       21.910  31.138  55.341  0.00  0.00    -0.034 A 
ATOM      2  C   LIG    1       22.781  30.661  54.378  0.00  0.00    +0.005 A 
ATOM      3  C   LIG    1       24.109  31.035  54.401  0.00  0.00    +0.009 A 
ATOM      4  C   LIG    1       24.574  31.887  55.400  0.00  0.00    -0.018 A 
ATOM      5  C   LIG    1       23.692  32.361  56.370  0.00  0.00    +0.009 A 
ATOM      6  C   LIG    1       22.365  31.984  56.336  0.00  0.00    +0.005 A 
ENDROOT
BRANCH   4   7
ATOM      7  C   LIG    1       26.002  32.289  55.433  0.00  0.00    -0.018 A 
ATOM      8  C   LIG    1       27.000  31.342  55.213  0.00  0.00    +0.008 A 
ATOM      9  C   LIG    1       28.326  31.724  55.239  0.00  0.00    +0.001 A 
ATOM     10  C   LIG    1       28.666  33.041  55.493  0.00  0.00    +0.000 A 
ATOM     11  C   LIG    1       27.679  33.984  55.716  0.00  0.00    +0.001 A 
ATOM     12  C   LIG    1       26.350  33.614  55.687  0.00  0.00    +0.008 A 
ENDBRANCH   4   7
BRANCH   1  14
ATOM     13  C   LIG    1       19.678  31.537  56.347  0.00  0.00    +0.024 C 
ATOM     14  C   LIG    1       20.458  30.729  55.309  0.00  0.00    +0.124 C 
BRANCH  14  15
ATOM     15  C   LIG    1       20.343  29.260  55.625  0.00  0.00    +0.312 C 
ATOM     16  O   LIG    1       20.731  28.839  56.688  0.00  0.00    -0.250 OA
BRANCH  15  17
ATOM     17  O   LIG    1       19.803  28.422  54.726  0.00  0.00    -0.480 OA
ATOM     18  H   LIG    1       20.176  27.572  54.596  0.00  0.00    +0.295 HD
ENDBRANCH  15  17
ENDBRANCH  14  15
ENDBRANCH   1  14
TORSDOF 4
