REMARK VINA RESULT:      -5.5      2.195      3.727
REMARK  Name = ZINC00000010
REMARK                            x       y       z     vdW  Elec       q    Type
REMARK                         _______ _______ _______ _____ _____    ______ ____
ROOT
ATOM      1  C   LIG    1       23.977  31.496  57.569  0.00  0.00    +0.070 C 
ATOM      2  C   LIG    1       24.536  30.973  56.245  0.00  0.00    +0.194 C 
ATOM      3  C   LIG    1       23.449  30.935  55.190  0.00  0.00    +0.207 C 
ATOM      4  C   LIG    1       23.345  29.567  54.825  0.00  0.00    +0.103 C 
ATOM      5  C   LIG    1       24.233  28.847  55.539  0.00  0.00    +0.209 C 
ATOM      6  O   LIG    1       22.808  31.869  54.754  0.00  0.00    -0.288 OA
ATOM      7  O   LIG    1       24.954  29.609  56.382  0.00  0.00    -0.466 OA
ENDROOT
BRANCH   2   8
ATOM      8  C   LIG    1       25.687  31.831  55.786  0.00  0.00    +0.003 A 
ATOM      9  C   LIG    1       25.976  31.937  54.438  0.00  0.00    +0.008 A 
ATOM     10  C   LIG    1       27.028  32.728  54.018  0.00  0.00    +0.000 A 
ATOM     11  C   LIG    1       27.798  33.407  54.944  0.00  0.00    +0.000 A 
ATOM     12  C   LIG    1       27.512  33.296  56.293  0.00  0.00    +0.000 A 
ATOM     13  C   LIG    1       26.456  32.508  56.713  0.00  0.00    +0.008 A 
ENDBRANCH   2   8
BRANCH   5  14
ATOM     14  C   LIG    1       24.396  27.379  55.411  0.00  0.00    +0.372 C 
ATOM     15  O   LIG    1       25.421  26.921  54.948  0.00  0.00    -0.242 OA
BRANCH  14  16
ATOM     16  O   LIG    1       23.408  26.555  55.809  0.00  0.00    -0.475 OA
ATOM     17  H   LIG    1       23.211  26.465  56.721  0.00  0.00    +0.296 HD
ENDBRANCH  14  16
ENDBRANCH   5  14
TORSDOF 3
