REMARK VINA RESULT:      -5.6      1.778      2.512
REMARK  Name = ZINC00000010
REMARK                            x       y       z     vdW  Elec       q    Type
REMARK                         _______ _______ _______ _____ _____    ______ ____
ROOT
ATOM      1  C   LIG    1       24.838  31.021  57.847  0.00  0.00    +0.070 C 
ATOM      2  C   LIG    1       24.694  31.435  56.381  0.00  0.00    +0.194 C 
ATOM      3  C   LIG    1       23.468  32.305  56.195  0.00  0.00    +0.207 C 
ATOM      4  C   LIG    1       22.644  31.583  55.293  0.00  0.00    +0.103 C 
ATOM      5  C   LIG    1       23.255  30.429  54.958  0.00  0.00    +0.209 C 
ATOM      6  O   LIG    1       23.241  33.383  56.705  0.00  0.00    -0.288 OA
ATOM      7  O   LIG    1       24.451  30.286  55.559  0.00  0.00    -0.466 OA
ENDROOT
BRANCH   2   8
ATOM      8  C   LIG    1       25.932  32.160  55.918  0.00  0.00    +0.003 A 
ATOM      9  C   LIG    1       26.812  32.688  56.844  0.00  0.00    +0.008 A 
ATOM     10  C   LIG    1       27.948  33.349  56.419  0.00  0.00    +0.000 A 
ATOM     11  C   LIG    1       28.202  33.490  55.067  0.00  0.00    +0.000 A 
ATOM     12  C   LIG    1       27.319  32.967  54.140  0.00  0.00    +0.000 A 
ATOM     13  C   LIG    1       26.184  32.302  54.566  0.00  0.00    +0.008 A 
ENDBRANCH   2   8
BRANCH   5  14
ATOM     14  C   LIG    1       22.675  29.428  54.031  0.00  0.00    +0.372 C 
ATOM     15  O   LIG    1       23.373  28.543  53.580  0.00  0.00    -0.242 OA
BRANCH  14  16
ATOM     16  O   LIG    1       21.374  29.502  53.689  0.00  0.00    -0.475 OA
ATOM     17  H   LIG    1       21.022  28.907  53.057  0.00  0.00    +0.296 HD
ENDBRANCH  14  16
ENDBRANCH   5  14
TORSDOF 3
