REMARK VINA RESULT:      -5.3      1.633      1.981
REMARK  Name = ZINC00000010
REMARK                            x       y       z     vdW  Elec       q    Type
REMARK                         _______ _______ _______ _____ _____    ______ ____
ROOT
ATOM      1  C   LIG    1       23.923  31.067  53.971  0.00  0.00    +0.070 C 
ATOM      2  C   LIG    1       24.383  31.402  55.391  0.00  0.00    +0.194 C 
ATOM      3  C   LIG    1       24.440  30.146  56.237  0.00  0.00    +0.207 C 
ATOM      4  C   LIG    1       23.513  30.374  57.288  0.00  0.00    +0.103 C 
ATOM      5  C   LIG    1       22.952  31.590  57.132  0.00  0.00    +0.209 C 
ATOM      6  O   LIG    1       25.128  29.162  56.057  0.00  0.00    -0.288 OA
ATOM      7  O   LIG    1       23.418  32.235  56.046  0.00  0.00    -0.466 OA
ENDROOT
BRANCH   2   8
ATOM      8  C   LIG    1       25.728  32.079  55.361  0.00  0.00    +0.003 A 
ATOM      9  C   LIG    1       26.339  32.459  56.542  0.00  0.00    +0.008 A 
ATOM     10  C   LIG    1       27.574  33.076  56.514  0.00  0.00    +0.000 A 
ATOM     11  C   LIG    1       28.197  33.323  55.305  0.00  0.00    +0.000 A 
ATOM     12  C   LIG    1       27.585  32.948  54.123  0.00  0.00    +0.000 A 
ATOM     13  C   LIG    1       26.350  32.327  54.151  0.00  0.00    +0.008 A 
ENDBRANCH   2   8
BRANCH   5  14
ATOM     14  C   LIG    1       21.936  32.153  58.052  0.00  0.00    +0.372 C 
ATOM     15  O   LIG    1       20.887  32.576  57.612  0.00  0.00    -0.242 OA
BRANCH  14  16
ATOM     16  O   LIG    1       22.178  32.195  59.377  0.00  0.00    -0.475 OA
ATOM     17  H   LIG    1       23.050  32.331  59.690  0.00  0.00    +0.296 HD
ENDBRANCH  14  16
ENDBRANCH   5  14
TORSDOF 3
