REMARK VINA RESULT:      -4.8      2.087      5.217
REMARK  Name = ZINC00000010
REMARK                            x       y       z     vdW  Elec       q    Type
REMARK                         _______ _______ _______ _____ _____    ______ ____
ROOT
ATOM      1  C   LIG    1       23.962  30.149  56.568  0.00  0.00    +0.070 C 
ATOM      2  C   LIG    1       24.092  31.561  55.992  0.00  0.00    +0.194 C 
ATOM      3  C   LIG    1       24.603  31.504  54.567  0.00  0.00    +0.207 C 
ATOM      4  C   LIG    1       25.834  32.211  54.594  0.00  0.00    +0.103 C 
ATOM      5  C   LIG    1       26.068  32.649  55.848  0.00  0.00    +0.209 C 
ATOM      6  O   LIG    1       24.076  30.972  53.611  0.00  0.00    -0.288 OA
ATOM      7  O   LIG    1       25.091  32.302  56.705  0.00  0.00    -0.466 OA
ENDROOT
BRANCH   2   8
ATOM      8  C   LIG    1       22.767  32.275  56.049  0.00  0.00    +0.003 A 
ATOM      9  C   LIG    1       21.672  31.755  55.384  0.00  0.00    +0.008 A 
ATOM     10  C   LIG    1       20.455  32.408  55.441  0.00  0.00    +0.000 A 
ATOM     11  C   LIG    1       20.334  33.585  56.155  0.00  0.00    +0.000 A 
ATOM     12  C   LIG    1       21.430  34.108  56.817  0.00  0.00    +0.000 A 
ATOM     13  C   LIG    1       22.646  33.452  56.763  0.00  0.00    +0.008 A 
ENDBRANCH   2   8
BRANCH   5  14
ATOM     14  C   LIG    1       27.268  33.427  56.238  0.00  0.00    +0.372 C 
ATOM     15  O   LIG    1       27.207  34.637  56.320  0.00  0.00    -0.242 OA
BRANCH  14  16
ATOM     16  O   LIG    1       28.426  32.791  56.502  0.00  0.00    -0.475 OA
ATOM     17  H   LIG    1       29.193  33.284  56.718  0.00  0.00    +0.296 HD
ENDBRANCH  14  16
ENDBRANCH   5  14
TORSDOF 3
