REMARK VINA RESULT:      -5.9      0.000      0.000
REMARK  Name = ZINC00000010
REMARK                            x       y       z     vdW  Elec       q    Type
REMARK                         _______ _______ _______ _____ _____    ______ ____
ROOT
ATOM      1  C   LIG    1       25.019  29.566  55.580  0.00  0.00    +0.070 C 
ATOM      2  C   LIG    1       24.759  31.024  55.963  0.00  0.00    +0.194 C 
ATOM      3  C   LIG    1       24.281  31.115  57.398  0.00  0.00    +0.207 C 
ATOM      4  C   LIG    1       22.985  31.691  57.312  0.00  0.00    +0.103 C 
ATOM      5  C   LIG    1       22.689  31.928  56.019  0.00  0.00    +0.209 C 
ATOM      6  O   LIG    1       24.873  30.772  58.400  0.00  0.00    -0.288 OA
ATOM      7  O   LIG    1       23.681  31.561  55.187  0.00  0.00    -0.466 OA
ENDROOT
BRANCH   2   8
ATOM      8  C   LIG    1       26.007  31.847  55.770  0.00  0.00    +0.003 A 
ATOM      9  C   LIG    1       25.975  33.212  55.984  0.00  0.00    +0.008 A 
ATOM     10  C   LIG    1       27.120  33.966  55.812  0.00  0.00    +0.000 A 
ATOM     11  C   LIG    1       28.297  33.356  55.417  0.00  0.00    +0.000 A 
ATOM     12  C   LIG    1       28.328  31.991  55.198  0.00  0.00    +0.000 A 
ATOM     13  C   LIG    1       27.183  31.237  55.375  0.00  0.00    +0.008 A 
ENDBRANCH   2   8
BRANCH   5  14
ATOM     14  C   LIG    1       21.412  32.527  55.563  0.00  0.00    +0.372 C 
ATOM     15  O   LIG    1       20.430  31.827  55.419  0.00  0.00    -0.242 OA
BRANCH  14  16
ATOM     16  O   LIG    1       21.340  33.848  55.310  0.00  0.00    -0.475 OA
ATOM     17  H   LIG    1       20.942  34.424  55.933  0.00  0.00    +0.296 HD
ENDBRANCH  14  16
ENDBRANCH   5  14
TORSDOF 3
