REMARK VINA RESULT:      -5.7      0.831      1.142
REMARK  Name = ZINC00000323
REMARK                            x       y       z     vdW  Elec       q    Type
REMARK                         _______ _______ _______ _____ _____    ______ ____
ROOT
ATOM      1  C   LIG    1       22.495  30.185  56.422  0.00  0.00    -0.031 A 
ATOM      2  C   LIG    1       23.327  30.501  57.482  0.00  0.00    +0.005 A 
ATOM      3  C   LIG    1       24.536  31.125  57.252  0.00  0.00    +0.011 A 
ATOM      4  C   LIG    1       24.919  31.438  55.949  0.00  0.00    +0.017 A 
ATOM      5  C   LIG    1       24.077  31.117  54.884  0.00  0.00    +0.131 A 
ATOM      6  F   LIG    1       24.441  31.418  53.618  0.00  0.00    -0.205 F 
ATOM      7  C   LIG    1       22.871  30.487  55.127  0.00  0.00    +0.043 A 
ENDROOT
BRANCH   4   8
ATOM      8  C   LIG    1       26.218  32.110  55.696  0.00  0.00    -0.015 A 
ATOM      9  C   LIG    1       26.295  33.502  55.681  0.00  0.00    +0.008 A 
ATOM     10  C   LIG    1       27.505  34.121  55.444  0.00  0.00    +0.001 A 
ATOM     11  C   LIG    1       28.641  33.363  55.223  0.00  0.00    +0.000 A 
ATOM     12  C   LIG    1       28.571  31.981  55.238  0.00  0.00    +0.001 A 
ATOM     13  C   LIG    1       27.367  31.352  55.479  0.00  0.00    +0.008 A 
ENDBRANCH   4   8
BRANCH   1  15
ATOM     14  C   LIG    1       21.090  29.106  58.157  0.00  0.00    +0.024 C 
ATOM     15  C   LIG    1       21.176  29.503  56.682  0.00  0.00    +0.124 C 
BRANCH  15  16
ATOM     16  C   LIG    1       21.071  28.270  55.823  0.00  0.00    +0.312 C 
ATOM     17  O   LIG    1       20.182  28.180  54.992  0.00  0.00    -0.250 OA
BRANCH  16  18
ATOM     18  O   LIG    1       21.873  27.362  55.958  0.00  0.00    -0.480 OA
ATOM     19  H   LIG    1       21.697  26.523  55.582  0.00  0.00    +0.295 HD
ENDBRANCH  16  18
ENDBRANCH  15  16
ENDBRANCH   1  15
TORSDOF 4
