REMARK VINA RESULT:      -5.1      3.193      6.497
REMARK  Name = ZINC00000323
REMARK                            x       y       z     vdW  Elec       q    Type
REMARK                         _______ _______ _______ _____ _____    ______ ____
ROOT
ATOM      1  C   LIG    1       25.625  32.001  56.101  0.00  0.00    -0.031 A 
ATOM      2  C   LIG    1       24.412  32.651  56.245  0.00  0.00    +0.005 A 
ATOM      3  C   LIG    1       23.238  31.927  56.288  0.00  0.00    +0.011 A 
ATOM      4  C   LIG    1       23.275  30.537  56.187  0.00  0.00    +0.017 A 
ATOM      5  C   LIG    1       24.500  29.886  56.042  0.00  0.00    +0.131 A 
ATOM      6  F   LIG    1       24.544  28.539  55.945  0.00  0.00    -0.205 F 
ATOM      7  C   LIG    1       25.669  30.623  55.995  0.00  0.00    +0.043 A 
ENDROOT
BRANCH   4   8
ATOM      8  C   LIG    1       22.015  29.754  56.234  0.00  0.00    -0.015 A 
ATOM      9  C   LIG    1       21.440  29.426  57.460  0.00  0.00    +0.008 A 
ATOM     10  C   LIG    1       20.269  28.697  57.498  0.00  0.00    +0.001 A 
ATOM     11  C   LIG    1       19.666  28.292  56.320  0.00  0.00    +0.000 A 
ATOM     12  C   LIG    1       20.232  28.615  55.100  0.00  0.00    +0.001 A 
ATOM     13  C   LIG    1       21.400  29.348  55.051  0.00  0.00    +0.008 A 
ENDBRANCH   4   8
BRANCH   1  15
ATOM     14  C   LIG    1       26.570  34.289  55.951  0.00  0.00    +0.024 C 
ATOM     15  C   LIG    1       26.902  32.799  56.055  0.00  0.00    +0.124 C 
BRANCH  15  16
ATOM     16  C   LIG    1       27.712  32.381  54.855  0.00  0.00    +0.312 C 
ATOM     17  O   LIG    1       28.768  31.789  55.008  0.00  0.00    -0.250 OA
BRANCH  16  18
ATOM     18  O   LIG    1       27.313  32.634  53.731  0.00  0.00    -0.480 OA
ATOM     19  H   LIG    1       27.475  33.477  53.356  0.00  0.00    +0.295 HD
ENDBRANCH  16  18
ENDBRANCH  15  16
ENDBRANCH   1  15
TORSDOF 4
