REMARK VINA RESULT:      -5.4      2.947      6.303
REMARK  Name = ZINC00000323
REMARK                            x       y       z     vdW  Elec       q    Type
REMARK                         _______ _______ _______ _____ _____    ______ ____
ROOT
ATOM      1  C   LIG    1       25.738  31.912  55.148  0.00  0.00    -0.031 A 
ATOM      2  C   LIG    1       25.565  31.559  56.475  0.00  0.00    +0.005 A 
ATOM      3  C   LIG    1       24.500  30.765  56.848  0.00  0.00    +0.011 A 
ATOM      4  C   LIG    1       23.596  30.318  55.885  0.00  0.00    +0.017 A 
ATOM      5  C   LIG    1       23.775  30.677  54.549  0.00  0.00    +0.131 A 
ATOM      6  F   LIG    1       22.904  30.247  53.609  0.00  0.00    -0.205 F 
ATOM      7  C   LIG    1       24.844  31.477  54.189  0.00  0.00    +0.043 A 
ENDROOT
BRANCH   4   8
ATOM      8  C   LIG    1       22.449  29.463  56.280  0.00  0.00    -0.015 A 
ATOM      9  C   LIG    1       21.188  30.027  56.465  0.00  0.00    +0.008 A 
ATOM     10  C   LIG    1       20.126  29.227  56.833  0.00  0.00    +0.001 A 
ATOM     11  C   LIG    1       20.310  27.868  57.017  0.00  0.00    +0.000 A 
ATOM     12  C   LIG    1       21.560  27.304  56.834  0.00  0.00    +0.001 A 
ATOM     13  C   LIG    1       22.628  28.093  56.461  0.00  0.00    +0.008 A 
ENDBRANCH   4   8
BRANCH   1  15
ATOM     14  C   LIG    1       28.202  31.977  54.872  0.00  0.00    +0.024 C 
ATOM     15  C   LIG    1       26.905  32.779  54.750  0.00  0.00    +0.124 C 
BRANCH  15  16
ATOM     16  C   LIG    1       26.970  33.981  55.657  0.00  0.00    +0.312 C 
ATOM     17  O   LIG    1       27.749  33.994  56.595  0.00  0.00    -0.250 OA
BRANCH  16  18
ATOM     18  O   LIG    1       26.244  34.939  55.453  0.00  0.00    -0.480 OA
ATOM     19  H   LIG    1       25.327  34.877  55.632  0.00  0.00    +0.295 HD
ENDBRANCH  16  18
ENDBRANCH  15  16
ENDBRANCH   1  15
TORSDOF 4
