REMARK VINA RESULT:      -5.6      1.510      2.079
REMARK  Name = ZINC00000323
REMARK                            x       y       z     vdW  Elec       q    Type
REMARK                         _______ _______ _______ _____ _____    ______ ____
ROOT
ATOM      1  C   LIG    1       22.353  30.159  55.512  0.00  0.00    -0.031 A 
ATOM      2  C   LIG    1       22.906  30.599  54.322  0.00  0.00    +0.005 A 
ATOM      3  C   LIG    1       24.145  31.205  54.316  0.00  0.00    +0.011 A 
ATOM      4  C   LIG    1       24.841  31.376  55.511  0.00  0.00    +0.017 A 
ATOM      5  C   LIG    1       24.280  30.931  56.708  0.00  0.00    +0.131 A 
ATOM      6  F   LIG    1       24.948  31.092  57.872  0.00  0.00    -0.205 F 
ATOM      7  C   LIG    1       23.035  30.329  56.702  0.00  0.00    +0.043 A 
ENDROOT
BRANCH   4   8
ATOM      8  C   LIG    1       26.175  32.027  55.510  0.00  0.00    -0.015 A 
ATOM      9  C   LIG    1       26.287  33.393  55.761  0.00  0.00    +0.008 A 
ATOM     10  C   LIG    1       27.529  33.993  55.759  0.00  0.00    +0.001 A 
ATOM     11  C   LIG    1       28.663  33.241  55.508  0.00  0.00    +0.000 A 
ATOM     12  C   LIG    1       28.558  31.884  55.260  0.00  0.00    +0.001 A 
ATOM     13  C   LIG    1       27.321  31.273  55.265  0.00  0.00    +0.008 A 
ENDBRANCH   4   8
BRANCH   1  15
ATOM     14  C   LIG    1       20.054  30.267  56.435  0.00  0.00    +0.024 C 
ATOM     15  C   LIG    1       20.999  29.497  55.510  0.00  0.00    +0.124 C 
BRANCH  15  16
ATOM     16  C   LIG    1       21.133  28.078  55.998  0.00  0.00    +0.312 C 
ATOM     17  O   LIG    1       20.300  27.613  56.759  0.00  0.00    -0.250 OA
BRANCH  16  18
ATOM     18  O   LIG    1       22.075  27.394  55.634  0.00  0.00    -0.480 OA
ATOM     19  H   LIG    1       22.919  27.519  56.018  0.00  0.00    +0.295 HD
ENDBRANCH  16  18
ENDBRANCH  15  16
ENDBRANCH   1  15
TORSDOF 4
