REMARK VINA RESULT:      -5.7      0.000      0.000
REMARK  Name = ZINC00000323
REMARK                            x       y       z     vdW  Elec       q    Type
REMARK                         _______ _______ _______ _____ _____    ______ ____
ROOT
ATOM      1  C   LIG    1       22.505  29.934  56.405  0.00  0.00    -0.031 A 
ATOM      2  C   LIG    1       23.289  30.343  57.469  0.00  0.00    +0.005 A 
ATOM      3  C   LIG    1       24.448  31.057  57.242  0.00  0.00    +0.011 A 
ATOM      4  C   LIG    1       24.829  31.367  55.938  0.00  0.00    +0.017 A 
ATOM      5  C   LIG    1       24.035  30.952  54.868  0.00  0.00    +0.131 A 
ATOM      6  F   LIG    1       24.396  31.249  53.601  0.00  0.00    -0.205 F 
ATOM      7  C   LIG    1       22.879  30.232  55.108  0.00  0.00    +0.043 A 
ENDROOT
BRANCH   4   8
ATOM      8  C   LIG    1       26.073  32.136  55.688  0.00  0.00    -0.015 A 
ATOM      9  C   LIG    1       26.070  33.526  55.792  0.00  0.00    +0.008 A 
ATOM     10  C   LIG    1       27.230  34.235  55.558  0.00  0.00    +0.001 A 
ATOM     11  C   LIG    1       28.396  33.569  55.222  0.00  0.00    +0.000 A 
ATOM     12  C   LIG    1       28.404  32.190  55.117  0.00  0.00    +0.001 A 
ATOM     13  C   LIG    1       27.251  31.470  55.354  0.00  0.00    +0.008 A 
ENDBRANCH   4   8
BRANCH   1  15
ATOM     14  C   LIG    1       21.517  27.660  56.476  0.00  0.00    +0.024 C 
ATOM     15  C   LIG    1       21.241  29.154  56.661  0.00  0.00    +0.124 C 
BRANCH  15  16
ATOM     16  C   LIG    1       20.175  29.592  55.690  0.00  0.00    +0.312 C 
ATOM     17  O   LIG    1       19.700  30.712  55.770  0.00  0.00    -0.250 OA
BRANCH  16  18
ATOM     18  O   LIG    1       19.787  28.825  54.824  0.00  0.00    -0.480 OA
ATOM     19  H   LIG    1       18.941  28.430  54.895  0.00  0.00    +0.295 HD
ENDBRANCH  16  18
ENDBRANCH  15  16
ENDBRANCH   1  15
TORSDOF 4
