MODEL 1
REMARK VINA RESULT:      -6.1      0.000      0.000
REMARK  Name = ZINC00000391
REMARK                            x       y       z     vdW  Elec       q    Type
REMARK                         _______ _______ _______ _____ _____    ______ ____
ROOT
ATOM      1  C   LIG    1       20.488  28.733  56.347  0.00  0.00    -0.034 A 
ATOM      2  C   LIG    1       20.510  30.087  56.628  0.00  0.00    +0.006 A 
ATOM      3  C   LIG    1       21.680  30.805  56.479  0.00  0.00    +0.024 A 
ATOM      4  C   LIG    1       22.834  30.166  56.046  0.00  0.00    +0.037 A 
ATOM      5  C   LIG    1       22.809  28.807  55.764  0.00  0.00    +0.024 A 
ATOM      6  C   LIG    1       21.637  28.094  55.921  0.00  0.00    +0.006 A 
ENDROOT
BRANCH   4   7
ATOM      7  N   LIG    1       24.021  30.891  55.892  0.00  0.00    -0.263 N 
ATOM      8  C   LIG    1       24.925  31.289  56.977  0.00  0.00    +0.149 C 
ATOM      9  C   LIG    1       26.058  32.044  56.327  0.00  0.00    -0.018 A 
ATOM     10  C   LIG    1       27.188  32.654  56.818  0.00  0.00    +0.006 A 
ATOM     11  C   LIG    1       28.066  33.285  55.951  0.00  0.00    +0.000 A 
ATOM     12  C   LIG    1       27.809  33.304  54.592  0.00  0.00    +0.001 A 
ATOM     13  C   LIG    1       26.677  32.696  54.089  0.00  0.00    +0.013 A 
ATOM     14  C   LIG    1       25.788  32.057  54.956  0.00  0.00    +0.042 A 
ATOM     15  C   LIG    1       24.525  31.331  54.726  0.00  0.00    +0.251 C 
ATOM     16  O   LIG    1       24.011  31.157  53.638  0.00  0.00    -0.270 OA
ENDBRANCH   4   7
BRANCH   1  18
ATOM     17  C   LIG    1       19.529  26.457  56.577  0.00  0.00    +0.024 C 
ATOM     18  C   LIG    1       19.209  27.952  56.512  0.00  0.00    +0.124 C 
BRANCH  18  19
ATOM     19  C   LIG    1       18.302  28.221  55.340  0.00  0.00    +0.312 C 
ATOM     20  O   LIG    1       17.383  29.016  55.450  0.00  0.00    -0.250 OA
BRANCH  19  21
ATOM     21  O   LIG    1       18.485  27.644  54.282  0.00  0.00    -0.480 OA
ATOM     22  H   LIG    1       18.111  27.983  53.493  0.00  0.00    +0.295 HD
ENDBRANCH  19  21
ENDBRANCH  18  19
ENDBRANCH   1  18
TORSDOF 4
ENDMDL
MODEL 2
REMARK VINA RESULT:      -6.0      2.163      7.659
REMARK  Name = ZINC00000391
REMARK                            x       y       z     vdW  Elec       q    Type
REMARK                         _______ _______ _______ _____ _____    ______ ____
ROOT
ATOM      1  C   LIG    1       26.194  31.950  55.084  0.00  0.00    -0.034 A 
ATOM      2  C   LIG    1       25.421  31.741  53.956  0.00  0.00    +0.006 A 
ATOM      3  C   LIG    1       24.142  31.234  54.079  0.00  0.00    +0.024 A 
ATOM      4  C   LIG    1       23.633  30.935  55.335  0.00  0.00    +0.037 A 
ATOM      5  C   LIG    1       24.411  31.146  56.466  0.00  0.00    +0.024 A 
ATOM      6  C   LIG    1       25.691  31.648  56.336  0.00  0.00    +0.006 A 
ENDROOT
BRANCH   4   7
ATOM      7  N   LIG    1       22.338  30.422  55.462  0.00  0.00    -0.263 N 
ATOM      8  C   LIG    1       21.170  31.163  55.951  0.00  0.00    +0.149 C 
ATOM      9  C   LIG    1       20.010  30.199  55.906  0.00  0.00    -0.018 A 
ATOM     10  C   LIG    1       18.679  30.310  56.235  0.00  0.00    +0.006 A 
ATOM     11  C   LIG    1       17.835  29.222  56.082  0.00  0.00    +0.000 A 
ATOM     12  C   LIG    1       18.327  28.023  55.598  0.00  0.00    +0.001 A 
ATOM     13  C   LIG    1       19.661  27.901  55.265  0.00  0.00    +0.013 A 
ATOM     14  C   LIG    1       20.517  28.993  55.416  0.00  0.00    +0.042 A 
ATOM     15  C   LIG    1       21.957  29.171  55.149  0.00  0.00    +0.251 C 
ATOM     16  O   LIG    1       22.694  28.309  54.711  0.00  0.00    -0.270 OA
ENDBRANCH   4   7
BRANCH   1  18
ATOM     17  C   LIG    1       28.607  31.390  55.209  0.00  0.00    +0.024 C 
ATOM     18  C   LIG    1       27.589  32.503  54.947  0.00  0.00    +0.124 C 
BRANCH  18  19
ATOM     19  C   LIG    1       27.790  33.612  55.947  0.00  0.00    +0.312 C 
ATOM     20  O   LIG    1       27.193  34.667  55.814  0.00  0.00    -0.250 OA
BRANCH  19  21
ATOM     21  O   LIG    1       28.551  33.456  56.887  0.00  0.00    -0.480 OA
ATOM     22  H   LIG    1       29.392  33.068  56.749  0.00  0.00    +0.295 HD
ENDBRANCH  19  21
ENDBRANCH  18  19
ENDBRANCH   1  18
TORSDOF 4
ENDMDL
MODEL 3
REMARK VINA RESULT:      -5.9      1.067      1.673
REMARK  Name = ZINC00000391
REMARK                            x       y       z     vdW  Elec       q    Type
REMARK                         _______ _______ _______ _____ _____    ______ ____
ROOT
ATOM      1  C   LIG    1       20.339  28.993  55.416  0.00  0.00    -0.034 A 
ATOM      2  C   LIG    1       21.525  28.284  55.353  0.00  0.00    +0.006 A 
ATOM      3  C   LIG    1       22.733  28.953  55.380  0.00  0.00    +0.024 A 
ATOM      4  C   LIG    1       22.756  30.339  55.471  0.00  0.00    +0.037 A 
ATOM      5  C   LIG    1       21.563  31.047  55.534  0.00  0.00    +0.024 A 
ATOM      6  C   LIG    1       20.359  30.372  55.501  0.00  0.00    +0.006 A 
ENDROOT
BRANCH   4   7
ATOM      7  N   LIG    1       23.977  31.019  55.499  0.00  0.00    -0.263 N 
ATOM      8  C   LIG    1       24.727  31.379  56.707  0.00  0.00    +0.149 C 
ATOM      9  C   LIG    1       25.969  32.093  56.236  0.00  0.00    -0.018 A 
ATOM     10  C   LIG    1       27.038  32.659  56.893  0.00  0.00    +0.006 A 
ATOM     11  C   LIG    1       28.055  33.259  56.169  0.00  0.00    +0.000 A 
ATOM     12  C   LIG    1       28.000  33.293  54.787  0.00  0.00    +0.001 A 
ATOM     13  C   LIG    1       26.932  32.729  54.119  0.00  0.00    +0.013 A 
ATOM     14  C   LIG    1       25.904  32.122  54.841  0.00  0.00    +0.042 A 
ATOM     15  C   LIG    1       24.662  31.444  54.423  0.00  0.00    +0.251 C 
ATOM     16  O   LIG    1       24.307  31.294  53.269  0.00  0.00    -0.270 OA
ENDBRANCH   4   7
BRANCH   1  18
ATOM     17  C   LIG    1       17.903  29.202  55.832  0.00  0.00    +0.024 C 
ATOM     18  C   LIG    1       19.023  28.260  55.386  0.00  0.00    +0.124 C 
BRANCH  18  19
ATOM     19  C   LIG    1       19.086  27.077  56.318  0.00  0.00    +0.312 C 
ATOM     20  O   LIG    1       19.123  27.253  57.524  0.00  0.00    -0.250 OA
BRANCH  19  21
ATOM     21  O   LIG    1       19.100  25.944  55.866  0.00  0.00    -0.480 OA
ATOM     22  H   LIG    1       19.464  25.245  56.370  0.00  0.00    +0.295 HD
ENDBRANCH  19  21
ENDBRANCH  18  19
ENDBRANCH   1  18
TORSDOF 4
ENDMDL
MODEL 4
REMARK VINA RESULT:      -5.8      2.093      7.638
REMARK  Name = ZINC00000391
REMARK                            x       y       z     vdW  Elec       q    Type
REMARK                         _______ _______ _______ _____ _____    ______ ____
ROOT
ATOM      1  C   LIG    1       25.777  31.871  55.017  0.00  0.00    -0.034 A 
ATOM      2  C   LIG    1       25.342  31.543  56.289  0.00  0.00    +0.006 A 
ATOM      3  C   LIG    1       24.137  30.891  56.460  0.00  0.00    +0.024 A 
ATOM      4  C   LIG    1       23.362  30.564  55.355  0.00  0.00    +0.037 A 
ATOM      5  C   LIG    1       23.802  30.894  54.080  0.00  0.00    +0.024 A 
ATOM      6  C   LIG    1       25.006  31.550  53.916  0.00  0.00    +0.006 A 
ENDROOT
BRANCH   4   7
ATOM      7  N   LIG    1       22.142  29.903  55.526  0.00  0.00    -0.263 N 
ATOM      8  C   LIG    1       21.964  28.450  55.626  0.00  0.00    +0.149 C 
ATOM      9  C   LIG    1       20.484  28.217  55.804  0.00  0.00    -0.018 A 
ATOM     10  C   LIG    1       19.719  27.083  55.950  0.00  0.00    +0.006 A 
ATOM     11  C   LIG    1       18.345  27.190  56.097  0.00  0.00    +0.000 A 
ATOM     12  C   LIG    1       17.740  28.434  56.096  0.00  0.00    +0.001 A 
ATOM     13  C   LIG    1       18.498  29.577  55.949  0.00  0.00    +0.013 A 
ATOM     14  C   LIG    1       19.882  29.478  55.802  0.00  0.00    +0.042 A 
ATOM     15  C   LIG    1       20.939  30.494  55.633  0.00  0.00    +0.251 C 
ATOM     16  O   LIG    1       20.749  31.695  55.595  0.00  0.00    -0.270 OA
ENDBRANCH   4   7
BRANCH   1  18
ATOM     17  C   LIG    1       28.240  31.636  55.191  0.00  0.00    +0.024 C 
ATOM     18  C   LIG    1       27.092  32.583  54.834  0.00  0.00    +0.124 C 
BRANCH  18  19
ATOM     19  C   LIG    1       27.139  33.791  55.734  0.00  0.00    +0.312 C 
ATOM     20  O   LIG    1       27.881  33.801  56.702  0.00  0.00    -0.250 OA
BRANCH  19  21
ATOM     21  O   LIG    1       26.435  34.757  55.495  0.00  0.00    -0.480 OA
ATOM     22  H   LIG    1       25.889  35.115  56.166  0.00  0.00    +0.295 HD
ENDBRANCH  19  21
ENDBRANCH  18  19
ENDBRANCH   1  18
TORSDOF 4
ENDMDL
MODEL 5
REMARK VINA RESULT:      -5.6      2.330      7.698
REMARK  Name = ZINC00000391
REMARK                            x       y       z     vdW  Elec       q    Type
REMARK                         _______ _______ _______ _____ _____    ______ ____
ROOT
ATOM      1  C   LIG    1       25.552  32.049  55.682  0.00  0.00    -0.034 A 
ATOM      2  C   LIG    1       25.814  30.692  55.625  0.00  0.00    +0.006 A 
ATOM      3  C   LIG    1       24.829  29.783  55.959  0.00  0.00    +0.024 A 
ATOM      4  C   LIG    1       23.576  30.234  56.352  0.00  0.00    +0.037 A 
ATOM      5  C   LIG    1       23.316  31.597  56.408  0.00  0.00    +0.024 A 
ATOM      6  C   LIG    1       24.307  32.500  56.078  0.00  0.00    +0.006 A 
ENDROOT
BRANCH   4   7
ATOM      7  N   LIG    1       22.576  29.316  56.691  0.00  0.00    -0.263 N 
ATOM      8  C   LIG    1       22.292  28.822  58.043  0.00  0.00    +0.149 C 
ATOM      9  C   LIG    1       21.136  27.861  57.907  0.00  0.00    -0.018 A 
ATOM     10  C   LIG    1       20.437  27.094  58.810  0.00  0.00    +0.006 A 
ATOM     11  C   LIG    1       19.397  26.289  58.374  0.00  0.00    +0.000 A 
ATOM     12  C   LIG    1       19.060  26.253  57.032  0.00  0.00    +0.001 A 
ATOM     13  C   LIG    1       19.756  27.018  56.119  0.00  0.00    +0.013 A 
ATOM     14  C   LIG    1       20.804  27.833  56.550  0.00  0.00    +0.042 A 
ATOM     15  C   LIG    1       21.712  28.747  55.832  0.00  0.00    +0.251 C 
ATOM     16  O   LIG    1       21.684  28.956  54.634  0.00  0.00    -0.270 OA
ENDBRANCH   4   7
BRANCH   1  18
ATOM     17  C   LIG    1       27.139  32.739  53.906  0.00  0.00    +0.024 C 
ATOM     18  C   LIG    1       26.630  33.038  55.317  0.00  0.00    +0.124 C 
BRANCH  18  19
ATOM     19  C   LIG    1       27.769  32.923  56.297  0.00  0.00    +0.312 C 
ATOM     20  O   LIG    1       28.867  32.554  55.915  0.00  0.00    -0.250 OA
BRANCH  19  21
ATOM     21  O   LIG    1       27.593  33.198  57.472  0.00  0.00    -0.480 OA
ATOM     22  H   LIG    1       27.751  34.068  57.778  0.00  0.00    +0.295 HD
ENDBRANCH  19  21
ENDBRANCH  18  19
ENDBRANCH   1  18
TORSDOF 4
ENDMDL
