MODEL 1
REMARK VINA RESULT:      -5.9      0.000      0.000
REMARK  Name = ZINC00000640
REMARK                            x       y       z     vdW  Elec       q    Type
REMARK                         _______ _______ _______ _____ _____    ______ ____
ROOT
ATOM      1  C   LIG    1       22.491  28.878  58.074  0.00  0.00    +0.008 C 
ATOM      2  C   LIG    1       22.550  29.353  56.644  0.00  0.00    -0.001 C 
ATOM      3  C   LIG    1       21.677  28.872  55.705  0.00  0.00    +0.011 C 
ATOM      4  C   LIG    1       21.756  29.322  54.393  0.00  0.00    +0.086 C 
ATOM      5  N   LIG    1       22.645  30.216  54.019  0.00  0.00    -0.301 NA
ATOM      6  H   LIG    1       22.122  31.006  53.643  0.00  0.00    +0.123 HD
ATOM      7  C   LIG    1       23.522  30.721  54.886  0.00  0.00    +0.130 C 
ATOM      8  N   LIG    1       24.440  31.651  54.447  0.00  0.00    -0.274 NA
ATOM      9  H   LIG    1       24.505  31.987  53.508  0.00  0.00    +0.126 HD
ATOM     10  C   LIG    1       25.294  32.114  55.395  0.00  0.00    +0.194 C 
ATOM     11  N   LIG    1       25.304  31.745  56.672  0.00  0.00    -0.274 NA
ATOM     12  H   LIG    1       26.235  31.369  56.855  0.00  0.00    +0.126 HD
ATOM     13  C   LIG    1       24.442  30.854  57.138  0.00  0.00    +0.127 C 
ATOM     14  C   LIG    1       23.499  30.299  56.239  0.00  0.00    +0.055 C 
ENDROOT
BRANCH  10  15
ATOM     15  N   LIG    1       26.219  33.048  54.968  0.00  0.00    -0.303 NA
ATOM     16  H   LIG    1       26.529  33.736  55.578  0.00  0.00    +0.121 HD
ATOM     17  H   LIG    1       26.559  33.015  54.061  0.00  0.00    +0.121 HD
ENDBRANCH  10  15
BRANCH  13  18
ATOM     18  N   LIG    1       24.461  30.478  58.463  0.00  0.00    -0.315 NA
ATOM     19  H   LIG    1       25.019  29.737  58.749  0.00  0.00    +0.120 HD
ATOM     20  H   LIG    1       23.918  30.955  59.111  0.00  0.00    +0.120 HD
ENDBRANCH  13  18
BRANCH   3  21
ATOM     21  C   LIG    1       20.637  27.852  56.092  0.00  0.00    +0.044 C 
BRANCH  21  22
ATOM     22  C   LIG    1       19.265  28.462  55.970  0.00  0.00    -0.002 A 
ATOM     23  C   LIG    1       19.000  29.688  56.549  0.00  0.00    +0.052 A 
ATOM     24  C   LIG    1       17.736  30.250  56.436  0.00  0.00    +0.121 A 
ATOM     25  C   LIG    1       16.737  29.578  55.748  0.00  0.00    +0.049 A 
ATOM     26  C   LIG    1       17.004  28.355  55.163  0.00  0.00    +0.049 A 
ATOM     27  C   LIG    1       18.268  27.793  55.276  0.00  0.00    +0.123 A 
BRANCH  24  28
ATOM     28  O   LIG    1       17.476  31.456  57.006  0.00  0.00    -0.495 OA
ATOM     29  C   LIG    1       16.377  32.200  56.477  0.00  0.00    +0.277 C 
ENDBRANCH  24  28
BRANCH  27  30
ATOM     30  O   LIG    1       18.528  26.587  54.705  0.00  0.00    -0.495 OA
ATOM     31  C   LIG    1       17.968  25.435  55.339  0.00  0.00    +0.277 C 
ENDBRANCH  27  30
ENDBRANCH  21  22
ENDBRANCH   3  21
TORSDOF 6
ENDMDL
MODEL 2
REMARK VINA RESULT:      -5.5      1.347      1.743
REMARK  Name = ZINC00000640
REMARK                            x       y       z     vdW  Elec       q    Type
REMARK                         _______ _______ _______ _____ _____    ______ ____
ROOT
ATOM      1  C   LIG    1       22.116  29.657  58.317  0.00  0.00    +0.008 C 
ATOM      2  C   LIG    1       22.144  30.130  56.887  0.00  0.00    -0.001 C 
ATOM      3  C   LIG    1       21.054  29.972  56.071  0.00  0.00    +0.011 C 
ATOM      4  C   LIG    1       21.106  30.413  54.754  0.00  0.00    +0.086 C 
ATOM      5  N   LIG    1       22.177  30.996  54.261  0.00  0.00    -0.301 NA
ATOM      6  H   LIG    1       21.884  31.920  53.945  0.00  0.00    +0.123 HD
ATOM      7  C   LIG    1       23.268  31.178  55.004  0.00  0.00    +0.130 C 
ATOM      8  N   LIG    1       24.368  31.789  54.441  0.00  0.00    -0.274 NA
ATOM      9  H   LIG    1       24.418  32.115  53.498  0.00  0.00    +0.126 HD
ATOM     10  C   LIG    1       25.435  31.936  55.268  0.00  0.00    +0.194 C 
ATOM     11  N   LIG    1       25.488  31.545  56.537  0.00  0.00    -0.274 NA
ATOM     12  H   LIG    1       26.270  30.894  56.606  0.00  0.00    +0.126 HD
ATOM     13  C   LIG    1       24.455  30.954  57.120  0.00  0.00    +0.127 C 
ATOM     14  C   LIG    1       23.282  30.746  56.353  0.00  0.00    +0.055 C 
ENDROOT
BRANCH  10  15
ATOM     15  N   LIG    1       26.545  32.548  54.717  0.00  0.00    -0.303 NA
ATOM     16  H   LIG    1       27.404  32.485  55.163  0.00  0.00    +0.121 HD
ATOM     17  H   LIG    1       26.465  33.038  53.884  0.00  0.00    +0.121 HD
ENDBRANCH  10  15
BRANCH  13  18
ATOM     18  N   LIG    1       24.520  30.553  58.436  0.00  0.00    -0.315 NA
ATOM     19  H   LIG    1       24.744  29.634  58.652  0.00  0.00    +0.120 HD
ATOM     20  H   LIG    1       24.342  31.190  59.147  0.00  0.00    +0.120 HD
ENDBRANCH  13  18
BRANCH   3  21
ATOM     21  C   LIG    1       19.805  29.315  56.598  0.00  0.00    +0.044 C 
BRANCH  21  22
ATOM     22  C   LIG    1       18.655  30.287  56.521  0.00  0.00    -0.002 A 
ATOM     23  C   LIG    1       18.814  31.582  56.976  0.00  0.00    +0.052 A 
ATOM     24  C   LIG    1       17.756  32.477  56.903  0.00  0.00    +0.121 A 
ATOM     25  C   LIG    1       16.537  32.069  56.381  0.00  0.00    +0.049 A 
ATOM     26  C   LIG    1       16.380  30.776  55.921  0.00  0.00    +0.049 A 
ATOM     27  C   LIG    1       17.439  29.882  55.992  0.00  0.00    +0.123 A 
BRANCH  24  28
ATOM     28  O   LIG    1       17.911  33.751  57.352  0.00  0.00    -0.495 OA
ATOM     29  C   LIG    1       17.005  34.732  56.845  0.00  0.00    +0.277 C 
ENDBRANCH  24  28
BRANCH  27  30
ATOM     30  O   LIG    1       17.283  28.608  55.544  0.00  0.00    -0.495 OA
ATOM     31  C   LIG    1       15.974  28.225  55.119  0.00  0.00    +0.277 C 
ENDBRANCH  27  30
ENDBRANCH  21  22
ENDBRANCH   3  21
TORSDOF 6
ENDMDL
MODEL 3
REMARK VINA RESULT:      -5.5      1.271      3.024
REMARK  Name = ZINC00000640
REMARK                            x       y       z     vdW  Elec       q    Type
REMARK                         _______ _______ _______ _____ _____    ______ ____
ROOT
ATOM      1  C   LIG    1       21.737  30.147  58.867  0.00  0.00    +0.008 C 
ATOM      2  C   LIG    1       21.721  30.694  57.462  0.00  0.00    -0.001 C 
ATOM      3  C   LIG    1       20.543  30.859  56.783  0.00  0.00    +0.011 C 
ATOM      4  C   LIG    1       20.555  31.361  55.488  0.00  0.00    +0.086 C 
ATOM      5  N   LIG    1       21.675  31.699  54.887  0.00  0.00    -0.301 NA
ATOM      6  H   LIG    1       21.587  32.686  54.645  0.00  0.00    +0.123 HD
ATOM      7  C   LIG    1       22.853  31.562  55.495  0.00  0.00    +0.130 C 
ATOM      8  N   LIG    1       24.001  31.926  54.823  0.00  0.00    -0.274 NA
ATOM      9  H   LIG    1       24.024  32.293  53.893  0.00  0.00    +0.126 HD
ATOM     10  C   LIG    1       25.156  31.755  55.515  0.00  0.00    +0.194 C 
ATOM     11  N   LIG    1       25.251  31.279  56.752  0.00  0.00    -0.274 NA
ATOM     12  H   LIG    1       25.850  30.455  56.698  0.00  0.00    +0.126 HD
ATOM     13  C   LIG    1       24.176  30.918  57.436  0.00  0.00    +0.127 C 
ATOM     14  C   LIG    1       22.910  31.051  56.815  0.00  0.00    +0.055 C 
ENDROOT
BRANCH  10  15
ATOM     15  N   LIG    1       26.314  32.116  54.853  0.00  0.00    -0.303 NA
ATOM     16  H   LIG    1       26.876  32.822  55.210  0.00  0.00    +0.121 HD
ATOM     17  H   LIG    1       26.566  31.664  54.033  0.00  0.00    +0.121 HD
ENDBRANCH  10  15
BRANCH  13  18
ATOM     18  N   LIG    1       24.286  30.426  58.718  0.00  0.00    -0.315 NA
ATOM     19  H   LIG    1       24.360  29.470  58.866  0.00  0.00    +0.120 HD
ATOM     20  H   LIG    1       24.290  31.035  59.473  0.00  0.00    +0.120 HD
ENDBRANCH  13  18
BRANCH   3  21
ATOM     21  C   LIG    1       19.236  30.490  57.437  0.00  0.00    +0.044 C 
BRANCH  21  22
ATOM     22  C   LIG    1       18.554  29.419  56.626  0.00  0.00    -0.002 A 
ATOM     23  C   LIG    1       19.101  28.152  56.556  0.00  0.00    +0.052 A 
ATOM     24  C   LIG    1       18.472  27.165  55.810  0.00  0.00    +0.121 A 
ATOM     25  C   LIG    1       17.299  27.453  55.128  0.00  0.00    +0.049 A 
ATOM     26  C   LIG    1       16.749  28.718  55.203  0.00  0.00    +0.049 A 
ATOM     27  C   LIG    1       17.377  29.704  55.951  0.00  0.00    +0.123 A 
BRANCH  24  28
ATOM     28  O   LIG    1       19.011  25.919  55.740  0.00  0.00    -0.495 OA
ATOM     29  C   LIG    1       18.185  24.885  55.200  0.00  0.00    +0.277 C 
ENDBRANCH  24  28
BRANCH  27  30
ATOM     30  O   LIG    1       16.838  30.951  56.020  0.00  0.00    -0.495 OA
ATOM     31  C   LIG    1       15.587  31.079  56.699  0.00  0.00    +0.277 C 
ENDBRANCH  27  30
ENDBRANCH  21  22
ENDBRANCH   3  21
TORSDOF 6
ENDMDL
MODEL 4
REMARK VINA RESULT:      -5.4      5.241      7.992
REMARK  Name = ZINC00000640
REMARK                            x       y       z     vdW  Elec       q    Type
REMARK                         _______ _______ _______ _____ _____    ______ ____
ROOT
ATOM      1  C   LIG    1       22.189  32.803  59.281  0.00  0.00    +0.008 C 
ATOM      2  C   LIG    1       21.830  33.222  57.878  0.00  0.00    -0.001 C 
ATOM      3  C   LIG    1       21.593  34.536  57.573  0.00  0.00    +0.011 C 
ATOM      4  C   LIG    1       21.260  34.896  56.273  0.00  0.00    +0.086 C 
ATOM      5  N   LIG    1       21.175  34.005  55.309  0.00  0.00    -0.301 NA
ATOM      6  H   LIG    1       21.845  34.288  54.594  0.00  0.00    +0.123 HD
ATOM      7  C   LIG    1       21.394  32.712  55.542  0.00  0.00    +0.130 C 
ATOM      8  N   LIG    1       21.287  31.815  54.501  0.00  0.00    -0.274 NA
ATOM      9  H   LIG    1       21.053  32.060  53.560  0.00  0.00    +0.126 HD
ATOM     10  C   LIG    1       21.528  30.519  54.825  0.00  0.00    +0.194 C 
ATOM     11  N   LIG    1       21.848  30.073  56.036  0.00  0.00    -0.274 NA
ATOM     12  H   LIG    1       21.132  29.391  56.289  0.00  0.00    +0.126 HD
ATOM     13  C   LIG    1       21.961  30.897  57.066  0.00  0.00    +0.127 C 
ATOM     14  C   LIG    1       21.732  32.279  56.848  0.00  0.00    +0.055 C 
ENDROOT
BRANCH  10  15
ATOM     15  N   LIG    1       21.425  29.610  53.790  0.00  0.00    -0.303 NA
ATOM     16  H   LIG    1       22.048  29.649  53.046  0.00  0.00    +0.121 HD
ATOM     17  H   LIG    1       20.733  28.931  53.807  0.00  0.00    +0.121 HD
ENDBRANCH  10  15
BRANCH  13  18
ATOM     18  N   LIG    1       22.292  30.425  58.317  0.00  0.00    -0.315 NA
ATOM     19  H   LIG    1       22.419  29.474  58.458  0.00  0.00    +0.120 HD
ATOM     20  H   LIG    1       22.400  31.044  59.057  0.00  0.00    +0.120 HD
ENDBRANCH  13  18
BRANCH   3  21
ATOM     21  C   LIG    1       21.687  35.589  58.647  0.00  0.00    +0.044 C 
BRANCH  21  22
ATOM     22  C   LIG    1       22.544  36.729  58.160  0.00  0.00    -0.002 A 
ATOM     23  C   LIG    1       23.850  36.495  57.774  0.00  0.00    +0.052 A 
ATOM     24  C   LIG    1       24.639  37.544  57.325  0.00  0.00    +0.121 A 
ATOM     25  C   LIG    1       24.119  38.829  57.271  0.00  0.00    +0.049 A 
ATOM     26  C   LIG    1       22.811  39.062  57.651  0.00  0.00    +0.049 A 
ATOM     27  C   LIG    1       22.022  38.012  58.099  0.00  0.00    +0.123 A 
BRANCH  24  28
ATOM     28  O   LIG    1       25.924  37.314  56.946  0.00  0.00    -0.495 OA
ATOM     29  C   LIG    1       26.163  37.114  55.551  0.00  0.00    +0.277 C 
ENDBRANCH  24  28
BRANCH  27  30
ATOM     30  O   LIG    1       20.737  38.242  58.478  0.00  0.00    -0.495 OA
ATOM     31  C   LIG    1       19.769  38.386  57.437  0.00  0.00    +0.277 C 
ENDBRANCH  27  30
ENDBRANCH  21  22
ENDBRANCH   3  21
TORSDOF 6
ENDMDL
MODEL 5
REMARK VINA RESULT:      -5.4      1.860      3.495
REMARK  Name = ZINC00000640
REMARK                            x       y       z     vdW  Elec       q    Type
REMARK                         _______ _______ _______ _____ _____    ______ ____
ROOT
ATOM      1  C   LIG    1       21.593  30.859  59.291  0.00  0.00    +0.008 C 
ATOM      2  C   LIG    1       21.712  31.514  57.939  0.00  0.00    -0.001 C 
ATOM      3  C   LIG    1       20.625  32.090  57.336  0.00  0.00    +0.011 C 
ATOM      4  C   LIG    1       20.760  32.683  56.087  0.00  0.00    +0.086 C 
ATOM      5  N   LIG    1       21.916  32.723  55.461  0.00  0.00    -0.301 NA
ATOM      6  H   LIG    1       22.127  33.708  55.306  0.00  0.00    +0.123 HD
ATOM      7  C   LIG    1       23.010  32.180  55.996  0.00  0.00    +0.130 C 
ATOM      8  N   LIG    1       24.198  32.242  55.299  0.00  0.00    -0.274 NA
ATOM      9  H   LIG    1       24.311  32.670  54.402  0.00  0.00    +0.126 HD
ATOM     10  C   LIG    1       25.261  31.667  55.916  0.00  0.00    +0.194 C 
ATOM     11  N   LIG    1       25.235  31.071  57.104  0.00  0.00    -0.274 NA
ATOM     12  H   LIG    1       25.552  30.113  56.952  0.00  0.00    +0.126 HD
ATOM     13  C   LIG    1       24.117  30.988  57.808  0.00  0.00    +0.127 C 
ATOM     14  C   LIG    1       22.938  31.554  57.265  0.00  0.00    +0.055 C 
ENDROOT
BRANCH  10  15
ATOM     15  N   LIG    1       26.459  31.722  55.228  0.00  0.00    -0.303 NA
ATOM     16  H   LIG    1       27.292  31.543  55.692  0.00  0.00    +0.121 HD
ATOM     17  H   LIG    1       26.466  31.936  54.283  0.00  0.00    +0.121 HD
ENDBRANCH  10  15
BRANCH  13  18
ATOM     18  N   LIG    1       24.100  30.368  59.038  0.00  0.00    -0.315 NA
ATOM     19  H   LIG    1       23.261  30.058  59.414  0.00  0.00    +0.120 HD
ATOM     20  H   LIG    1       24.928  30.240  59.529  0.00  0.00    +0.120 HD
ENDBRANCH  13  18
BRANCH   3  21
ATOM     21  C   LIG    1       19.283  32.072  58.022  0.00  0.00    +0.044 C 
BRANCH  21  22
ATOM     22  C   LIG    1       18.324  31.222  57.229  0.00  0.00    -0.002 A 
ATOM     23  C   LIG    1       18.589  29.880  57.036  0.00  0.00    +0.052 A 
ATOM     24  C   LIG    1       17.706  29.097  56.306  0.00  0.00    +0.121 A 
ATOM     25  C   LIG    1       16.562  29.664  55.764  0.00  0.00    +0.049 A 
ATOM     26  C   LIG    1       16.294  31.004  55.963  0.00  0.00    +0.049 A 
ATOM     27  C   LIG    1       17.177  31.787  56.693  0.00  0.00    +0.123 A 
BRANCH  24  28
ATOM     28  O   LIG    1       17.967  27.776  56.115  0.00  0.00    -0.495 OA
ATOM     29  C   LIG    1       17.982  27.307  54.766  0.00  0.00    +0.277 C 
ENDBRANCH  24  28
BRANCH  27  30
ATOM     30  O   LIG    1       16.916  33.107  56.884  0.00  0.00    -0.495 OA
ATOM     31  C   LIG    1       15.543  33.488  56.997  0.00  0.00    +0.277 C 
ENDBRANCH  27  30
ENDBRANCH  21  22
ENDBRANCH   3  21
TORSDOF 6
ENDMDL
