REMARK VINA RESULT:      -4.4      0.883      3.094
REMARK  Name = ZINC00000276
REMARK                            x       y       z     vdW  Elec       q    Type
REMARK                         _______ _______ _______ _____ _____    ______ ____
ROOT
ATOM      1  C   LIG    1       22.216  33.167  56.897  0.00  0.00    +0.204 C 
ATOM      2  N   LIG    1       21.856  34.188  56.096  0.00  0.00    -0.286 N 
ATOM      3  H   LIG    1       22.014  34.135  55.141  0.00  0.00    +0.155 HD
ATOM      4  O   LIG    1       21.964  33.208  58.083  0.00  0.00    -0.277 OA
ENDROOT
BRANCH   2   5
ATOM      5  C   LIG    1       21.255  35.328  56.643  0.00  0.00    +0.039 A 
ATOM      6  C   LIG    1       19.874  35.393  56.771  0.00  0.00    -0.029 A 
ATOM      7  C   LIG    1       19.019  34.236  56.321  0.00  0.00    +0.045 C 
ATOM      8  C   LIG    1       19.284  36.519  57.311  0.00  0.00    +0.005 A 
ATOM      9  C   LIG    1       20.068  37.581  57.724  0.00  0.00    +0.001 A 
ATOM     10  C   LIG    1       21.444  37.520  57.598  0.00  0.00    +0.005 A 
ATOM     11  C   LIG    1       22.039  36.394  57.064  0.00  0.00    -0.029 A 
ATOM     12  C   LIG    1       23.540  36.325  56.933  0.00  0.00    +0.045 C 
ENDBRANCH   2   5
BRANCH   1  13
ATOM     13  C   LIG    1       22.931  31.973  56.320  0.00  0.00    +0.019 C 
BRANCH  13  14
ATOM     14  N   LIG    1       23.890  31.453  57.304  0.00  0.00    +0.387 N 
ATOM     15  H   LIG    1       23.991  32.115  58.058  0.00  0.00    -0.081 HD
BRANCH  14  16
ATOM     16  C   LIG    1       23.400  30.175  57.838  0.00  0.00    -0.081 C 
ATOM     17  C   LIG    1       23.410  30.224  59.368  0.00  0.00    -0.017 C 
ENDBRANCH  14  16
BRANCH  14  18
ATOM     18  C   LIG    1       25.192  31.245  56.657  0.00  0.00    -0.078 C 
BRANCH  18  20
ATOM     19  C   LIG    1       26.493  32.995  55.438  0.00  0.00    +0.002 C 
ATOM     20  C   LIG    1       25.266  32.083  55.379  0.00  0.00    -0.022 C 
ENDBRANCH  18  20
ENDBRANCH  14  18
ENDBRANCH  13  14
BRANCH  13  21
ATOM     21  C   LIG    1       21.912  30.884  55.976  0.00  0.00    -0.010 C 
ATOM     22  C   LIG    1       21.709  30.837  54.461  0.00  0.00    +0.002 C 
ENDBRANCH  13  21
ENDBRANCH   1  13
TORSDOF 7
