REMARK VINA RESULT:      -4.6      1.501      2.757
REMARK  Name = ZINC00000276
REMARK                            x       y       z     vdW  Elec       q    Type
REMARK                         _______ _______ _______ _____ _____    ______ ____
ROOT
ATOM      1  C   LIG    1       21.083  32.803  55.831  0.00  0.00    +0.204 C 
ATOM      2  N   LIG    1       20.405  33.189  56.930  0.00  0.00    -0.286 N 
ATOM      3  H   LIG    1       20.582  32.764  57.783  0.00  0.00    +0.155 HD
ATOM      4  O   LIG    1       20.905  33.376  54.776  0.00  0.00    -0.277 OA
ENDROOT
BRANCH   2   5
ATOM      5  C   LIG    1       19.445  34.203  56.839  0.00  0.00    +0.039 A 
ATOM      6  C   LIG    1       18.140  33.896  56.479  0.00  0.00    -0.029 A 
ATOM      7  C   LIG    1       17.755  32.468  56.183  0.00  0.00    +0.045 C 
ATOM      8  C   LIG    1       17.194  34.898  56.390  0.00  0.00    +0.005 A 
ATOM      9  C   LIG    1       17.547  36.208  56.661  0.00  0.00    +0.001 A 
ATOM     10  C   LIG    1       18.846  36.518  57.020  0.00  0.00    +0.005 A 
ATOM     11  C   LIG    1       19.793  35.519  57.116  0.00  0.00    -0.029 A 
ATOM     12  C   LIG    1       21.208  35.856  57.515  0.00  0.00    +0.045 C 
ENDBRANCH   2   5
BRANCH   1  13
ATOM     13  C   LIG    1       22.062  31.661  55.913  0.00  0.00    +0.019 C 
BRANCH  13  14
ATOM     14  N   LIG    1       23.344  32.071  55.322  0.00  0.00    +0.387 N 
ATOM     15  H   LIG    1       23.197  32.867  54.720  0.00  0.00    -0.081 HD
BRANCH  14  16
ATOM     16  C   LIG    1       24.283  32.432  56.391  0.00  0.00    -0.081 C 
ATOM     17  C   LIG    1       25.715  32.163  55.925  0.00  0.00    -0.017 C 
ENDBRANCH  14  16
BRANCH  14  18
ATOM     18  C   LIG    1       23.899  30.960  54.538  0.00  0.00    -0.078 C 
BRANCH  18  20
ATOM     19  C   LIG    1       23.125  28.591  54.358  0.00  0.00    +0.002 C 
ATOM     20  C   LIG    1       22.763  30.049  54.068  0.00  0.00    -0.022 C 
ENDBRANCH  18  20
ENDBRANCH  14  18
ENDBRANCH  13  14
BRANCH  13  21
ATOM     21  C   LIG    1       22.276  31.276  57.378  0.00  0.00    -0.010 C 
ATOM     22  C   LIG    1       21.692  29.884  57.629  0.00  0.00    +0.002 C 
ENDBRANCH  13  21
ENDBRANCH   1  13
TORSDOF 7
