REMARK VINA RESULT:      -4.4      1.717      3.496
REMARK  Name = ZINC00000276
REMARK                            x       y       z     vdW  Elec       q    Type
REMARK                         _______ _______ _______ _____ _____    ______ ____
ROOT
ATOM      1  C   LIG    1       20.971  32.714  55.774  0.00  0.00    +0.204 C 
ATOM      2  N   LIG    1       20.314  33.111  56.881  0.00  0.00    -0.286 N 
ATOM      3  H   LIG    1       20.475  32.667  57.727  0.00  0.00    +0.155 HD
ATOM      4  O   LIG    1       20.814  33.310  54.729  0.00  0.00    -0.277 OA
ENDROOT
BRANCH   2   5
ATOM      5  C   LIG    1       19.397  34.167  56.809  0.00  0.00    +0.039 A 
ATOM      6  C   LIG    1       18.076  33.919  56.460  0.00  0.00    -0.029 A 
ATOM      7  C   LIG    1       17.628  32.512  56.155  0.00  0.00    +0.045 C 
ATOM      8  C   LIG    1       17.174  34.962  56.390  0.00  0.00    +0.005 A 
ATOM      9  C   LIG    1       17.585  36.253  56.668  0.00  0.00    +0.001 A 
ATOM     10  C   LIG    1       18.900  36.503  57.016  0.00  0.00    +0.005 A 
ATOM     11  C   LIG    1       19.805  35.463  57.094  0.00  0.00    -0.029 A 
ATOM     12  C   LIG    1       21.236  35.736  57.481  0.00  0.00    +0.045 C 
ENDBRANCH   2   5
BRANCH   1  13
ATOM     13  C   LIG    1       21.902  31.530  55.834  0.00  0.00    +0.019 C 
BRANCH  13  14
ATOM     14  N   LIG    1       22.902  31.747  56.889  0.00  0.00    +0.387 N 
ATOM     15  H   LIG    1       22.485  32.265  57.647  0.00  0.00    -0.081 HD
BRANCH  14  16
ATOM     16  C   LIG    1       23.379  30.450  57.386  0.00  0.00    -0.081 C 
ATOM     17  C   LIG    1       23.604  30.534  58.897  0.00  0.00    -0.017 C 
ENDBRANCH  14  16
BRANCH  14  18
ATOM     18  C   LIG    1       24.033  32.507  56.341  0.00  0.00    -0.078 C 
BRANCH  18  20
ATOM     19  C   LIG    1       26.121  32.218  54.999  0.00  0.00    +0.002 C 
ATOM     20  C   LIG    1       24.702  31.696  55.228  0.00  0.00    -0.022 C 
ENDBRANCH  18  20
ENDBRANCH  14  18
ENDBRANCH  13  14
BRANCH  13  21
ATOM     21  C   LIG    1       21.098  30.266  56.145  0.00  0.00    -0.010 C 
ATOM     22  C   LIG    1       20.934  29.440  54.868  0.00  0.00    +0.002 C 
ENDBRANCH  13  21
ENDBRANCH   1  13
TORSDOF 7
