REMARK VINA RESULT:      -4.8      0.000      0.000
REMARK  Name = ZINC00000276
REMARK                            x       y       z     vdW  Elec       q    Type
REMARK                         _______ _______ _______ _____ _____    ______ ____
ROOT
ATOM      1  C   LIG    1       22.342  33.046  57.061  0.00  0.00    +0.204 C 
ATOM      2  N   LIG    1       21.997  34.024  56.200  0.00  0.00    -0.286 N 
ATOM      3  H   LIG    1       22.178  33.923  55.253  0.00  0.00    +0.155 HD
ATOM      4  O   LIG    1       22.061  33.146  58.237  0.00  0.00    -0.277 OA
ENDROOT
BRANCH   2   5
ATOM      5  C   LIG    1       21.378  35.187  56.674  0.00  0.00    +0.039 A 
ATOM      6  C   LIG    1       22.147  36.268  57.080  0.00  0.00    -0.029 A 
ATOM      7  C   LIG    1       23.651  36.193  57.013  0.00  0.00    +0.045 C 
ATOM      8  C   LIG    1       21.534  37.414  57.547  0.00  0.00    +0.005 A 
ATOM      9  C   LIG    1       20.154  37.484  57.609  0.00  0.00    +0.001 A 
ATOM     10  C   LIG    1       19.385  36.409  57.205  0.00  0.00    +0.005 A 
ATOM     11  C   LIG    1       19.993  35.263  56.732  0.00  0.00    -0.029 A 
ATOM     12  C   LIG    1       19.153  34.093  56.285  0.00  0.00    +0.045 C 
ENDBRANCH   2   5
BRANCH   1  13
ATOM     13  C   LIG    1       23.075  31.828  56.562  0.00  0.00    +0.019 C 
BRANCH  13  14
ATOM     14  N   LIG    1       24.029  32.224  55.517  0.00  0.00    +0.387 N 
ATOM     15  H   LIG    1       23.693  33.054  55.052  0.00  0.00    -0.081 HD
BRANCH  14  16
ATOM     16  C   LIG    1       25.337  32.501  56.127  0.00  0.00    -0.081 C 
ATOM     17  C   LIG    1       26.405  32.566  55.034  0.00  0.00    -0.017 C 
ENDBRANCH  14  16
BRANCH  14  18
ATOM     18  C   LIG    1       24.165  31.136  54.541  0.00  0.00    -0.078 C 
BRANCH  18  20
ATOM     19  C   LIG    1       22.868  29.021  54.245  0.00  0.00    +0.002 C 
ATOM     20  C   LIG    1       22.786  30.548  54.235  0.00  0.00    -0.022 C 
ENDBRANCH  18  20
ENDBRANCH  14  18
ENDBRANCH  13  14
BRANCH  13  21
ATOM     21  C   LIG    1       23.831  31.177  57.723  0.00  0.00    -0.010 C 
ATOM     22  C   LIG    1       23.247  29.790  57.997  0.00  0.00    +0.002 C 
ENDBRANCH  13  21
ENDBRANCH   1  13
TORSDOF 7
