REMARK VINA RESULT:      -4.8      0.061      1.916
REMARK  Name = ZINC00000276
REMARK                            x       y       z     vdW  Elec       q    Type
REMARK                         _______ _______ _______ _____ _____    ______ ____
ROOT
ATOM      1  C   LIG    1       22.335  33.053  57.063  0.00  0.00    +0.204 C 
ATOM      2  N   LIG    1       21.983  34.026  56.199  0.00  0.00    -0.286 N 
ATOM      3  H   LIG    1       22.160  33.922  55.252  0.00  0.00    +0.155 HD
ATOM      4  O   LIG    1       22.058  33.156  58.239  0.00  0.00    -0.277 OA
ENDROOT
BRANCH   2   5
ATOM      5  C   LIG    1       21.361  35.188  56.671  0.00  0.00    +0.039 A 
ATOM      6  C   LIG    1       19.977  35.258  56.739  0.00  0.00    -0.029 A 
ATOM      7  C   LIG    1       19.139  34.083  56.303  0.00  0.00    +0.045 C 
ATOM      8  C   LIG    1       19.367  36.406  57.205  0.00  0.00    +0.005 A 
ATOM      9  C   LIG    1       20.134  37.485  57.604  0.00  0.00    +0.001 A 
ATOM     10  C   LIG    1       21.514  37.418  57.538  0.00  0.00    +0.005 A 
ATOM     11  C   LIG    1       22.129  36.271  57.079  0.00  0.00    -0.029 A 
ATOM     12  C   LIG    1       23.634  36.196  57.014  0.00  0.00    +0.045 C 
ENDBRANCH   2   5
BRANCH   1  13
ATOM     13  C   LIG    1       23.071  31.835  56.566  0.00  0.00    +0.019 C 
BRANCH  13  14
ATOM     14  N   LIG    1       24.024  32.233  55.520  0.00  0.00    +0.387 N 
ATOM     15  H   LIG    1       23.681  33.055  55.047  0.00  0.00    -0.081 HD
BRANCH  14  16
ATOM     16  C   LIG    1       25.327  32.526  56.130  0.00  0.00    -0.081 C 
ATOM     17  C   LIG    1       26.434  32.313  55.096  0.00  0.00    -0.017 C 
ENDBRANCH  14  16
BRANCH  14  18
ATOM     18  C   LIG    1       24.173  31.137  54.552  0.00  0.00    -0.078 C 
BRANCH  18  20
ATOM     19  C   LIG    1       22.857  29.035  54.250  0.00  0.00    +0.002 C 
ATOM     20  C   LIG    1       22.795  30.563  54.216  0.00  0.00    -0.022 C 
ENDBRANCH  18  20
ENDBRANCH  14  18
ENDBRANCH  13  14
BRANCH  13  21
ATOM     21  C   LIG    1       23.829  31.188  57.727  0.00  0.00    -0.010 C 
ATOM     22  C   LIG    1       23.255  29.796  57.996  0.00  0.00    +0.002 C 
ENDBRANCH  13  21
ENDBRANCH   1  13
TORSDOF 7
