MODEL 1
REMARK VINA RESULT:      -5.7      0.000      0.000
REMARK  Name = ZINC00000076
REMARK                            x       y       z     vdW  Elec       q    Type
REMARK                         _______ _______ _______ _____ _____    ______ ____
ROOT
ATOM      1  C   LIG    1       24.740  30.723  56.865  0.00  0.00    +0.215 C 
ENDROOT
BRANCH   1   5
ATOM      2  C   LIG    1       21.527  28.436  55.224  0.00  0.00    +0.000 A 
ATOM      3  C   LIG    1       22.413  29.085  54.384  0.00  0.00    +0.000 A 
ATOM      4  C   LIG    1       23.452  29.825  54.915  0.00  0.00    +0.006 A 
ATOM      5  C   LIG    1       23.606  29.917  56.286  0.00  0.00    -0.012 A 
ATOM      6  C   LIG    1       22.719  29.269  57.125  0.00  0.00    +0.006 A 
ATOM      7  C   LIG    1       21.681  28.527  56.595  0.00  0.00    +0.000 A 
ENDBRANCH   1   5
BRANCH   1   8
ATOM      8  O   LIG    1       24.701  30.645  58.291  0.00  0.00    -0.379 OA
ATOM      9  H   LIG    1       24.685  31.505  58.732  0.00  0.00    +0.211 HD
ENDBRANCH   1   8
BRANCH   1  10
ATOM     10  C   LIG    1       24.603  32.161  56.437  0.00  0.00    +0.196 C 
ATOM     11  O   LIG    1       23.587  32.774  56.686  0.00  0.00    -0.289 OA
BRANCH  10  12
ATOM     12  C   LIG    1       25.703  32.823  55.717  0.00  0.00    +0.020 A 
ATOM     13  C   LIG    1       26.364  32.158  54.679  0.00  0.00    +0.011 A 
ATOM     14  C   LIG    1       27.393  32.784  54.009  0.00  0.00    +0.001 A 
ATOM     15  C   LIG    1       27.772  34.068  54.361  0.00  0.00    +0.000 A 
ATOM     16  C   LIG    1       27.124  34.732  55.387  0.00  0.00    +0.001 A 
ATOM     17  C   LIG    1       26.089  34.122  56.063  0.00  0.00    +0.011 A 
ENDBRANCH  10  12
ENDBRANCH   1  10
TORSDOF 4
ENDMDL
MODEL 2
REMARK VINA RESULT:      -5.5      2.464      5.497
REMARK  Name = ZINC00000076
REMARK                            x       y       z     vdW  Elec       q    Type
REMARK                         _______ _______ _______ _____ _____    ______ ____
ROOT
ATOM      1  C   LIG    1       24.807  31.380  56.274  0.00  0.00    +0.215 C 
ENDROOT
BRANCH   1   5
ATOM      2  C   LIG    1       28.181  33.685  55.029  0.00  0.00    +0.000 A 
ATOM      3  C   LIG    1       28.219  32.305  54.949  0.00  0.00    +0.000 A 
ATOM      4  C   LIG    1       27.127  31.560  55.352  0.00  0.00    +0.006 A 
ATOM      5  C   LIG    1       25.997  32.193  55.835  0.00  0.00    -0.012 A 
ATOM      6  C   LIG    1       25.960  33.572  55.916  0.00  0.00    +0.006 A 
ATOM      7  C   LIG    1       27.051  34.318  55.512  0.00  0.00    +0.000 A 
ENDBRANCH   1   5
BRANCH   1   8
ATOM      8  O   LIG    1       25.158  29.995  56.296  0.00  0.00    -0.379 OA
ATOM      9  H   LIG    1       24.400  29.398  56.356  0.00  0.00    +0.211 HD
ENDBRANCH   1   8
BRANCH   1  10
ATOM     10  C   LIG    1       23.669  31.594  55.309  0.00  0.00    +0.196 C 
ATOM     11  O   LIG    1       23.774  31.228  54.158  0.00  0.00    -0.289 OA
BRANCH  10  12
ATOM     12  C   LIG    1       22.431  32.244  55.764  0.00  0.00    +0.020 A 
ATOM     13  C   LIG    1       22.470  33.186  56.798  0.00  0.00    +0.011 A 
ATOM     14  C   LIG    1       21.306  33.791  57.219  0.00  0.00    +0.001 A 
ATOM     15  C   LIG    1       20.100  33.471  56.620  0.00  0.00    +0.000 A 
ATOM     16  C   LIG    1       20.052  32.541  55.597  0.00  0.00    +0.001 A 
ATOM     17  C   LIG    1       21.208  31.930  55.161  0.00  0.00    +0.011 A 
ENDBRANCH  10  12
ENDBRANCH   1  10
TORSDOF 4
ENDMDL
MODEL 3
REMARK VINA RESULT:      -5.3      1.591      2.096
REMARK  Name = ZINC00000076
REMARK                            x       y       z     vdW  Elec       q    Type
REMARK                         _______ _______ _______ _____ _____    ______ ____
ROOT
ATOM      1  C   LIG    1       24.540  30.010  55.492  0.00  0.00    +0.215 C 
ENDROOT
BRANCH   1   5
ATOM      2  C   LIG    1       20.324  30.698  55.478  0.00  0.00    +0.000 A 
ATOM      3  C   LIG    1       21.195  31.732  55.185  0.00  0.00    +0.000 A 
ATOM      4  C   LIG    1       22.558  31.509  55.191  0.00  0.00    +0.006 A 
ATOM      5  C   LIG    1       23.053  30.253  55.488  0.00  0.00    -0.012 A 
ATOM      6  C   LIG    1       22.183  29.220  55.781  0.00  0.00    +0.006 A 
ATOM      7  C   LIG    1       20.818  29.442  55.775  0.00  0.00    +0.000 A 
ENDBRANCH   1   5
BRANCH   1   8
ATOM      8  O   LIG    1       24.802  28.666  55.903  0.00  0.00    -0.379 OA
ATOM      9  H   LIG    1       24.411  27.996  55.327  0.00  0.00    +0.211 HD
ENDBRANCH   1   8
BRANCH   1  10
ATOM     10  C   LIG    1       25.202  30.966  56.451  0.00  0.00    +0.196 C 
ATOM     11  O   LIG    1       24.957  30.903  57.636  0.00  0.00    -0.289 OA
BRANCH  10  12
ATOM     12  C   LIG    1       26.147  31.975  55.948  0.00  0.00    +0.020 A 
ATOM     13  C   LIG    1       25.871  33.338  56.106  0.00  0.00    +0.011 A 
ATOM     14  C   LIG    1       26.761  34.278  55.633  0.00  0.00    +0.001 A 
ATOM     15  C   LIG    1       27.926  33.876  55.003  0.00  0.00    +0.000 A 
ATOM     16  C   LIG    1       28.207  32.531  54.842  0.00  0.00    +0.001 A 
ATOM     17  C   LIG    1       27.329  31.578  55.314  0.00  0.00    +0.011 A 
ENDBRANCH  10  12
ENDBRANCH   1  10
TORSDOF 4
ENDMDL
MODEL 4
REMARK VINA RESULT:      -5.2      1.586      2.045
REMARK  Name = ZINC00000076
REMARK                            x       y       z     vdW  Elec       q    Type
REMARK                         _______ _______ _______ _____ _____    ______ ____
ROOT
ATOM      1  C   LIG    1       23.766  31.292  54.943  0.00  0.00    +0.215 C 
ENDROOT
BRANCH   1   5
ATOM      2  C   LIG    1       20.548  28.849  56.330  0.00  0.00    +0.000 A 
ATOM      3  C   LIG    1       21.176  28.552  55.134  0.00  0.00    +0.000 A 
ATOM      4  C   LIG    1       22.216  29.343  54.686  0.00  0.00    +0.006 A 
ATOM      5  C   LIG    1       22.631  30.430  55.432  0.00  0.00    -0.012 A 
ATOM      6  C   LIG    1       22.002  30.727  56.627  0.00  0.00    +0.006 A 
ATOM      7  C   LIG    1       20.962  29.936  57.076  0.00  0.00    +0.000 A 
ENDBRANCH   1   5
BRANCH   1   8
ATOM      8  O   LIG    1       23.931  31.108  53.535  0.00  0.00    -0.379 OA
ATOM      9  H   LIG    1       24.788  31.404  53.198  0.00  0.00    +0.211 HD
ENDBRANCH   1   8
BRANCH   1  10
ATOM     10  C   LIG    1       25.036  30.900  55.653  0.00  0.00    +0.196 C 
ATOM     11  O   LIG    1       25.091  29.854  56.264  0.00  0.00    -0.289 OA
BRANCH  10  12
ATOM     12  C   LIG    1       26.210  31.785  55.604  0.00  0.00    +0.020 A 
ATOM     13  C   LIG    1       27.473  31.264  55.305  0.00  0.00    +0.011 A 
ATOM     14  C   LIG    1       28.568  32.100  55.261  0.00  0.00    +0.001 A 
ATOM     15  C   LIG    1       28.419  33.453  55.510  0.00  0.00    +0.000 A 
ATOM     16  C   LIG    1       27.174  33.977  55.807  0.00  0.00    +0.001 A 
ATOM     17  C   LIG    1       26.068  33.155  55.850  0.00  0.00    +0.011 A 
ENDBRANCH  10  12
ENDBRANCH   1  10
TORSDOF 4
ENDMDL
MODEL 5
REMARK VINA RESULT:      -5.1      1.099      5.878
REMARK  Name = ZINC00000076
REMARK                            x       y       z     vdW  Elec       q    Type
REMARK                         _______ _______ _______ _____ _____    ______ ____
ROOT
ATOM      1  C   LIG    1       24.379  32.047  55.948  0.00  0.00    +0.215 C 
ENDROOT
BRANCH   1   5
ATOM      2  C   LIG    1       28.457  33.144  55.307  0.00  0.00    +0.000 A 
ATOM      3  C   LIG    1       27.537  34.100  55.698  0.00  0.00    +0.000 A 
ATOM      4  C   LIG    1       26.218  33.745  55.904  0.00  0.00    +0.006 A 
ATOM      5  C   LIG    1       25.817  32.434  55.721  0.00  0.00    -0.012 A 
ATOM      6  C   LIG    1       26.737  31.479  55.330  0.00  0.00    +0.006 A 
ATOM      7  C   LIG    1       28.057  31.834  55.125  0.00  0.00    +0.000 A 
ENDBRANCH   1   5
BRANCH   1   8
ATOM      8  O   LIG    1       23.647  33.185  56.409  0.00  0.00    -0.379 OA
ATOM      9  H   LIG    1       22.862  32.963  56.928  0.00  0.00    +0.211 HD
ENDBRANCH   1   8
BRANCH   1  10
ATOM     10  C   LIG    1       24.309  30.953  56.981  0.00  0.00    +0.196 C 
ATOM     11  O   LIG    1       24.994  31.018  57.980  0.00  0.00    -0.289 OA
BRANCH  10  12
ATOM     12  C   LIG    1       23.410  29.806  56.779  0.00  0.00    +0.020 A 
ATOM     13  C   LIG    1       22.083  29.867  57.216  0.00  0.00    +0.011 A 
ATOM     14  C   LIG    1       21.247  28.788  57.023  0.00  0.00    +0.001 A 
ATOM     15  C   LIG    1       21.718  27.647  56.397  0.00  0.00    +0.000 A 
ATOM     16  C   LIG    1       23.029  27.578  55.962  0.00  0.00    +0.001 A 
ATOM     17  C   LIG    1       23.877  28.651  56.143  0.00  0.00    +0.011 A 
ENDBRANCH  10  12
ENDBRANCH   1  10
TORSDOF 4
ENDMDL
