MODEL 1
REMARK VINA RESULT:      -5.1      0.000      0.000
REMARK  Name = ZINC00000138
REMARK                            x       y       z     vdW  Elec       q    Type
REMARK                         _______ _______ _______ _____ _____    ______ ____
ROOT
ATOM      1  C   LIG    1       22.300  28.679  54.674  0.00  0.00    +0.001 A 
ATOM      2  C   LIG    1       23.448  28.010  55.068  0.00  0.00    +0.004 A 
ATOM      3  C   LIG    1       24.471  28.685  55.707  0.00  0.00    +0.046 A 
ATOM      4  C   LIG    1       24.350  30.040  55.956  0.00  0.00    +0.135 A 
ATOM      5  C   LIG    1       23.188  30.719  55.558  0.00  0.00    +0.078 A 
ATOM      6  C   LIG    1       23.095  32.166  55.841  0.00  0.00    +0.250 C 
ATOM      7  N   LIG    1       24.233  32.815  56.182  0.00  0.00    -0.276 N 
ATOM      8  H   LIG    1       24.202  33.755  56.420  0.00  0.00    +0.152 HD
ATOM      9  C   LIG    1       25.510  32.101  56.192  0.00  0.00    +0.263 C 
ATOM     10  O   LIG    1       22.032  32.754  55.770  0.00  0.00    -0.270 OA
ATOM     11  O   LIG    1       25.329  30.739  56.579  0.00  0.00    -0.470 OA
ATOM     12  C   LIG    1       22.163  30.031  54.915  0.00  0.00    +0.017 A 
ENDROOT
BRANCH   9  13
ATOM     13  C   LIG    1       26.123  32.148  54.791  0.00  0.00    +0.081 C 
BRANCH  13  14
ATOM     14  C   LIG    1       27.565  32.655  54.882  0.00  0.00    +0.114 C 
ATOM     15 CL   LIG    1       27.595  34.433  54.585  0.00  0.00    -0.125 Cl
ENDBRANCH  13  14
ENDBRANCH   9  13
TORSDOF 2
ENDMDL
MODEL 2
REMARK VINA RESULT:      -4.8      2.785      4.495
REMARK  Name = ZINC00000138
REMARK                            x       y       z     vdW  Elec       q    Type
REMARK                         _______ _______ _______ _____ _____    ______ ____
ROOT
ATOM      1  C   LIG    1       27.734  33.107  54.582  0.00  0.00    +0.001 A 
ATOM      2  C   LIG    1       27.940  33.137  55.951  0.00  0.00    +0.004 A 
ATOM      3  C   LIG    1       27.005  32.598  56.816  0.00  0.00    +0.046 A 
ATOM      4  C   LIG    1       25.853  32.022  56.310  0.00  0.00    +0.135 A 
ATOM      5  C   LIG    1       25.644  31.992  54.922  0.00  0.00    +0.078 A 
ATOM      6  C   LIG    1       24.402  31.369  54.420  0.00  0.00    +0.250 C 
ATOM      7  N   LIG    1       23.406  31.143  55.309  0.00  0.00    -0.276 N 
ATOM      8  H   LIG    1       22.595  30.694  55.024  0.00  0.00    +0.152 HD
ATOM      9  C   LIG    1       23.552  31.576  56.698  0.00  0.00    +0.263 C 
ATOM     10  O   LIG    1       24.278  31.069  53.247  0.00  0.00    -0.270 OA
ATOM     11  O   LIG    1       24.912  31.483  57.121  0.00  0.00    -0.470 OA
ATOM     12  C   LIG    1       26.591  32.537  54.060  0.00  0.00    +0.017 A 
ENDROOT
BRANCH   9  13
ATOM     13  C   LIG    1       23.084  33.027  56.825  0.00  0.00    +0.081 C 
BRANCH  13  14
ATOM     14  C   LIG    1       21.684  33.167  56.223  0.00  0.00    +0.114 C 
ATOM     15 CL   LIG    1       21.212  34.907  56.199  0.00  0.00    -0.125 Cl
ENDBRANCH  13  14
ENDBRANCH   9  13
TORSDOF 2
ENDMDL
MODEL 3
REMARK VINA RESULT:      -4.6      2.130      3.475
REMARK  Name = ZINC00000138
REMARK                            x       y       z     vdW  Elec       q    Type
REMARK                         _______ _______ _______ _____ _____    ______ ____
ROOT
ATOM      1  C   LIG    1       21.151  33.104  58.174  0.00  0.00    +0.001 A 
ATOM      2  C   LIG    1       20.879  33.419  56.853  0.00  0.00    +0.004 A 
ATOM      3  C   LIG    1       21.662  32.910  55.833  0.00  0.00    +0.046 A 
ATOM      4  C   LIG    1       22.726  32.079  56.133  0.00  0.00    +0.135 A 
ATOM      5  C   LIG    1       23.002  31.759  57.472  0.00  0.00    +0.078 A 
ATOM      6  C   LIG    1       24.146  30.869  57.753  0.00  0.00    +0.250 C 
ATOM      7  N   LIG    1       25.041  30.659  56.758  0.00  0.00    -0.276 N 
ATOM      8  H   LIG    1       25.779  30.044  56.892  0.00  0.00    +0.152 HD
ATOM      9  C   LIG    1       24.895  31.359  55.482  0.00  0.00    +0.263 C 
ATOM     10  O   LIG    1       24.281  30.342  58.841  0.00  0.00    -0.270 OA
ATOM     11  O   LIG    1       23.518  31.560  55.165  0.00  0.00    -0.470 OA
ATOM     12  C   LIG    1       22.208  32.277  58.491  0.00  0.00    +0.017 A 
ENDROOT
BRANCH   9  13
ATOM     13  C   LIG    1       25.593  32.718  55.571  0.00  0.00    +0.081 C 
BRANCH  13  14
ATOM     14  C   LIG    1       26.778  32.748  54.602  0.00  0.00    +0.114 C 
ATOM     15 CL   LIG    1       27.592  34.354  54.700  0.00  0.00    -0.125 Cl
ENDBRANCH  13  14
ENDBRANCH   9  13
TORSDOF 2
ENDMDL
MODEL 4
REMARK VINA RESULT:      -4.5      3.755      5.234
REMARK  Name = ZINC00000138
REMARK                            x       y       z     vdW  Elec       q    Type
REMARK                         _______ _______ _______ _____ _____    ______ ____
ROOT
ATOM      1  C   LIG    1       24.665  31.988  56.236  0.00  0.00    +0.001 A 
ATOM      2  C   LIG    1       25.295  30.759  56.339  0.00  0.00    +0.004 A 
ATOM      3  C   LIG    1       24.677  29.611  55.878  0.00  0.00    +0.046 A 
ATOM      4  C   LIG    1       23.418  29.690  55.309  0.00  0.00    +0.135 A 
ATOM      5  C   LIG    1       22.779  30.935  55.205  0.00  0.00    +0.078 A 
ATOM      6  C   LIG    1       21.436  30.979  54.593  0.00  0.00    +0.250 C 
ATOM      7  N   LIG    1       20.770  29.809  54.448  0.00  0.00    -0.276 N 
ATOM      8  H   LIG    1       19.907  29.794  54.007  0.00  0.00    +0.152 HD
ATOM      9  C   LIG    1       21.353  28.567  54.954  0.00  0.00    +0.263 C 
ATOM     10  O   LIG    1       20.944  32.032  54.230  0.00  0.00    -0.270 OA
ATOM     11  O   LIG    1       22.777  28.590  54.846  0.00  0.00    -0.470 OA
ATOM     12  C   LIG    1       23.410  32.085  55.672  0.00  0.00    +0.017 A 
ENDROOT
BRANCH   9  13
ATOM     13  C   LIG    1       20.965  28.391  56.424  0.00  0.00    +0.081 C 
BRANCH  13  14
ATOM     14  C   LIG    1       20.271  27.040  56.611  0.00  0.00    +0.114 C 
ATOM     15 CL   LIG    1       18.948  26.871  55.398  0.00  0.00    -0.125 Cl
ENDBRANCH  13  14
ENDBRANCH   9  13
TORSDOF 2
ENDMDL
MODEL 5
REMARK VINA RESULT:      -4.4      2.222      2.531
REMARK  Name = ZINC00000138
REMARK                            x       y       z     vdW  Elec       q    Type
REMARK                         _______ _______ _______ _____ _____    ______ ____
ROOT
ATOM      1  C   LIG    1       22.669  28.073  57.737  0.00  0.00    +0.001 A 
ATOM      2  C   LIG    1       22.881  29.049  58.696  0.00  0.00    +0.004 A 
ATOM      3  C   LIG    1       23.275  30.323  58.330  0.00  0.00    +0.046 A 
ATOM      4  C   LIG    1       23.460  30.626  56.993  0.00  0.00    +0.135 A 
ATOM      5  C   LIG    1       23.246  29.638  56.020  0.00  0.00    +0.078 A 
ATOM      6  C   LIG    1       23.454  30.000  54.603  0.00  0.00    +0.250 C 
ATOM      7  N   LIG    1       24.125  31.146  54.337  0.00  0.00    -0.276 N 
ATOM      8  H   LIG    1       24.239  31.439  53.420  0.00  0.00    +0.152 HD
ATOM      9  C   LIG    1       24.676  31.944  55.433  0.00  0.00    +0.263 C 
ATOM     10  O   LIG    1       23.038  29.292  53.705  0.00  0.00    -0.270 OA
ATOM     11  O   LIG    1       23.846  31.861  56.591  0.00  0.00    -0.470 OA
ATOM     12  C   LIG    1       22.850  28.359  56.399  0.00  0.00    +0.017 A 
ENDROOT
BRANCH   9  13
ATOM     13  C   LIG    1       26.074  31.425  55.779  0.00  0.00    +0.081 C 
BRANCH  13  14
ATOM     14  C   LIG    1       27.092  32.556  55.619  0.00  0.00    +0.114 C 
ATOM     15 CL   LIG    1       28.712  31.858  55.246  0.00  0.00    -0.125 Cl
ENDBRANCH  13  14
ENDBRANCH   9  13
TORSDOF 2
ENDMDL
