MODEL 1
REMARK VINA RESULT:      -5.5      0.000      0.000
REMARK  Name = ZINC00000393
REMARK                            x       y       z     vdW  Elec       q    Type
REMARK                         _______ _______ _______ _____ _____    ______ ____
ROOT
ATOM      1  N   LIG    1       22.588  30.567  55.389  0.00  0.00    +0.380 N 
ATOM      2  H   LIG    1       22.855  29.627  55.134  0.00  0.00    -0.082 HD
ATOM      3  C   LIG    1       22.207  30.596  56.806  0.00  0.00    -0.079 C 
ATOM      4  C   LIG    1       23.366  30.080  57.660  0.00  0.00    -0.018 C 
ATOM      5  C   LIG    1       24.593  30.972  57.441  0.00  0.00    +0.004 C 
ATOM      6  C   LIG    1       24.935  30.992  55.949  0.00  0.00    +0.002 C 
ATOM      7  C   LIG    1       23.718  31.474  55.158  0.00  0.00    -0.071 C 
ENDROOT
BRANCH   6   8
ATOM      8  C   LIG    1       26.094  31.926  55.712  0.00  0.00    -0.043 A 
ATOM      9  C   LIG    1       27.329  31.416  55.353  0.00  0.00    +0.004 A 
ATOM     10  C   LIG    1       28.395  32.270  55.135  0.00  0.00    +0.004 A 
ATOM     11  C   LIG    1       28.229  33.634  55.276  0.00  0.00    +0.045 A 
ATOM     12  C   LIG    1       26.991  34.147  55.637  0.00  0.00    +0.117 A 
ATOM     13  C   LIG    1       25.922  33.289  55.848  0.00  0.00    +0.049 A 
BRANCH  12  14
ATOM     14  O   LIG    1       26.826  35.489  55.776  0.00  0.00    -0.507 OA
ATOM     15  H   LIG    1       27.647  35.972  55.941  0.00  0.00    +0.292 HD
ENDBRANCH  12  14
ENDBRANCH   6   8
BRANCH   1  16
ATOM     16  C   LIG    1       21.446  30.990  54.567  0.00  0.00    -0.079 C 
BRANCH  16  18
ATOM     17  C   LIG    1       20.179  33.097  55.015  0.00  0.00    +0.002 C 
ATOM     18  C   LIG    1       20.392  31.648  55.460  0.00  0.00    -0.022 C 
ENDBRANCH  16  18
ENDBRANCH   1  16
TORSDOF 4
ENDMDL
MODEL 2
REMARK VINA RESULT:      -5.3      1.666      2.699
REMARK  Name = ZINC00000393
REMARK                            x       y       z     vdW  Elec       q    Type
REMARK                         _______ _______ _______ _____ _____    ______ ____
ROOT
ATOM      1  N   LIG    1       23.543  29.632  56.824  0.00  0.00    +0.380 N 
ATOM      2  H   LIG    1       23.701  29.628  57.821  0.00  0.00    -0.082 HD
ATOM      3  C   LIG    1       22.276  30.315  56.536  0.00  0.00    -0.079 C 
ATOM      4  C   LIG    1       22.313  31.731  57.113  0.00  0.00    -0.018 C 
ATOM      5  C   LIG    1       23.471  32.507  56.476  0.00  0.00    +0.004 C 
ATOM      6  C   LIG    1       24.777  31.745  56.719  0.00  0.00    +0.002 C 
ATOM      7  C   LIG    1       24.648  30.329  56.157  0.00  0.00    -0.071 C 
ENDROOT
BRANCH   6   8
ATOM      8  C   LIG    1       25.911  32.461  56.032  0.00  0.00    -0.043 A 
ATOM      9  C   LIG    1       26.911  31.733  55.412  0.00  0.00    +0.004 A 
ATOM     10  C   LIG    1       27.954  32.386  54.781  0.00  0.00    +0.004 A 
ATOM     11  C   LIG    1       28.000  33.767  54.770  0.00  0.00    +0.045 A 
ATOM     12  C   LIG    1       26.999  34.499  55.392  0.00  0.00    +0.117 A 
ATOM     13  C   LIG    1       25.950  33.841  56.019  0.00  0.00    +0.049 A 
BRANCH  12  14
ATOM     14  O   LIG    1       27.042  35.857  55.382  0.00  0.00    -0.507 OA
ATOM     15  H   LIG    1       26.344  36.269  54.855  0.00  0.00    +0.292 HD
ENDBRANCH  12  14
ENDBRANCH   6   8
BRANCH   1  16
ATOM     16  C   LIG    1       23.473  28.248  56.336  0.00  0.00    -0.079 C 
BRANCH  16  18
ATOM     17  C   LIG    1       24.186  27.280  54.145  0.00  0.00    +0.002 C 
ATOM     18  C   LIG    1       24.669  27.967  55.424  0.00  0.00    -0.022 C 
ENDBRANCH  16  18
ENDBRANCH   1  16
TORSDOF 4
ENDMDL
MODEL 3
REMARK VINA RESULT:      -4.9      2.009      2.842
REMARK  Name = ZINC00000393
REMARK                            x       y       z     vdW  Elec       q    Type
REMARK                         _______ _______ _______ _____ _____    ______ ____
ROOT
ATOM      1  N   LIG    1       22.916  30.432  57.506  0.00  0.00    +0.380 N 
ATOM      2  H   LIG    1       22.224  30.690  56.817  0.00  0.00    -0.082 HD
ATOM      3  C   LIG    1       23.260  29.015  57.342  0.00  0.00    -0.079 C 
ATOM      4  C   LIG    1       23.754  28.768  55.915  0.00  0.00    -0.018 C 
ATOM      5  C   LIG    1       24.993  29.630  55.653  0.00  0.00    +0.004 C 
ATOM      6  C   LIG    1       24.641  31.099  55.900  0.00  0.00    +0.002 C 
ATOM      7  C   LIG    1       24.114  31.260  57.327  0.00  0.00    -0.071 C 
ENDROOT
BRANCH   6   8
ATOM      8  C   LIG    1       25.873  31.949  55.718  0.00  0.00    -0.043 A 
ATOM      9  C   LIG    1       27.074  31.357  55.368  0.00  0.00    +0.004 A 
ATOM     10  C   LIG    1       28.206  32.133  55.201  0.00  0.00    +0.004 A 
ATOM     11  C   LIG    1       28.140  33.501  55.382  0.00  0.00    +0.045 A 
ATOM     12  C   LIG    1       26.937  34.096  55.734  0.00  0.00    +0.117 A 
ATOM     13  C   LIG    1       25.801  33.316  55.895  0.00  0.00    +0.049 A 
BRANCH  12  14
ATOM     14  O   LIG    1       26.870  35.441  55.914  0.00  0.00    -0.507 OA
ATOM     15  H   LIG    1       27.710  35.900  55.772  0.00  0.00    +0.292 HD
ENDBRANCH  12  14
ENDBRANCH   6   8
BRANCH   1  16
ATOM     16  C   LIG    1       22.369  30.649  58.852  0.00  0.00    -0.079 C 
BRANCH  16  18
ATOM     17  C   LIG    1       22.785  29.857  61.186  0.00  0.00    +0.002 C 
ATOM     18  C   LIG    1       23.447  30.346  59.895  0.00  0.00    -0.022 C 
ENDBRANCH  16  18
ENDBRANCH   1  16
TORSDOF 4
ENDMDL
MODEL 4
REMARK VINA RESULT:      -4.8      2.705      5.806
REMARK  Name = ZINC00000393
REMARK                            x       y       z     vdW  Elec       q    Type
REMARK                         _______ _______ _______ _____ _____    ______ ____
ROOT
ATOM      1  N   LIG    1       25.548  31.131  55.738  0.00  0.00    +0.380 N 
ATOM      2  H   LIG    1       25.923  30.224  55.500  0.00  0.00    -0.082 HD
ATOM      3  C   LIG    1       24.570  31.534  54.721  0.00  0.00    -0.079 C 
ATOM      4  C   LIG    1       23.473  30.473  54.615  0.00  0.00    -0.018 C 
ATOM      5  C   LIG    1       22.774  30.330  55.971  0.00  0.00    +0.004 C 
ATOM      6  C   LIG    1       23.817  29.983  57.036  0.00  0.00    +0.002 C 
ATOM      7  C   LIG    1       24.902  31.062  57.053  0.00  0.00    -0.071 C 
ENDROOT
BRANCH   6   8
ATOM      8  C   LIG    1       23.153  29.914  58.387  0.00  0.00    -0.043 A 
ATOM      9  C   LIG    1       22.472  28.770  58.764  0.00  0.00    +0.004 A 
ATOM     10  C   LIG    1       21.861  28.703  60.002  0.00  0.00    +0.004 A 
ATOM     11  C   LIG    1       21.928  29.780  60.866  0.00  0.00    +0.045 A 
ATOM     12  C   LIG    1       22.609  30.929  60.489  0.00  0.00    +0.117 A 
ATOM     13  C   LIG    1       23.227  30.991  59.249  0.00  0.00    +0.049 A 
BRANCH  12  14
ATOM     14  O   LIG    1       22.675  31.988  61.337  0.00  0.00    -0.507 OA
ATOM     15  H   LIG    1       23.390  32.608  61.138  0.00  0.00    +0.292 HD
ENDBRANCH  12  14
ENDBRANCH   6   8
BRANCH   1  16
ATOM     16  C   LIG    1       26.640  32.113  55.781  0.00  0.00    -0.079 C 
BRANCH  16  18
ATOM     17  C   LIG    1       27.615  33.995  54.455  0.00  0.00    +0.002 C 
ATOM     18  C   LIG    1       26.909  32.639  54.369  0.00  0.00    -0.022 C 
ENDBRANCH  16  18
ENDBRANCH   1  16
TORSDOF 4
ENDMDL
MODEL 5
REMARK VINA RESULT:      -4.7      1.823      2.256
REMARK  Name = ZINC00000393
REMARK                            x       y       z     vdW  Elec       q    Type
REMARK                         _______ _______ _______ _____ _____    ______ ____
ROOT
ATOM      1  N   LIG    1       22.423  29.877  55.840  0.00  0.00    +0.380 N 
ATOM      2  H   LIG    1       22.619  29.436  56.727  0.00  0.00    -0.082 HD
ATOM      3  C   LIG    1       21.446  30.955  56.039  0.00  0.00    -0.079 C 
ATOM      4  C   LIG    1       21.985  31.953  57.065  0.00  0.00    -0.018 C 
ATOM      5  C   LIG    1       23.303  32.543  56.553  0.00  0.00    +0.004 C 
ATOM      6  C   LIG    1       24.288  31.403  56.279  0.00  0.00    +0.002 C 
ATOM      7  C   LIG    1       23.664  30.425  55.282  0.00  0.00    -0.071 C 
ENDROOT
BRANCH   6   8
ATOM      8  C   LIG    1       25.562  31.967  55.704  0.00  0.00    -0.043 A 
ATOM      9  C   LIG    1       25.750  31.990  54.333  0.00  0.00    +0.004 A 
ATOM     10  C   LIG    1       26.917  32.506  53.802  0.00  0.00    +0.004 A 
ATOM     11  C   LIG    1       27.899  32.999  54.639  0.00  0.00    +0.045 A 
ATOM     12  C   LIG    1       27.713  32.977  56.014  0.00  0.00    +0.117 A 
ATOM     13  C   LIG    1       26.538  32.464  56.544  0.00  0.00    +0.049 A 
BRANCH  12  14
ATOM     14  O   LIG    1       28.678  33.462  56.839  0.00  0.00    -0.507 OA
ATOM     15  H   LIG    1       29.353  32.813  57.080  0.00  0.00    +0.292 HD
ENDBRANCH  12  14
ENDBRANCH   6   8
BRANCH   1  16
ATOM     16  C   LIG    1       21.868  28.881  54.913  0.00  0.00    -0.079 C 
BRANCH  16  18
ATOM     17  C   LIG    1       20.091  27.498  55.996  0.00  0.00    +0.002 C 
ATOM     18  C   LIG    1       20.363  28.745  55.151  0.00  0.00    -0.022 C 
ENDBRANCH  16  18
ENDBRANCH   1  16
TORSDOF 4
ENDMDL
