MODEL 1
REMARK VINA RESULT:      -5.9      0.000      0.000
REMARK  Name = ZINC00000103
REMARK                            x       y       z     vdW  Elec       q    Type
REMARK                         _______ _______ _______ _____ _____    ______ ____
ROOT
ATOM      1  C   LIG    1       22.017  36.377  57.479  0.00  0.00    +0.105 C 
ATOM      2  N   LIG    1       20.889  35.439  57.395  0.00  0.00    -0.298 NA
ATOM      3  C   LIG    1       19.652  36.135  57.039  0.00  0.00    +0.089 C 
ATOM      4  C   LIG    1       18.451  35.219  57.198  0.00  0.00    +0.051 C 
ATOM      5  C   LIG    1       18.746  33.810  56.766  0.00  0.00    -0.037 A 
ATOM      6  C   LIG    1       17.689  32.909  56.714  0.00  0.00    +0.053 A 
ATOM      7  C   LIG    1       17.886  31.604  56.301  0.00  0.00    +0.167 A 
ATOM      8  C   LIG    1       19.162  31.182  55.941  0.00  0.00    +0.174 A 
ATOM      9  O   LIG    1       19.098  29.872  55.563  0.00  0.00    -0.452 OA
ATOM     10  C   LIG    1       17.852  29.380  56.092  0.00  0.00    +0.466 C 
ATOM     11  C   LIG    1       20.227  32.076  56.012  0.00  0.00    +0.036 A 
ATOM     12  C   LIG    1       21.595  31.645  55.639  0.00  0.00    +0.034 A 
ATOM     13  C   LIG    1       21.796  30.484  54.893  0.00  0.00    +0.167 A 
ATOM     14  C   LIG    1       23.088  30.111  54.541  0.00  0.00    +0.162 A 
ATOM     15  C   LIG    1       24.164  30.891  54.931  0.00  0.00    +0.050 A 
ATOM     16  C   LIG    1       23.962  32.038  55.677  0.00  0.00    +0.008 A 
ATOM     17  C   LIG    1       22.685  32.415  56.039  0.00  0.00    -0.034 A 
ATOM     18  C   LIG    1       22.459  33.651  56.866  0.00  0.00    +0.059 C 
ATOM     19  O   LIG    1       17.023  30.556  56.161  0.00  0.00    -0.453 OA
ATOM     20  C   LIG    1       20.013  33.398  56.416  0.00  0.00    -0.015 A 
ATOM     21  C   LIG    1       21.174  34.358  56.440  0.00  0.00    +0.092 C 
ENDROOT
BRANCH  13  22
ATOM     22  O   LIG    1       20.735  29.723  54.512  0.00  0.00    -0.503 OA
ATOM     23  H   LIG    1       20.825  29.335  53.631  0.00  0.00    +0.292 HD
ENDBRANCH  13  22
BRANCH  14  24
ATOM     24  O   LIG    1       23.295  28.979  53.815  0.00  0.00    -0.491 OA
ATOM     25  C   LIG    1       23.903  27.877  54.490  0.00  0.00    +0.277 C 
ENDBRANCH  14  24
TORSDOF 2
ENDMDL
MODEL 2
REMARK VINA RESULT:      -5.8      1.691      2.804
REMARK  Name = ZINC00000103
REMARK                            x       y       z     vdW  Elec       q    Type
REMARK                         _______ _______ _______ _____ _____    ______ ____
ROOT
ATOM      1  C   LIG    1       23.575  37.487  57.943  0.00  0.00    +0.105 C 
ATOM      2  N   LIG    1       22.132  37.224  57.861  0.00  0.00    -0.298 NA
ATOM      3  C   LIG    1       21.403  38.420  57.437  0.00  0.00    +0.089 C 
ATOM      4  C   LIG    1       19.905  38.224  57.596  0.00  0.00    +0.051 C 
ATOM      5  C   LIG    1       19.469  36.833  57.232  0.00  0.00    -0.037 A 
ATOM      6  C   LIG    1       18.105  36.570  57.183  0.00  0.00    +0.053 A 
ATOM      7  C   LIG    1       17.635  35.318  56.831  0.00  0.00    +0.167 A 
ATOM      8  C   LIG    1       18.538  34.303  56.529  0.00  0.00    +0.174 A 
ATOM      9  O   LIG    1       17.838  33.178  56.204  0.00  0.00    -0.452 OA
ATOM     10  C   LIG    1       16.508  33.393  56.713  0.00  0.00    +0.466 C 
ATOM     11  C   LIG    1       19.905  34.559  56.598  0.00  0.00    +0.036 A 
ATOM     12  C   LIG    1       20.884  33.490  56.287  0.00  0.00    +0.034 A 
ATOM     13  C   LIG    1       20.490  32.344  55.596  0.00  0.00    +0.167 A 
ATOM     14  C   LIG    1       21.433  31.365  55.301  0.00  0.00    +0.162 A 
ATOM     15  C   LIG    1       22.751  31.532  55.692  0.00  0.00    +0.050 A 
ATOM     16  C   LIG    1       23.137  32.667  56.384  0.00  0.00    +0.008 A 
ATOM     17  C   LIG    1       22.209  33.642  56.689  0.00  0.00    -0.034 A 
ATOM     18  C   LIG    1       22.617  34.870  57.457  0.00  0.00    +0.059 C 
ATOM     19  O   LIG    1       16.368  34.826  56.706  0.00  0.00    -0.453 OA
ATOM     20  C   LIG    1       20.369  35.833  56.940  0.00  0.00    -0.015 A 
ATOM     21  C   LIG    1       21.852  36.095  56.961  0.00  0.00    +0.092 C 
ENDROOT
BRANCH  13  22
ATOM     22  O   LIG    1       19.195  32.187  55.212  0.00  0.00    -0.503 OA
ATOM     23  H   LIG    1       18.965  31.281  54.968  0.00  0.00    +0.292 HD
ENDBRANCH  13  22
BRANCH  14  24
ATOM     24  O   LIG    1       21.059  30.243  54.628  0.00  0.00    -0.491 OA
ATOM     25  C   LIG    1       22.049  29.225  54.466  0.00  0.00    +0.277 C 
ENDBRANCH  14  24
TORSDOF 2
ENDMDL
MODEL 3
REMARK VINA RESULT:      -5.8      3.258      5.179
REMARK  Name = ZINC00000103
REMARK                            x       y       z     vdW  Elec       q    Type
REMARK                         _______ _______ _______ _____ _____    ______ ____
ROOT
ATOM      1  C   LIG    1       15.791  34.205  56.904  0.00  0.00    +0.105 C 
ATOM      2  N   LIG    1       16.789  35.278  57.016  0.00  0.00    -0.298 NA
ATOM      3  C   LIG    1       16.445  36.205  58.096  0.00  0.00    +0.089 C 
ATOM      4  C   LIG    1       17.327  37.440  58.048  0.00  0.00    +0.051 C 
ATOM      5  C   LIG    1       18.747  37.115  57.676  0.00  0.00    -0.037 A 
ATOM      6  C   LIG    1       19.690  38.134  57.750  0.00  0.00    +0.053 A 
ATOM      7  C   LIG    1       21.017  37.897  57.445  0.00  0.00    +0.167 A 
ATOM      8  C   LIG    1       21.416  36.624  57.049  0.00  0.00    +0.174 A 
ATOM      9  O   LIG    1       22.761  36.639  56.818  0.00  0.00    -0.452 OA
ATOM     10  C   LIG    1       23.109  38.030  56.672  0.00  0.00    +0.466 C 
ATOM     11  C   LIG    1       20.470  35.607  56.954  0.00  0.00    +0.036 A 
ATOM     12  C   LIG    1       20.872  34.246  56.528  0.00  0.00    +0.034 A 
ATOM     13  C   LIG    1       22.212  33.860  56.554  0.00  0.00    +0.167 A 
ATOM     14  C   LIG    1       22.561  32.571  56.166  0.00  0.00    +0.162 A 
ATOM     15  C   LIG    1       21.581  31.680  55.759  0.00  0.00    +0.050 A 
ATOM     16  C   LIG    1       20.253  32.069  55.727  0.00  0.00    +0.008 A 
ATOM     17  C   LIG    1       19.895  33.348  56.103  0.00  0.00    -0.034 A 
ATOM     18  C   LIG    1       18.456  33.783  56.053  0.00  0.00    +0.059 C 
ATOM     19  O   LIG    1       22.110  38.715  57.450  0.00  0.00    -0.453 OA
ATOM     20  C   LIG    1       19.133  35.854  57.280  0.00  0.00    -0.015 A 
ATOM     21  C   LIG    1       18.137  34.725  57.213  0.00  0.00    +0.092 C 
ENDROOT
BRANCH  13  22
ATOM     22  O   LIG    1       23.170  34.737  56.957  0.00  0.00    -0.503 OA
ATOM     23  H   LIG    1       24.014  34.637  56.496  0.00  0.00    +0.292 HD
ENDBRANCH  13  22
BRANCH  14  24
ATOM     24  O   LIG    1       23.866  32.184  56.186  0.00  0.00    -0.491 OA
ATOM     25  C   LIG    1       24.349  31.473  55.046  0.00  0.00    +0.277 C 
ENDBRANCH  14  24
TORSDOF 2
ENDMDL
MODEL 4
REMARK VINA RESULT:      -5.7      2.132      4.917
REMARK  Name = ZINC00000103
REMARK                            x       y       z     vdW  Elec       q    Type
REMARK                         _______ _______ _______ _____ _____    ______ ____
ROOT
ATOM      1  C   LIG    1       15.738  33.196  57.044  0.00  0.00    +0.105 C 
ATOM      2  N   LIG    1       17.106  33.091  56.517  0.00  0.00    -0.298 NA
ATOM      3  C   LIG    1       17.993  34.060  57.163  0.00  0.00    +0.089 C 
ATOM      4  C   LIG    1       19.332  34.126  56.449  0.00  0.00    +0.051 C 
ATOM      5  C   LIG    1       19.801  32.776  55.987  0.00  0.00    -0.037 A 
ATOM      6  C   LIG    1       21.083  32.676  55.460  0.00  0.00    +0.053 A 
ATOM      7  C   LIG    1       21.586  31.458  55.040  0.00  0.00    +0.167 A 
ATOM      8  C   LIG    1       20.796  30.317  55.136  0.00  0.00    +0.174 A 
ATOM      9  O   LIG    1       21.511  29.250  54.673  0.00  0.00    -0.452 OA
ATOM     10  C   LIG    1       22.591  29.816  53.907  0.00  0.00    +0.466 C 
ATOM     11  C   LIG    1       19.504  30.418  55.644  0.00  0.00    +0.036 A 
ATOM     12  C   LIG    1       18.643  29.215  55.749  0.00  0.00    +0.034 A 
ATOM     13  C   LIG    1       19.197  27.937  55.683  0.00  0.00    +0.167 A 
ATOM     14  C   LIG    1       18.370  26.825  55.802  0.00  0.00    +0.162 A 
ATOM     15  C   LIG    1       17.007  26.993  55.986  0.00  0.00    +0.050 A 
ATOM     16  C   LIG    1       16.460  28.263  56.044  0.00  0.00    +0.008 A 
ATOM     17  C   LIG    1       17.270  29.373  55.920  0.00  0.00    -0.034 A 
ATOM     18  C   LIG    1       16.680  30.756  55.964  0.00  0.00    +0.059 C 
ATOM     19  O   LIG    1       22.793  31.110  54.505  0.00  0.00    -0.453 OA
ATOM     20  C   LIG    1       19.011  31.651  56.081  0.00  0.00    -0.015 A 
ATOM     21  C   LIG    1       17.626  31.724  56.670  0.00  0.00    +0.092 C 
ENDROOT
BRANCH  13  22
ATOM     22  O   LIG    1       20.536  27.779  55.504  0.00  0.00    -0.503 OA
ATOM     23  H   LIG    1       20.860  26.894  55.720  0.00  0.00    +0.292 HD
ENDBRANCH  13  22
BRANCH  14  24
ATOM     24  O   LIG    1       18.899  25.574  55.737  0.00  0.00    -0.491 OA
ATOM     25  C   LIG    1       18.100  24.563  55.121  0.00  0.00    +0.277 C 
ENDBRANCH  14  24
TORSDOF 2
ENDMDL
MODEL 5
REMARK VINA RESULT:      -5.7      4.576      8.469
REMARK  Name = ZINC00000103
REMARK                            x       y       z     vdW  Elec       q    Type
REMARK                         _______ _______ _______ _____ _____    ______ ____
ROOT
ATOM      1  C   LIG    1       16.421  32.163  56.753  0.00  0.00    +0.105 C 
ATOM      2  N   LIG    1       17.651  32.960  56.852  0.00  0.00    -0.298 NA
ATOM      3  C   LIG    1       18.623  32.556  55.834  0.00  0.00    +0.089 C 
ATOM      4  C   LIG    1       19.975  33.198  56.094  0.00  0.00    +0.051 C 
ATOM      5  C   LIG    1       19.852  34.612  56.586  0.00  0.00    -0.037 A 
ATOM      6  C   LIG    1       21.015  35.363  56.711  0.00  0.00    +0.053 A 
ATOM      7  C   LIG    1       20.970  36.678  57.135  0.00  0.00    +0.167 A 
ATOM      8  C   LIG    1       19.746  37.259  57.450  0.00  0.00    +0.174 A 
ATOM      9  O   LIG    1       19.959  38.553  57.826  0.00  0.00    -0.452 OA
ATOM     10  C   LIG    1       21.363  38.634  58.141  0.00  0.00    +0.466 C 
ATOM     11  C   LIG    1       18.581  36.503  57.345  0.00  0.00    +0.036 A 
ATOM     12  C   LIG    1       17.267  37.101  57.681  0.00  0.00    +0.034 A 
ATOM     13  C   LIG    1       17.115  38.484  57.765  0.00  0.00    +0.167 A 
ATOM     14  C   LIG    1       15.867  39.020  58.064  0.00  0.00    +0.162 A 
ATOM     15  C   LIG    1       14.786  38.180  58.277  0.00  0.00    +0.050 A 
ATOM     16  C   LIG    1       14.942  36.807  58.200  0.00  0.00    +0.008 A 
ATOM     17  C   LIG    1       16.177  36.264  57.911  0.00  0.00    -0.034 A 
ATOM     18  C   LIG    1       16.357  34.772  57.844  0.00  0.00    +0.059 C 
ATOM     19  O   LIG    1       21.955  37.604  57.326  0.00  0.00    -0.453 OA
ATOM     20  C   LIG    1       18.637  35.178  56.901  0.00  0.00    -0.015 A 
ATOM     21  C   LIG    1       17.357  34.397  56.752  0.00  0.00    +0.092 C 
ENDROOT
BRANCH  13  22
ATOM     22  O   LIG    1       18.180  39.304  57.553  0.00  0.00    -0.503 OA
ATOM     23  H   LIG    1       18.108  39.844  56.755  0.00  0.00    +0.292 HD
ENDBRANCH  13  22
BRANCH  14  24
ATOM     24  O   LIG    1       15.709  40.368  58.149  0.00  0.00    -0.491 OA
ATOM     25  C   LIG    1       14.538  40.923  57.547  0.00  0.00    +0.277 C 
ENDBRANCH  14  24
TORSDOF 2
ENDMDL
