REMARK  Name = ZINC04937432
REMARK                            x       y       z     vdW  Elec       q    Type
REMARK                         _______ _______ _______ _____ _____    ______ ____
ROOT
ATOM      1  S   LIG    1       -5.208  -2.750   0.036  0.00  0.00    +0.060 S 
ATOM      2  O   LIG    1       -4.932  -4.144   0.059  0.00  0.00    -0.153 OA
ATOM      3  O   LIG    1       -5.992  -2.145  -0.983  0.00  0.00    -0.153 OA
ENDROOT
BRANCH   1   8
ATOM      4  C   LIG    1       -1.200  -0.638   0.010  0.00  0.00    +0.140 A 
ATOM      5  C   LIG    1       -2.374   0.101   0.019  0.00  0.00    +0.069 A 
ATOM      6  C   LIG    1       -3.596  -0.546   0.027  0.00  0.00    +0.071 A 
ATOM      7 CL   LIG    1       -5.066   0.378   0.040  0.00  0.00    -0.081 Cl
ATOM      8  C   LIG    1       -3.649  -1.929   0.026  0.00  0.00    +0.125 A 
ATOM      9  C   LIG    1       -2.480  -2.667   0.016  0.00  0.00    +0.053 A 
ATOM     10  C   LIG    1       -1.256  -2.025   0.003  0.00  0.00    +0.084 A 
ATOM     11 CL   LIG    1        0.212  -2.952  -0.015  0.00  0.00    -0.080 Cl
BRANCH   4  13
ATOM     12  C   LIG    1       -0.017   1.425   0.010  0.00  0.00    +0.277 C 
ATOM     13  O   LIG    1        0.002  -0.004   0.002  0.00  0.00    -0.494 OA
ENDBRANCH   4  13
ENDBRANCH   1   8
BRANCH   1  14
ATOM     14  N   LIG    1       -5.942  -2.389   1.476  0.00  0.00    -0.190 NA
ATOM     15  H   LIG    1       -6.113  -3.091   2.123  0.00  0.00    +0.148 HD
BRANCH  14  16
ATOM     16  C   LIG    1       -6.333  -1.009   1.773  0.00  0.00    +0.107 C 
BRANCH  16  17
ATOM     17  C   LIG    1       -7.301  -0.997   2.957  0.00  0.00    +0.038 C 
BRANCH  17  18
ATOM     18  C   LIG    1       -7.710   0.445   3.267  0.00  0.00    +0.124 C 
BRANCH  18  19
ATOM     19  N   LIG    1       -8.637   0.457   4.401  0.00  0.00    -0.337 N 
ATOM     20  C   LIG    1      -10.002   0.366   4.335  0.00  0.00    +0.106 A 
ATOM     21  C   LIG    1      -10.457   0.415   5.602  0.00  0.00    +0.130 A 
ATOM     22  N   LIG    1       -9.399   0.532   6.418  0.00  0.00    -0.244 NA
ATOM     23  C   LIG    1       -8.306   0.553   5.706  0.00  0.00    +0.199 A 
ENDBRANCH  18  19
ENDBRANCH  17  18
ENDBRANCH  16  17
ENDBRANCH  14  16
ENDBRANCH   1  14
TORSDOF 7
