REMARK  Name = ZINC05819733
REMARK                            x       y       z     vdW  Elec       q    Type
REMARK                         _______ _______ _______ _____ _____    ______ ____
ROOT
ATOM      1  C   LIG    1       -1.291  -0.778   0.010  0.00  0.00    +0.070 C 
ENDROOT
BRANCH   1   2
ATOM      2  C   LIG    1       -1.425  -1.545  -1.281  0.00  0.00    +0.087 A 
ATOM      3  C   LIG    1       -1.448  -0.879  -2.476  0.00  0.00    +0.138 A 
ATOM      4  C   LIG    1       -1.580  -1.674  -3.707  0.00  0.00    +0.059 A 
ATOM      5  C   LIG    1       -1.610  -1.060  -4.961  0.00  0.00    +0.015 A 
ATOM      6  C   LIG    1       -1.735  -1.833  -6.094  0.00  0.00    +0.001 A 
ATOM      7  C   LIG    1       -1.831  -3.213  -5.993  0.00  0.00    +0.004 A 
ATOM      8  C   LIG    1       -1.803  -3.832  -4.761  0.00  0.00    +0.047 A 
ATOM      9  C   LIG    1       -1.678  -3.071  -3.606  0.00  0.00    +0.143 A 
ATOM     10  O   LIG    1       -1.648  -3.661  -2.391  0.00  0.00    -0.422 OA
ATOM     11  C   LIG    1       -1.522  -2.945  -1.262  0.00  0.00    +0.345 A 
ATOM     12  O   LIG    1       -1.495  -3.526  -0.192  0.00  0.00    -0.245 OA
BRANCH   3  13
ATOM     13  O   LIG    1       -1.351   0.469  -2.524  0.00  0.00    -0.506 OA
ATOM     14  H   LIG    1       -1.371   0.987  -3.494  0.00  0.00    +0.292 HD
ENDBRANCH   3  13
ENDBRANCH   1   2
BRANCH   1  15
ATOM     15  C   LIG    1        0.069  -0.133   0.071  0.00  0.00    +0.087 A 
ATOM     16  C   LIG    1        0.180   1.220   0.245  0.00  0.00    +0.138 A 
ATOM     17  C   LIG    1        1.531   1.801   0.297  0.00  0.00    +0.059 A 
ATOM     18  C   LIG    1        1.718   3.174   0.472  0.00  0.00    +0.015 A 
ATOM     19  C   LIG    1        2.996   3.686   0.517  0.00  0.00    +0.001 A 
ATOM     20  C   LIG    1        4.092   2.846   0.389  0.00  0.00    +0.004 A 
ATOM     21  C   LIG    1        3.921   1.488   0.218  0.00  0.00    +0.047 A 
ATOM     22  C   LIG    1        2.641   0.951   0.169  0.00  0.00    +0.143 A 
ATOM     23  O   LIG    1        2.456  -0.376   0.001  0.00  0.00    -0.422 OA
ATOM     24  C   LIG    1        1.227  -0.916  -0.050  0.00  0.00    +0.345 A 
ATOM     25  O   LIG    1        1.115  -2.119  -0.204  0.00  0.00    -0.245 OA
BRANCH  16  26
ATOM     26  O   LIG    1       -0.918   2.000   0.358  0.00  0.00    -0.506 OA
ATOM     27  H   LIG    1       -0.810   3.086   0.497  0.00  0.00    +0.292 HD
ENDBRANCH  16  26
ENDBRANCH   1  15
BRANCH   1  28
ATOM     28  C   LIG    1       -1.454  -1.737   1.191  0.00  0.00    +0.013 C 
BRANCH  28  30
ATOM     29  C   LIG    1       -1.606  -1.900   3.680  0.00  0.00    +0.004 C 
ATOM     30  C   LIG    1       -1.443  -0.942   2.498  0.00  0.00    -0.002 C 
ENDBRANCH  28  30
ENDBRANCH   1  28
TORSDOF 6
