REMARK  Name = ZINC04910771
REMARK                            x       y       z     vdW  Elec       q    Type
REMARK                         _______ _______ _______ _____ _____    ______ ____
ROOT
ATOM      1  C   LIG    1       -1.217   1.640   0.017  0.00  0.00    +0.165 A 
ATOM      2  C   LIG    1       -2.477   0.892   0.019  0.00  0.00    +0.201 A 
ATOM      3  N   LIG    1       -2.781  -0.388   0.013  0.00  0.00    -0.126 NA
ATOM      4  N   LIG    1       -4.062  -0.522   0.018  0.00  0.00    -0.137 NA
ATOM      5  C   LIG    1       -4.638   0.655   0.028  0.00  0.00    +0.230 A 
ATOM      6  N   LIG    1       -3.663   1.584   0.029  0.00  0.00    -0.277 N 
ATOM      7  C   LIG    1       -3.638   2.969   0.036  0.00  0.00    +0.075 A 
ATOM      8  C   LIG    1       -4.822   3.695   0.045  0.00  0.00    +0.028 A 
ATOM      9  C   LIG    1       -4.787   5.073   0.053  0.00  0.00    +0.002 A 
ATOM     10  C   LIG    1       -3.574   5.745   0.050  0.00  0.00    +0.002 A 
ATOM     11  C   LIG    1       -2.390   5.045   0.040  0.00  0.00    +0.030 A 
ATOM     12  C   LIG    1       -2.406   3.644   0.033  0.00  0.00    +0.090 A 
ATOM     13  N   LIG    1       -1.236   2.954   0.029  0.00  0.00    -0.227 NA
ENDROOT
BRANCH   1  14
ATOM     14  N   LIG    1       -0.011   0.966   0.007  0.00  0.00    -0.324 N 
ATOM     15  H   LIG    1        0.002  -0.004   0.002  0.00  0.00    +0.148 HD
BRANCH  14  17
ATOM     16  C   LIG    1        1.635   2.077   1.435  0.00  0.00    +0.027 C 
ATOM     17  C   LIG    1        1.248   1.716  -0.001  0.00  0.00    +0.066 C 
ATOM     18  C   LIG    1        2.349   0.857  -0.625  0.00  0.00    +0.027 C 
ENDBRANCH  14  17
ENDBRANCH   1  14
TORSDOF 2
