REMARK  Name = ZINC05165145
REMARK                            x       y       z     vdW  Elec       q    Type
REMARK                         _______ _______ _______ _____ _____    ______ ____
ROOT
ATOM      1  C   LIG    1        0.718  -0.497  -1.257  0.00  0.00    -0.028 C 
ATOM      2  C   LIG    1        2.154   0.032  -1.268  0.00  0.00    +0.010 C 
ATOM      3  C   LIG    1        2.133   1.562  -1.259  0.00  0.00    -0.011 C 
ATOM      4  C   LIG    1        1.393   2.069  -2.499  0.00  0.00    +0.007 C 
ATOM      5  C   LIG    1       -0.043   1.539  -2.488  0.00  0.00    -0.011 C 
ATOM      6  C   LIG    1       -0.759   2.033  -1.229  0.00  0.00    -0.010 C 
ATOM      7  C   LIG    1       -0.019   1.526   0.010  0.00  0.00    -0.070 C 
ATOM      8  C   LIG    1        1.417   2.055  -0.000  0.00  0.00    -0.010 C 
ATOM      9  C   LIG    1        0.002  -0.004   0.002  0.00  0.00    -0.006 C 
ATOM     10  C   LIG    1       -0.022   0.009  -2.496  0.00  0.00    +0.010 C 
ENDROOT
BRANCH   7  11
ATOM     11  N   LIG    1       -0.691   1.990   1.237  0.00  0.00    +0.382 N 
ATOM     12  H   LIG    1       -0.161   1.668   2.055  0.00  0.00    -0.089 HD
ATOM     13  H   LIG    1       -1.635   1.611   1.282  0.00  0.00    -0.089 HD
ATOM     14  H   LIG    1       -0.733   3.008   1.248  0.00  0.00    -0.089 HD
ENDBRANCH   7  11
BRANCH   1  16
ATOM     15  C   LIG    1        1.455  -2.521  -2.524  0.00  0.00    +0.008 C 
ATOM     16  C   LIG    1        0.739  -2.027  -1.265  0.00  0.00    -0.011 C 
ATOM     17  C   LIG    1        1.479  -2.534  -0.026  0.00  0.00    +0.008 C 
ENDBRANCH   1  16
TORSDOF 2
