REMARK  Name = ZINC05115878
REMARK                            x       y       z     vdW  Elec       q    Type
REMARK                         _______ _______ _______ _____ _____    ______ ____
ROOT
ATOM      1  C   LIG    1       -0.093   1.328  -2.412  0.00  0.00    +0.120 C 
ATOM      2  C   LIG    1       -0.840   1.525  -1.085  0.00  0.00    +0.126 C 
ATOM      3  N   LIG    1       -0.012   1.005   0.008  0.00  0.00    -0.335 N 
ATOM      4  H   LIG    1        0.002  -0.004   0.002  0.00  0.00    +0.146 HD
ATOM      5  C   LIG    1        1.295   1.527  -0.002  0.00  0.00    +0.133 A 
ATOM      6  C   LIG    1        1.866   2.039  -1.129  0.00  0.00    +0.126 A 
ATOM      7  N   LIG    1        3.149   2.522  -1.074  0.00  0.00    -0.315 N 
ATOM      8  C   LIG    1        3.839   2.496   0.098  0.00  0.00    +0.195 A 
ATOM      9  N   LIG    1        3.299   2.011   1.195  0.00  0.00    -0.176 NA
ATOM     10  H   LIG    1        3.578   2.893  -1.898  0.00  0.00    +0.170 HD
ATOM     11  C   LIG    1        2.050   1.523   1.195  0.00  0.00    +0.297 A 
ATOM     12  O   LIG    1        1.565   1.077   2.225  0.00  0.00    -0.264 OA
ATOM     13  N   LIG    1        1.167   2.084  -2.321  0.00  0.00    -0.322 N 
ATOM     14  H   LIG    1        1.496   2.599  -3.074  0.00  0.00    +0.148 HD
ENDROOT
BRANCH   8  15
ATOM     15  N   LIG    1        5.120   2.985   0.137  0.00  0.00    -0.329 N 
ATOM     16  H   LIG    1        5.526   3.345  -0.667  0.00  0.00    +0.145 HD
ATOM     17  H   LIG    1        5.619   2.971   0.968  0.00  0.00    +0.145 HD
ENDBRANCH   8  15
BRANCH   1  18
ATOM     18  C   LIG    1       -0.939   1.863  -3.570  0.00  0.00    +0.164 C 
BRANCH  18  20
ATOM     19  C   LIG    1       -1.054   2.129  -6.051  0.00  0.00    +0.040 C 
ATOM     20  C   LIG    1       -0.163   1.711  -4.880  0.00  0.00    +0.142 C 
BRANCH  20  21
ATOM     21  O   LIG    1        0.232   0.347  -5.045  0.00  0.00    -0.389 OA
ATOM     22  H   LIG    1       -0.508  -0.275  -5.077  0.00  0.00    +0.210 HD
ENDBRANCH  20  21
ENDBRANCH  18  20
BRANCH  18  23
ATOM     23  O   LIG    1       -2.159   1.123  -3.650  0.00  0.00    -0.387 OA
ATOM     24  H   LIG    1       -2.035   0.176  -3.800  0.00  0.00    +0.210 HD
ENDBRANCH  18  23
ENDBRANCH   1  18
TORSDOF 5
