REMARK  Name = ZINC04959625
REMARK                            x       y       z     vdW  Elec       q    Type
REMARK                         _______ _______ _______ _____ _____    ______ ____
ROOT
ATOM      1  C   LIG    1       -0.017   1.379   0.010  0.00  0.00    +0.017 A 
ATOM      2  C   LIG    1        1.167   2.088   0.002  0.00  0.00    +0.024 A 
ATOM      3  C   LIG    1        2.385   1.421  -0.018  0.00  0.00    +0.032 A 
ATOM      4  C   LIG    1        2.397   0.021  -0.038  0.00  0.00    -0.018 A 
ATOM      5  C   LIG    1        3.713  -0.650  -0.098  0.00  0.00    +0.049 C 
ATOM      6  C   LIG    1        3.924  -2.016   0.445  0.00  0.00    -0.023 C 
ATOM      7  C   LIG    1        5.174  -2.111   0.882  0.00  0.00    -0.030 C 
ATOM      8  C   LIG    1        5.898  -0.777   0.690  0.00  0.00    +0.033 C 
ATOM      9  C   LIG    1        4.721   0.201   0.731  0.00  0.00    +0.035 C 
ATOM     10  CA  LIG    1        4.893   1.495  -0.044  0.00  0.00    +0.184 C 
ATOM     11  C   LIG    1        1.210  -0.679  -0.021  0.00  0.00    +0.021 A 
ATOM     12  N   LIG    1        3.573   2.162  -0.004  0.00  0.00    -0.331 N 
ATOM     13  H   LIG    1        3.530   3.131   0.032  0.00  0.00    +0.147 HD
ATOM     14  C   LIG    1        0.002  -0.004   0.002  0.00  0.00    +0.018 A 
ATOM     15 BR   LIG    1       -1.622  -0.973   0.023  0.00  0.00    -0.050 Br
ENDROOT
BRANCH  10  16
ATOM     16  C   LIG    1        5.937   2.361   0.614  0.00  0.00    +0.326 C 
ATOM     17  O   LIG    1        7.107   2.258   0.288  0.00  0.00    -0.249 OA
BRANCH  16  18
ATOM     18  OXT LIG    1        5.611   3.165   1.470  0.00  0.00    -0.479 OA
ATOM     19  HXT LIG    1        4.711   3.244   1.720  0.00  0.00    +0.295 HD
ENDBRANCH  16  18
ENDBRANCH  10  16
TORSDOF 2
