REMARK  Name = ZINC05299036
REMARK                            x       y       z     vdW  Elec       q    Type
REMARK                         _______ _______ _______ _____ _____    ______ ____
ROOT
ATOM      1  C   LIG    1        1.360   1.973  -0.000  0.00  0.00    -0.093 C 
ATOM      2  N   LIG    1       -0.018   1.465   0.010  0.00  0.00    +0.375 N 
ATOM      3  C   LIG    1       -0.705   1.938   1.219  0.00  0.00    -0.093 C 
ATOM      4  C   LIG    1       -0.728   1.951  -1.180  0.00  0.00    -0.093 C 
ENDROOT
BRANCH   2   5
ATOM      5  C   LIG    1        0.002  -0.004   0.002  0.00  0.00    -0.066 C 
BRANCH   5   6
ATOM      6  C   LIG    1        0.742  -0.511   1.242  0.00  0.00    +0.047 C 
BRANCH   6   7
ATOM      7  S   LIG    1        0.767  -2.325   1.232  0.00  0.00    -0.180 S 
ATOM      8  H   LIG    1        1.434  -2.647   2.354  0.00  0.00    +0.102 HD
ENDBRANCH   6   7
ENDBRANCH   5   6
ENDBRANCH   2   5
TORSDOF 3
