REMARK  Name = ZINC05771119
REMARK                            x       y       z     vdW  Elec       q    Type
REMARK                         _______ _______ _______ _____ _____    ______ ____
ROOT
ATOM      1  C   LIG    1        1.173   3.560   0.009  0.00  0.00    +0.284 C 
ATOM      2  N   LIG    1        0.004   4.225  -0.078  0.00  0.00    -0.175 N 
ATOM      3  C   LIG    1       -0.163   5.591  -0.180  0.00  0.00    +0.098 A 
ATOM      4  C   LIG    1        0.711   6.669  -0.225  0.00  0.00    +0.030 A 
ATOM      5  C   LIG    1        0.212   7.949  -0.332  0.00  0.00    +0.002 A 
ATOM      6  C   LIG    1       -1.158   8.166  -0.395  0.00  0.00    +0.002 A 
ATOM      7  C   LIG    1       -2.033   7.119  -0.353  0.00  0.00    +0.032 A 
ATOM      8  C   LIG    1       -1.550   5.809  -0.244  0.00  0.00    +0.113 A 
ATOM      9  N   LIG    1       -2.158   4.600  -0.181  0.00  0.00    -0.129 NA
ATOM     10  N   LIG    1       -1.281   3.663  -0.089  0.00  0.00    -0.057 NA
ATOM     11  O   LIG    1        2.217   4.176   0.097  0.00  0.00    -0.265 OA
ENDROOT
BRANCH   1  16
ATOM     12  C   LIG    1        0.003  -0.004   0.010  0.00  0.00    +0.001 A 
ATOM     13  C   LIG    1        1.208  -0.687  -0.023  0.00  0.00    +0.004 A 
ATOM     14  C   LIG    1        2.403   0.005  -0.045  0.00  0.00    +0.046 A 
ATOM     15  C   LIG    1        2.404   1.392  -0.035  0.00  0.00    +0.129 A 
ATOM     16  C   LIG    1        1.186   2.087  -0.002  0.00  0.00    +0.083 A 
ATOM     17  C   LIG    1       -0.016   1.373   0.021  0.00  0.00    +0.017 A 
BRANCH  15  18
ATOM     18  O   LIG    1        3.576   2.073  -0.057  0.00  0.00    -0.506 OA
ATOM     19  H   LIG    1        3.896   2.277  -0.947  0.00  0.00    +0.292 HD
ENDBRANCH  15  18
ENDBRANCH   1  16
TORSDOF 2
