REMARK  Name = ZINC05198170
REMARK                            x       y       z     vdW  Elec       q    Type
REMARK                         _______ _______ _______ _____ _____    ______ ____
ROOT
ATOM      1  C   LIG    1        1.783   9.564  -0.061  0.00  0.00    +0.034 A 
ATOM      2  C   LIG    1        0.473  10.031  -0.044  0.00  0.00    +0.024 A 
ATOM      3  C   LIG    1        0.221  11.383  -0.120  0.00  0.00    +0.015 A 
ATOM      4  C   LIG    1        1.283  12.285  -0.226  0.00  0.00    +0.037 A 
ATOM      5  C   LIG    1        2.597  11.812  -0.249  0.00  0.00    +0.015 A 
ATOM      6  C   LIG    1        2.842  10.459  -0.167  0.00  0.00    +0.024 A 
ENDROOT
BRANCH   4   7
ATOM      7  C   LIG    1        1.016  13.735  -0.314  0.00  0.00    +0.228 A 
ATOM      8  N   LIG    1        1.935  14.663  -0.409  0.00  0.00    -0.209 NA
ATOM      9  C   LIG    1        1.326  15.875  -0.471  0.00  0.00    +0.110 A 
ATOM     10  C   LIG    1        1.797  17.186  -0.579  0.00  0.00    +0.035 A 
ATOM     11  C   LIG    1        0.902  18.232  -0.612  0.00  0.00    -0.048 A 
ATOM     12  C   LIG    1        1.408  19.647  -0.728  0.00  0.00    +0.044 C 
ATOM     13  C   LIG    1       -0.463  17.992  -0.539  0.00  0.00    +0.010 A 
ATOM     14  C   LIG    1       -0.942  16.702  -0.432  0.00  0.00    -0.006 A 
ATOM     15  C   LIG    1       -2.426  16.453  -0.354  0.00  0.00    +0.047 C 
ATOM     16  C   LIG    1       -0.056  15.637  -0.397  0.00  0.00    +0.159 A 
ATOM     17  O   LIG    1       -0.207  14.297  -0.300  0.00  0.00    -0.435 OA
ENDBRANCH   4   7
BRANCH   1  19
ATOM     18  C   LIG    1        1.226   7.403   0.755  0.00  0.00    +0.255 C 
ATOM     19  N   LIG    1        2.036   8.194   0.022  0.00  0.00    -0.283 N 
ATOM     20  H   LIG    1        2.793   7.810  -0.447  0.00  0.00    +0.155 HD
ATOM     21  O   LIG    1        0.337   7.893   1.418  0.00  0.00    -0.272 OA
BRANCH  18  22
ATOM     22  C   LIG    1        1.427   5.909   0.750  0.00  0.00    +0.324 C 
BRANCH  22  23
ATOM     23  O   LIG    1        0.453   5.295   1.597  0.00  0.00    -0.483 OA
BRANCH  23  29
ATOM     24  C   LIG    1       -1.381   1.183   3.480  0.00  0.00    +0.044 C 
ATOM     25  C   LIG    1       -0.382   1.903   2.612  0.00  0.00    -0.047 A 
ATOM     26  C   LIG    1        0.579   1.185   1.923  0.00  0.00    +0.003 A 
ATOM     27  C   LIG    1        1.493   1.842   1.121  0.00  0.00    +0.004 A 
ATOM     28  C   LIG    1        1.453   3.218   1.010  0.00  0.00    +0.045 A 
ATOM     29  C   LIG    1        0.494   3.941   1.704  0.00  0.00    +0.121 A 
ATOM     30  C   LIG    1       -0.422   3.280   2.509  0.00  0.00    +0.049 A 
ENDBRANCH  23  29
ENDBRANCH  22  23
ENDBRANCH  18  22
ENDBRANCH   1  19
TORSDOF 5
