REMARK  Name = ZINC04992727
REMARK                            x       y       z     vdW  Elec       q    Type
REMARK                         _______ _______ _______ _____ _____    ______ ____
ROOT
ATOM      1  C   LIG    1        1.245  -2.166  -0.022  0.00  0.00    +0.095 A 
ATOM      2  C   LIG    1        0.125  -3.016  -0.021  0.00  0.00    +0.064 A 
ATOM      3  C   LIG    1        0.642  -4.300  -0.032  0.00  0.00    +0.143 A 
ATOM      4  N   LIG    1        2.003  -4.169  -0.038  0.00  0.00    -0.270 N 
ATOM      5  H   LIG    1        2.635  -4.905  -0.046  0.00  0.00    +0.189 HD
ATOM      6  N   LIG    1        2.321  -2.925  -0.037  0.00  0.00    -0.173 NA
ENDROOT
BRANCH   1  12
ATOM      7  C   LIG    1       -0.017   1.376   0.010  0.00  0.00    +0.001 A 
ATOM      8  C   LIG    1        1.170   2.087   0.002  0.00  0.00    +0.001 A 
ATOM      9  C   LIG    1        2.381   1.420  -0.013  0.00  0.00    +0.020 A 
ATOM     10  C   LIG    1        2.412   0.039  -0.021  0.00  0.00    +0.050 A 
ATOM     11 CL   LIG    1        3.933  -0.797  -0.040  0.00  0.00    -0.083 Cl
ATOM     12  C   LIG    1        1.219  -0.682  -0.013  0.00  0.00    +0.020 A 
ATOM     13  C   LIG    1        0.002  -0.004   0.002  0.00  0.00    +0.011 A 
ENDBRANCH   1  12
BRANCH   3  14
ATOM     14  C   LIG    1       -0.121  -5.554  -0.036  0.00  0.00    +0.355 C 
ATOM     15  O   LIG    1        0.467  -6.628  -0.045  0.00  0.00    -0.243 OA
BRANCH  14  16
ATOM     16  O   LIG    1       -1.344  -5.527  -0.029  0.00  0.00    -0.476 OA
ATOM     17  H   LIG    1       -1.794  -4.705  -0.021  0.00  0.00    +0.295 HD
ENDBRANCH  14  16
ENDBRANCH   3  14
TORSDOF 3
