REMARK  Name = ZINC05218485
REMARK                            x       y       z     vdW  Elec       q    Type
REMARK                         _______ _______ _______ _____ _____    ______ ____
ROOT
ATOM      1  C   LIG    1        3.370  -2.263   0.383  0.00  0.00    +0.044 C 
ATOM      2  C   LIG    1        2.261  -1.242   0.386  0.00  0.00    -0.049 A 
ATOM      3  C   LIG    1        2.557   0.094   0.588  0.00  0.00    +0.005 A 
ATOM      4  C   LIG    1        1.545   1.038   0.611  0.00  0.00    +0.025 A 
ATOM      5  C   LIG    1        0.234   0.633   0.430  0.00  0.00    +0.052 A 
ATOM      6  C   LIG    1       -0.059  -0.702   0.193  0.00  0.00    +0.050 A 
ATOM      7  N   LIG    1       -1.382  -1.045  -0.090  0.00  0.00    -0.331 N 
ATOM      8  H   LIG    1       -1.866  -1.622   0.521  0.00  0.00    +0.147 HD
ATOM      9  C   LIG    1       -2.043  -0.552  -1.279  0.00  0.00    +0.140 C 
ATOM     10  C   LIG    1       -2.240   0.944  -1.317  0.00  0.00    +0.037 C 
ATOM     11  C   LIG    1       -1.676   1.835  -0.482  0.00  0.00    +0.017 C 
ATOM     12  C   LIG    1       -1.970   3.319  -0.623  0.00  0.00    +0.058 C 
ATOM     13  C   LIG    1       -2.217   3.665  -2.091  0.00  0.00    -0.023 C 
ATOM     14  C   LIG    1       -2.535   5.156  -2.226  0.00  0.00    +0.011 C 
ATOM     15  C   LIG    1       -0.979   3.321  -2.921  0.00  0.00    +0.011 C 
ATOM     16  C   LIG    1       -3.413   2.833  -2.571  0.00  0.00    +0.086 C 
ATOM     17  C   LIG    1       -3.105   1.383  -2.347  0.00  0.00    +0.163 C 
ATOM     18  O   LIG    1       -3.616   0.556  -3.076  0.00  0.00    -0.292 OA
ATOM     19  N   LIG    1       -0.836   1.513   0.532  0.00  0.00    -0.316 N 
ATOM     20  H   LIG    1       -0.994   1.928   1.395  0.00  0.00    +0.152 HD
ATOM     21  C   LIG    1        0.953  -1.647   0.187  0.00  0.00    +0.028 A 
ENDROOT
BRANCH   9  22
ATOM     22  C   LIG    1       -1.224  -0.951  -2.480  0.00  0.00    +0.031 A 
ATOM     23  C   LIG    1        0.033  -0.404  -2.675  0.00  0.00    +0.130 A 
ATOM     24  F   LIG    1        0.526   0.489  -1.789  0.00  0.00    -0.205 F 
ATOM     25  C   LIG    1        0.784  -0.772  -3.778  0.00  0.00    +0.039 A 
ATOM     26  C   LIG    1        0.279  -1.685  -4.684  0.00  0.00    +0.004 A 
ATOM     27  C   LIG    1       -0.976  -2.231  -4.490  0.00  0.00    +0.020 A 
ATOM     28  C   LIG    1       -1.726  -1.869  -3.385  0.00  0.00    +0.049 A 
ATOM     29 CL   LIG    1       -3.299  -2.561  -3.138  0.00  0.00    -0.083 Cl
ENDBRANCH   9  22
TORSDOF 1
