REMARK  Name = ZINC05425464
REMARK                            x       y       z     vdW  Elec       q    Type
REMARK                         _______ _______ _______ _____ _____    ______ ____
ROOT
ATOM      1  C   LIG    1        5.315  -1.603   1.466  0.00  0.00    +0.216 C 
ATOM      2  N   LIG    1        6.018  -2.003   0.414  0.00  0.00    -0.262 NA
ATOM      3  H   LIG    1        5.684  -1.822  -0.478  0.00  0.00    +0.127 HD
ATOM      4  C   LIG    1        7.171  -2.642   0.562  0.00  0.00    +0.195 C 
ATOM      5  N   LIG    1        7.675  -2.923   1.753  0.00  0.00    -0.269 NA
ATOM      6  H   LIG    1        7.781  -3.936   1.794  0.00  0.00    +0.126 HD
ATOM      7  C   LIG    1        7.033  -2.563   2.860  0.00  0.00    +0.170 C 
ATOM      8  N   LIG    1        7.273  -2.696   4.204  0.00  0.00    -0.318 N 
ATOM      9  C   LIG    1        6.231  -2.113   4.865  0.00  0.00    +0.177 C 
ATOM     10  N   LIG    1        5.375  -1.634   4.011  0.00  0.00    -0.266 NA
ATOM     11  H   LIG    1        8.042  -3.125   4.610  0.00  0.00    +0.148 HD
ATOM     12  C   LIG    1        5.810  -1.879   2.750  0.00  0.00    +0.185 C 
ENDROOT
BRANCH   4  13
ATOM     13  N   LIG    1        7.869  -3.033  -0.568  0.00  0.00    -0.303 NA
ATOM     14  H   LIG    1        7.515  -2.836  -1.450  0.00  0.00    +0.121 HD
ATOM     15  H   LIG    1        8.712  -3.505  -0.479  0.00  0.00    +0.121 HD
ENDBRANCH   4  13
BRANCH   1  16
ATOM     16  O   LIG    1        4.141  -0.946   1.304  0.00  0.00    -0.355 OA
BRANCH  16  17
ATOM     17  C   LIG    1        3.711  -0.707  -0.038  0.00  0.00    +0.197 C 
BRANCH  17  21
ATOM     18  C   LIG    1       -0.017   1.378   0.010  0.00  0.00    +0.000 A 
ATOM     19  C   LIG    1        1.171   2.086   0.002  0.00  0.00    +0.000 A 
ATOM     20  C   LIG    1        2.377   1.411  -0.013  0.00  0.00    +0.006 A 
ATOM     21  C   LIG    1        2.396   0.029  -0.020  0.00  0.00    -0.022 A 
ATOM     22  C   LIG    1        1.208  -0.679  -0.012  0.00  0.00    +0.006 A 
ATOM     23  C   LIG    1        0.002  -0.004   0.002  0.00  0.00    +0.000 A 
ENDBRANCH  17  21
ENDBRANCH  16  17
ENDBRANCH   1  16
TORSDOF 4
