REMARK  Name = ZINC05819733
REMARK                            x       y       z     vdW  Elec       q    Type
REMARK                         _______ _______ _______ _____ _____    ______ ____
ROOT
ATOM      1  C   LIG    1       -1.413  -2.063   0.004  0.00  0.00    +0.070 C 
ENDROOT
BRANCH   1   2
ATOM      2  C   LIG    1       -2.847  -2.504   0.144  0.00  0.00    +0.087 A 
ATOM      3  C   LIG    1       -3.653  -1.980   1.177  0.00  0.00    +0.200 A 
ATOM      4  C   LIG    1       -5.049  -2.455   1.256  0.00  0.00    +0.064 A 
ATOM      5  C   LIG    1       -5.918  -1.994   2.242  0.00  0.00    +0.015 A 
ATOM      6  C   LIG    1       -7.214  -2.462   2.280  0.00  0.00    +0.001 A 
ATOM      7  C   LIG    1       -7.651  -3.387   1.344  0.00  0.00    +0.004 A 
ATOM      8  C   LIG    1       -6.800  -3.851   0.363  0.00  0.00    +0.047 A 
ATOM      9  C   LIG    1       -5.490  -3.391   0.308  0.00  0.00    +0.143 A 
ATOM     10  O   LIG    1       -4.640  -3.831  -0.644  0.00  0.00    -0.425 OA
ATOM     11  O   LIG    1       -3.214  -1.167   1.974  0.00  0.00    -0.287 OA
ATOM     12  C   LIG    1       -3.374  -3.403  -0.727  0.00  0.00    +0.292 A 
BRANCH  12  13
ATOM     13  O   LIG    1       -2.589  -3.888  -1.712  0.00  0.00    -0.480 OA
ATOM     14  H   LIG    1       -3.033  -4.522  -2.292  0.00  0.00    +0.295 HD
ENDBRANCH  12  13
ENDBRANCH   1   2
BRANCH   1  15
ATOM     15  C   LIG    1       -0.640  -2.471   1.233  0.00  0.00    +0.087 A 
ATOM     16  C   LIG    1       -0.073  -3.760   1.320  0.00  0.00    +0.200 A 
ATOM     17  C   LIG    1        0.671  -4.092   2.552  0.00  0.00    +0.064 A 
ATOM     18  C   LIG    1        1.265  -5.340   2.726  0.00  0.00    +0.015 A 
ATOM     19  C   LIG    1        1.950  -5.610   3.891  0.00  0.00    +0.001 A 
ATOM     20  C   LIG    1        2.049  -4.646   4.884  0.00  0.00    +0.004 A 
ATOM     21  C   LIG    1        1.466  -3.408   4.722  0.00  0.00    +0.047 A 
ATOM     22  C   LIG    1        0.770  -3.116   3.555  0.00  0.00    +0.143 A 
ATOM     23  O   LIG    1        0.192  -1.910   3.376  0.00  0.00    -0.425 OA
ATOM     24  O   LIG    1       -0.192  -4.568   0.413  0.00  0.00    -0.287 OA
ATOM     25  C   LIG    1       -0.480  -1.597   2.261  0.00  0.00    +0.292 A 
BRANCH  25  26
ATOM     26  O   LIG    1       -1.025  -0.367   2.156  0.00  0.00    -0.480 OA
ATOM     27  H   LIG    1       -0.870   0.199   2.925  0.00  0.00    +0.295 HD
ENDBRANCH  25  26
ENDBRANCH   1  15
BRANCH   1  28
ATOM     28  C   LIG    1       -1.359  -0.542  -0.151  0.00  0.00    +0.013 C 
BRANCH  28  30
ATOM     29  C   LIG    1        0.155   1.436  -0.344  0.00  0.00    +0.004 C 
ATOM     30  C   LIG    1        0.101  -0.085  -0.189  0.00  0.00    -0.002 C 
ENDBRANCH  28  30
ENDBRANCH   1  28
TORSDOF 6
