REMARK  Name = ZINC05134411
REMARK                            x       y       z     vdW  Elec       q    Type
REMARK                         _______ _______ _______ _____ _____    ______ ____
ROOT
ATOM      1  C   LIG    1       -2.701   1.564  -2.629  0.00  0.00    +0.020 C 
ATOM      2  C   LIG    1       -1.840   2.339  -3.634  0.00  0.00    +0.015 C 
ATOM      3  C   LIG    1       -1.029   3.387  -2.868  0.00  0.00    +0.085 C 
ATOM      4  C   LIG    1       -0.356   2.749  -1.686  0.00  0.00    +0.220 C 
ATOM      5  N   LIG    1       -0.721   1.571  -1.179  0.00  0.00    -0.291 N 
ATOM      6  O   LIG    1        0.567   3.337  -1.165  0.00  0.00    -0.275 OA
ATOM      7  C   LIG    1       -1.777   0.733  -1.734  0.00  0.00    +0.108 C 
ENDROOT
BRANCH   3   8
ATOM      8  C   LIG    1        0.032   3.982  -3.796  0.00  0.00    +0.078 C 
BRANCH   8   9
ATOM      9  S   LIG    1        0.890   5.335  -2.944  0.00  0.00    -0.178 S 
ATOM     10  H   LIG    1        1.785   5.772  -3.847  0.00  0.00    +0.102 HD
ENDBRANCH   8   9
ENDBRANCH   3   8
BRANCH   5  11
ATOM     11  C   LIG    1       -0.013   1.086   0.008  0.00  0.00    +0.228 C 
BRANCH  11  12
ATOM     12  C   LIG    1       -0.718   1.572   1.248  0.00  0.00    +0.322 C 
ATOM     13  O   LIG    1       -1.711   2.254   1.150  0.00  0.00    -0.249 OA
BRANCH  12  14
ATOM     14  O   LIG    1       -0.243   1.247   2.461  0.00  0.00    -0.480 OA
ATOM     15  H   LIG    1        0.526   0.719   2.537  0.00  0.00    +0.295 HD
ENDBRANCH  12  14
ENDBRANCH  11  12
ENDBRANCH   5  11
TORSDOF 5
