REMARK  Name = ZINC05190626
REMARK                            x       y       z     vdW  Elec       q    Type
REMARK                         _______ _______ _______ _____ _____    ______ ____
ROOT
ATOM      1  C   LIG    1       -0.316   3.236   2.533  0.00  0.00    +0.011 C 
ATOM      2  C   LIG    1       -1.555   3.684   1.756  0.00  0.00    -0.023 C 
ATOM      3  C   LIG    1       -1.657   5.211   1.775  0.00  0.00    +0.011 C 
ATOM      4  C   LIG    1       -1.469   3.189   0.313  0.00  0.00    +0.058 C 
ATOM      5  C   LIG    1       -1.390   1.673   0.287  0.00  0.00    +0.017 C 
ATOM      6  C   LIG    1       -2.006   0.940   1.233  0.00  0.00    +0.037 C 
ATOM      7  C   LIG    1       -2.722   1.579   2.272  0.00  0.00    +0.163 C 
ATOM      8  O   LIG    1       -3.285   0.894   3.104  0.00  0.00    -0.292 OA
ATOM      9  C   LIG    1       -2.016  -0.566   1.318  0.00  0.00    +0.140 C 
ATOM     10  N   LIG    1       -1.519  -1.242   0.139  0.00  0.00    -0.331 N 
ATOM     11  H   LIG    1       -2.121  -1.793  -0.386  0.00  0.00    +0.147 HD
ATOM     12  C   LIG    1       -0.187  -1.114  -0.255  0.00  0.00    +0.051 A 
ATOM     13  C   LIG    1        0.686  -2.189  -0.226  0.00  0.00    +0.044 A 
ATOM     14  C   LIG    1        2.020  -1.990  -0.541  0.00  0.00    +0.043 A 
ATOM     15 CL   LIG    1        3.124  -3.329  -0.509  0.00  0.00    -0.083 Cl
ATOM     16  C   LIG    1        2.477  -0.729  -0.883  0.00  0.00    +0.022 A 
ATOM     17  C   LIG    1        1.603   0.343  -0.928  0.00  0.00    +0.026 A 
ATOM     18  C   LIG    1        0.266   0.142  -0.631  0.00  0.00    +0.052 A 
ATOM     19  N   LIG    1       -0.680   1.154  -0.745  0.00  0.00    -0.316 N 
ATOM     20  H   LIG    1       -0.844   1.517  -1.629  0.00  0.00    +0.152 HD
ATOM     21  C   LIG    1       -2.813   3.071   2.384  0.00  0.00    +0.086 C 
ENDROOT
BRANCH   9  22
ATOM     22  C   LIG    1       -1.174  -0.983   2.497  0.00  0.00    +0.031 A 
ATOM     23  C   LIG    1        0.158  -0.611   2.563  0.00  0.00    +0.130 A 
ATOM     24  F   LIG    1        0.704   0.125   1.570  0.00  0.00    -0.205 F 
ATOM     25  C   LIG    1        0.928  -0.989   3.649  0.00  0.00    +0.039 A 
ATOM     26  C   LIG    1        0.371  -1.748   4.661  0.00  0.00    +0.004 A 
ATOM     27  C   LIG    1       -0.957  -2.124   4.593  0.00  0.00    +0.020 A 
ATOM     28  C   LIG    1       -1.730  -1.742   3.510  0.00  0.00    +0.049 A 
ATOM     29 CL   LIG    1       -3.399  -2.214   3.426  0.00  0.00    -0.083 Cl
ENDBRANCH   9  22
TORSDOF 1
