REMARK  Name = ZINC05138967
REMARK                            x       y       z     vdW  Elec       q    Type
REMARK                         _______ _______ _______ _____ _____    ______ ____
ROOT
ATOM      1  C   LIG    1       -1.172  -0.136  -0.536  0.00  0.00    +0.169 C 
ATOM      2  N   LIG    1        0.265   0.173  -0.667  0.00  0.00    -0.271 N 
ATOM      3  C   LIG    1        0.709   1.190  -1.431  0.00  0.00    +0.218 C 
ATOM      4  O   LIG    1        1.890   1.465  -1.448  0.00  0.00    -0.276 OA
ATOM      5  C   LIG    1        1.176  -0.685   0.085  0.00  0.00    +0.196 C 
ATOM      6  C   LIG    1        0.506  -1.189   1.397  0.00  0.00    +0.105 C 
ATOM      7  S   LIG    1       -1.200  -1.464   0.740  0.00  0.00    -0.131 S 
ENDROOT
BRANCH   1  12
ATOM      8  C   LIG    1       -1.383  -1.520  -4.042  0.00  0.00    +0.001 A 
ATOM      9  C   LIG    1       -2.751  -1.576  -4.239  0.00  0.00    +0.004 A 
ATOM     10  C   LIG    1       -3.611  -1.167  -3.239  0.00  0.00    +0.046 A 
ATOM     11  C   LIG    1       -3.101  -0.703  -2.034  0.00  0.00    +0.123 A 
ATOM     12  C   LIG    1       -1.729  -0.643  -1.841  0.00  0.00    +0.024 A 
ATOM     13  C   LIG    1       -0.873  -1.054  -2.845  0.00  0.00    +0.010 A 
BRANCH  11  14
ATOM     14  O   LIG    1       -3.945  -0.305  -1.047  0.00  0.00    -0.506 OA
ATOM     15  H   LIG    1       -4.180   0.633  -1.084  0.00  0.00    +0.292 HD
ENDBRANCH  11  14
ENDBRANCH   1  12
BRANCH   5  16
ATOM     16  C   LIG    1        2.418   0.095   0.432  0.00  0.00    +0.326 C 
ATOM     17  O   LIG    1        2.325   1.225   0.848  0.00  0.00    -0.249 OA
BRANCH  16  18
ATOM     18  O   LIG    1        3.628  -0.466   0.279  0.00  0.00    -0.479 OA
ATOM     19  H   LIG    1        3.700  -1.343  -0.044  0.00  0.00    +0.295 HD
ENDBRANCH  16  18
ENDBRANCH   5  16
BRANCH   3  20
ATOM     20  C   LIG    1       -0.263   1.991  -2.260  0.00  0.00    +0.106 C 
BRANCH  20  21
ATOM     21  C   LIG    1        0.472   3.158  -2.922  0.00  0.00    +0.075 C 
BRANCH  21  22
ATOM     22  S   LIG    1       -0.697   4.122  -3.919  0.00  0.00    -0.178 S 
ATOM     23  H   LIG    1        0.056   5.105  -4.443  0.00  0.00    +0.102 HD
ENDBRANCH  21  22
ENDBRANCH  20  21
ENDBRANCH   3  20
TORSDOF 7
