REMARK  Name = ZINC05393202
REMARK                            x       y       z     vdW  Elec       q    Type
REMARK                         _______ _______ _______ _____ _____    ______ ____
ROOT
ATOM      1  C   LIG    1        6.037   3.555   0.083  0.00  0.00    +0.000 A 
ATOM      2  C   LIG    1        6.073   2.163   0.176  0.00  0.00    +0.010 A 
ATOM      3  C   LIG    1        4.901   1.442   0.179  0.00  0.00    +0.008 A 
ATOM      4  C   LIG    1        3.672   2.106   0.089  0.00  0.00    -0.025 A 
ATOM      5  C   LIG    1        3.638   3.502  -0.009  0.00  0.00    +0.008 A 
ATOM      6  C   LIG    1        4.812   4.219  -0.007  0.00  0.00    +0.010 A 
ENDROOT
BRANCH   1  10
ATOM      7  C   LIG    1        9.640   5.725   0.076  0.00  0.00    -0.029 A 
ATOM      8  C   LIG    1        8.447   6.429  -0.015  0.00  0.00    +0.007 A 
ATOM      9  C   LIG    1        7.259   5.720  -0.019  0.00  0.00    +0.028 A 
ATOM     10  C   LIG    1        7.301   4.330   0.080  0.00  0.00    +0.071 A 
ATOM     11  N   LIG    1        8.462   3.694   0.166  0.00  0.00    -0.255 NA
ATOM     12  C   LIG    1        9.607   4.345   0.166  0.00  0.00    +0.115 A 
BRANCH   7  13
ATOM     13  C   LIG    1       10.957   6.457   0.079  0.00  0.00    +0.036 C 
BRANCH  13  14
ATOM     14  C   LIG    1       11.458   6.609  -1.359  0.00  0.00    +0.005 C 
BRANCH  14  15
ATOM     15  C   LIG    1       12.796   7.352  -1.356  0.00  0.00    +0.000 C 
BRANCH  15  17
ATOM     16  C   LIG    1       14.634   8.248  -2.791  0.00  0.00    +0.004 C 
ATOM     17  C   LIG    1       13.297   7.505  -2.794  0.00  0.00    -0.003 C 
ENDBRANCH  15  17
ENDBRANCH  14  15
ENDBRANCH  13  14
ENDBRANCH   7  13
ENDBRANCH   1  10
BRANCH   4  18
ATOM     18  C   LIG    1        2.418   1.337   0.092  0.00  0.00    +0.013 C 
ATOM     19  C   LIG    1        1.234   1.978   0.006  0.00  0.00    +0.068 C 
BRANCH  19  20
ATOM     20  C   LIG    1       -0.014   1.213   0.009  0.00  0.00    +0.239 C 
ATOM     21  N   LIG    1       -1.199   1.856   0.018  0.00  0.00    -0.298 N 
ATOM     22  C   LIG    1       -1.256   3.321  -0.078  0.00  0.00    +0.108 C 
ATOM     23  C   LIG    1       -2.189   3.698  -1.238  0.00  0.00    +0.019 C 
ATOM     24  C   LIG    1       -3.549   3.029  -1.030  0.00  0.00    +0.003 C 
ATOM     25  C   LIG    1       -3.376   1.508  -1.027  0.00  0.00    +0.019 C 
ATOM     26  C   LIG    1       -2.457   1.105   0.130  0.00  0.00    +0.108 C 
ATOM     27  O   LIG    1        0.017  -0.004  -0.002  0.00  0.00    -0.271 OA
ENDBRANCH  19  20
ENDBRANCH   4  18
TORSDOF 7
