REMARK  Name = ZINC05599926
REMARK                            x       y       z     vdW  Elec       q    Type
REMARK                         _______ _______ _______ _____ _____    ______ ____
ROOT
ATOM      1  C   LIG    1       -2.887   1.593  -2.399  0.00  0.00    -0.096 C 
ATOM      2  N   LIG    1       -2.175   1.133  -1.194  0.00  0.00    +0.380 N 
ATOM      3  H   LIG    1       -2.003   0.124  -1.275  0.00  0.00    -0.082 HD
ATOM      4  C   LIG    1       -3.010   1.378   0.013  0.00  0.00    -0.057 C 
ATOM      5  C   LIG    1       -3.393   2.844   0.132  0.00  0.00    +0.021 C 
ATOM      6  C   LIG    1       -2.382   3.663   0.865  0.00  0.00    -0.041 A 
ATOM      7  C   LIG    1       -2.428   5.036   1.030  0.00  0.00    +0.007 A 
ATOM      8  C   LIG    1       -1.446   5.682   1.764  0.00  0.00    +0.050 A 
ATOM      9  C   LIG    1       -0.386   5.021   2.380  0.00  0.00    +0.162 A 
ATOM     10  C   LIG    1       -0.325   3.633   2.220  0.00  0.00    +0.167 A 
ATOM     11  O   LIG    1        0.520   2.691   2.700  0.00  0.00    -0.481 OA
ATOM     12  C   LIG    1       -0.205   1.405   2.680  0.00  0.00    +0.217 C 
ATOM     13  C   LIG    1       -1.141   1.509   3.890  0.00  0.00    +0.182 C 
ATOM     14  C   LIG    1       -2.526   1.031   3.649  0.00  0.00    +0.004 C 
ATOM     15  C   LIG    1       -3.058   0.751   2.502  0.00  0.00    -0.026 C 
ATOM     16  C   LIG    1       -0.966   1.565   1.369  0.00  0.00    +0.042 C 
ATOM     17  C   LIG    1       -0.092   1.322   0.136  0.00  0.00    -0.003 C 
ATOM     18  C   LIG    1       -1.304   3.034   1.438  0.00  0.00    +0.011 A 
ATOM     19  C   LIG    1       -2.263   0.805   1.210  0.00  0.00    +0.012 C 
ATOM     20  C   LIG    1       -0.871   1.832  -1.086  0.00  0.00    -0.078 C 
ENDROOT
BRANCH   9  21
ATOM     21  O   LIG    1        0.547   5.694   3.106  0.00  0.00    -0.491 OA
ATOM     22  C   LIG    1        0.392   7.111   3.207  0.00  0.00    +0.277 C 
ENDBRANCH   9  21
BRANCH  13  23
ATOM     23  O   LIG    1       -1.200   2.877   4.299  0.00  0.00    -0.372 OA
ATOM     24  C   LIG    1       -1.430   3.057   5.698  0.00  0.00    +0.195 C 
ENDBRANCH  13  23
TORSDOF 2
