REMARK  Name = ZINC05741146
REMARK                            x       y       z     vdW  Elec       q    Type
REMARK                         _______ _______ _______ _____ _____    ______ ____
ROOT
ATOM      1  C   LIG    1        4.766  -2.659  -1.232  0.00  0.00    +0.135 C 
ATOM      2  S   LIG    1        6.326  -2.327  -0.608  0.00  0.00    -0.019 S 
ENDROOT
BRANCH   1   3
ATOM      3  N   LIG    1        3.676  -2.145  -0.629  0.00  0.00    -0.310 N 
ATOM      4  H   LIG    1        2.792  -2.334  -0.983  0.00  0.00    +0.149 HD
BRANCH   3   5
ATOM      5  CA  LIG    1        3.825  -1.302   0.559  0.00  0.00    +0.212 C 
BRANCH   5   9
ATOM      6  C   LIG    1        0.448   1.292   0.895  0.00  0.00    +0.000 A 
ATOM      7  C   LIG    1        1.714   1.766   1.183  0.00  0.00    +0.000 A 
ATOM      8  C   LIG    1        2.807   0.926   1.075  0.00  0.00    +0.006 A 
ATOM      9  C   LIG    1        2.633  -0.387   0.678  0.00  0.00    -0.017 A 
ATOM     10  C   LIG    1        1.367  -0.860   0.391  0.00  0.00    +0.006 A 
ATOM     11  C   LIG    1        0.274  -0.020   0.498  0.00  0.00    +0.000 A 
ENDBRANCH   5   9
BRANCH   5  12
ATOM     12  C   LIG    1        3.914  -2.173   1.786  0.00  0.00    +0.330 C 
ATOM     13  O   LIG    1        3.677  -3.366   1.704  0.00  0.00    -0.249 OA
BRANCH  12  14
ATOM     14  OXT LIG    1        4.222  -1.685   2.859  0.00  0.00    -0.479 OA
ATOM     15  HXT LIG    1        4.404  -0.768   2.922  0.00  0.00    +0.295 HD
ENDBRANCH  12  14
ENDBRANCH   5  12
ENDBRANCH   3   5
ENDBRANCH   1   3
BRANCH   1  16
ATOM     16  N   LIG    1        4.629  -3.435  -2.325  0.00  0.00    -0.297 N 
ATOM     17  H   LIG    1        3.744  -3.674  -2.643  0.00  0.00    +0.154 HD
BRANCH  16  18
ATOM     18  C   LIG    1        5.763  -3.896  -3.002  0.00  0.00    +0.033 A 
ATOM     19  C   LIG    1        6.832  -4.426  -2.291  0.00  0.00    +0.025 A 
ATOM     20  C   LIG    1        7.949  -4.881  -2.962  0.00  0.00    +0.030 A 
ATOM     21  C   LIG    1        8.006  -4.807  -4.342  0.00  0.00    +0.105 A 
ATOM     22  C   LIG    1        6.944  -4.280  -5.054  0.00  0.00    +0.030 A 
ATOM     23  C   LIG    1        5.821  -3.829  -4.388  0.00  0.00    +0.025 A 
BRANCH  21  24
ATOM     24  S   LIG    1        9.435  -5.387  -5.195  0.00  0.00    +0.056 S 
ATOM     25  O   LIG    1       10.511  -5.331  -4.270  0.00  0.00    -0.153 OA
ATOM     26  O   LIG    1        9.466  -4.707  -6.443  0.00  0.00    -0.153 OA
BRANCH  24  27
ATOM     27  N   LIG    1        9.186  -6.989  -5.535  0.00  0.00    -0.204 NA
ATOM     28  H   LIG    1        8.638  -7.530  -4.946  0.00  0.00    +0.144 HD
ATOM     29  H   LIG    1        9.588  -7.385  -6.324  0.00  0.00    +0.144 HD
ENDBRANCH  24  27
ENDBRANCH  21  24
ENDBRANCH  16  18
ENDBRANCH   1  16
TORSDOF 9
