REMARK  Name = ZINC05112947
REMARK                            x       y       z     vdW  Elec       q    Type
REMARK                         _______ _______ _______ _____ _____    ______ ____
ROOT
ATOM      1  C   LIG    1        1.863   3.328   0.002  0.00  0.00    -0.065 C 
ENDROOT
BRANCH   1   2
ATOM      2  N   LIG    1        1.178   3.870  -1.185  0.00  0.00    +0.381 N 
ATOM      3  H   LIG    1        0.196   3.570  -1.175  0.00  0.00    -0.090 HD
ATOM      4  H   LIG    1        1.623   3.524  -2.033  0.00  0.00    -0.090 HD
ATOM      5  H   LIG    1        1.214   4.888  -1.174  0.00  0.00    -0.090 HD
ENDBRANCH   1   2
BRANCH   1   6
ATOM      6  C   LIG    1        3.342   3.719  -0.010  0.00  0.00    -0.004 C 
BRANCH   6   7
ATOM      7  C   LIG    1        3.470   5.238   0.123  0.00  0.00    +0.119 C 
BRANCH   7   8
ATOM      8  C   LIG    1        4.927   5.622   0.111  0.00  0.00    +0.305 C 
ATOM      9  O   LIG    1        5.776   4.769   0.007  0.00  0.00    -0.251 OA
BRANCH   8  10
ATOM     10  O   LIG    1        5.282   6.912   0.216  0.00  0.00    -0.481 OA
ATOM     11  H   LIG    1        4.623   7.574   0.296  0.00  0.00    +0.295 HD
ENDBRANCH   8  10
ENDBRANCH   7   8
ENDBRANCH   6   7
ENDBRANCH   1   6
BRANCH   1  12
ATOM     12  C   LIG    1        1.738   1.804  -0.005  0.00  0.00    +0.049 C 
BRANCH  12  13
ATOM     13  S   LIG    1       -0.016   1.341   0.009  0.00  0.00    -0.180 S 
ATOM     14  H   LIG    1        0.002  -0.004   0.002  0.00  0.00    +0.102 HD
ENDBRANCH  12  13
ENDBRANCH   1  12
TORSDOF 7
