REMARK  Name = ZINC05782223
REMARK                            x       y       z     vdW  Elec       q    Type
REMARK                         _______ _______ _______ _____ _____    ______ ____
ROOT
ATOM      1  C   LIG    1       -1.174  -4.149   2.476  0.00  0.00    +0.392 C 
ATOM      2  N   LIG    1       -1.687  -4.849   1.495  0.00  0.00    -0.129 NA
ATOM      3  H   LIG    1       -1.712  -5.817   1.552  0.00  0.00    +0.306 HD
ENDROOT
BRANCH   1   4
ATOM      4  N   LIG    1       -0.537  -4.772   3.488  0.00  0.00    -0.189 N 
ATOM      5  H   LIG    1       -0.259  -4.269   4.270  0.00  0.00    +0.271 HD
ATOM      6  C   LIG    1       -0.291  -6.067   3.416  0.00  0.00    +0.350 C 
BRANCH   6   7
ATOM      7  N   LIG    1        0.048  -6.762   4.543  0.00  0.00    -0.291 N 
ATOM      8  H   LIG    1        0.229  -7.713   4.489  0.00  0.00    +0.255 HD
ATOM      9  H   LIG    1        0.109  -6.304   5.395  0.00  0.00    +0.255 HD
ENDBRANCH   6   7
BRANCH   6  10
ATOM     10  N   LIG    1       -0.377  -6.712   2.214  0.00  0.00    -0.291 N 
ATOM     11  H   LIG    1       -0.585  -7.659   2.186  0.00  0.00    +0.255 HD
ATOM     12  H   LIG    1       -0.230  -6.223   1.389  0.00  0.00    +0.255 HD
ENDBRANCH   6  10
ENDBRANCH   1   4
BRANCH   1  13
ATOM     13  N   LIG    1       -1.285  -2.772   2.474  0.00  0.00    -0.243 N 
ATOM     14  H   LIG    1       -0.841  -2.248   3.159  0.00  0.00    +0.265 HD
BRANCH  13  20
ATOM     15  C   LIG    1       -1.949   1.074  -0.515  0.00  0.00    +0.044 C 
ATOM     16  C   LIG    1       -2.383  -0.267   0.017  0.00  0.00    -0.047 A 
ATOM     17  C   LIG    1       -3.528  -0.868  -0.475  0.00  0.00    +0.003 A 
ATOM     18  C   LIG    1       -3.929  -2.099   0.010  0.00  0.00    +0.004 A 
ATOM     19  C   LIG    1       -3.188  -2.733   0.988  0.00  0.00    +0.042 A 
ATOM     20  C   LIG    1       -2.038  -2.133   1.484  0.00  0.00    +0.100 A 
ATOM     21  C   LIG    1       -1.634  -0.898   0.990  0.00  0.00    +0.045 A 
ENDBRANCH  13  20
ENDBRANCH   1  13
TORSDOF 5
