REMARK  Name = ZINC05447667
REMARK                            x       y       z     vdW  Elec       q    Type
REMARK                         _______ _______ _______ _____ _____    ______ ____
ROOT
ATOM      1  C   LIG    1       -0.006  -4.853   3.669  0.00  0.00    +0.034 A 
ATOM      2  C   LIG    1       -0.112  -4.120   4.848  0.00  0.00    +0.024 A 
ATOM      3  C   LIG    1       -0.186  -4.768   6.059  0.00  0.00    +0.015 A 
ATOM      4  C   LIG    1       -0.157  -6.166   6.105  0.00  0.00    +0.038 A 
ATOM      5  C   LIG    1       -0.051  -6.899   4.920  0.00  0.00    +0.015 A 
ATOM      6  C   LIG    1        0.018  -6.244   3.711  0.00  0.00    +0.024 A 
ENDROOT
BRANCH   1   8
ATOM      7  C   LIG    1       -0.515  -4.727   1.354  0.00  0.00    +0.248 C 
ATOM      8  N   LIG    1        0.069  -4.193   2.445  0.00  0.00    -0.282 N 
ATOM      9  H   LIG    1        0.543  -3.349   2.377  0.00  0.00    +0.155 HD
ATOM     10  O   LIG    1       -1.036  -5.824   1.419  0.00  0.00    -0.270 OA
BRANCH   7  16
ATOM     11  C   LIG    1       -1.781  -4.422  -3.463  0.00  0.00    +0.044 C 
ATOM     12  C   LIG    1       -1.129  -3.829  -2.240  0.00  0.00    -0.050 A 
ATOM     13  C   LIG    1       -0.536  -2.581  -2.311  0.00  0.00    +0.003 A 
ATOM     14  C   LIG    1        0.065  -2.029  -1.193  0.00  0.00    +0.001 A 
ATOM     15  C   LIG    1        0.075  -2.721   0.000  0.00  0.00    +0.013 A 
ATOM     16  C   LIG    1       -0.523  -3.980   0.079  0.00  0.00    +0.037 A 
ATOM     17  C   LIG    1       -1.131  -4.529  -1.052  0.00  0.00    +0.016 A 
ENDBRANCH   7  16
ENDBRANCH   1   8
BRANCH   4  18
ATOM     18  C   LIG    1       -0.236  -6.864   7.402  0.00  0.00    +0.263 C 
ATOM     19  N   LIG    1       -0.207  -8.211   7.444  0.00  0.00    -0.202 N 
ATOM     20  H   LIG    1       -0.134  -8.721   6.622  0.00  0.00    +0.178 HD
ATOM     21  O   LIG    1       -0.327  -6.225   8.432  0.00  0.00    -0.268 OA
BRANCH  19  22
ATOM     22  N   LIG    1       -0.282  -8.874   8.676  0.00  0.00    -0.174 NA
ATOM     23  C   LIG    1       -0.254 -10.185   8.718  0.00  0.00    +0.153 C 
ATOM     24  C   LIG    1       -0.328 -11.051   9.917  0.00  0.00    +0.028 A 
ATOM     25  C   LIG    1       -0.442 -10.786  11.277  0.00  0.00    +0.012 A 
ATOM     26  C   LIG    1       -0.488 -11.832  12.177  0.00  0.00    +0.001 A 
ATOM     27  C   LIG    1       -0.420 -13.140  11.725  0.00  0.00    +0.002 A 
ATOM     28  C   LIG    1       -0.307 -13.413  10.377  0.00  0.00    +0.024 A 
ATOM     29  C   LIG    1       -0.260 -12.372   9.456  0.00  0.00    +0.043 A 
ATOM     30  N   LIG    1       -0.150 -12.370   8.069  0.00  0.00    -0.280 N 
ATOM     31  H   LIG    1       -0.088 -13.170   7.525  0.00  0.00    +0.155 HD
ATOM     32  C   LIG    1       -0.148 -11.118   7.579  0.00  0.00    +0.269 C 
ATOM     33  O   LIG    1       -0.069 -10.810   6.404  0.00  0.00    -0.268 OA
ENDBRANCH  19  22
ENDBRANCH   4  18
TORSDOF 4
