REMARK  Name = ZINC05344471
REMARK                            x       y       z     vdW  Elec       q    Type
REMARK                         _______ _______ _______ _____ _____    ______ ____
ROOT
ATOM      1  N   LIG    1        0.441  -0.190  -3.951  0.00  0.00    -0.285 N 
ATOM      2  H   LIG    1        1.079  -0.916  -4.033  0.00  0.00    +0.155 HD
ATOM      3  C   LIG    1        0.218   0.381  -2.751  0.00  0.00    +0.224 C 
ATOM      4  O   LIG    1       -0.633   1.237  -2.634  0.00  0.00    -0.275 OA
ENDROOT
BRANCH   1  11
ATOM      5  C   LIG    1       -1.566   0.694  -4.966  0.00  0.00    +0.025 A 
ATOM      6  C   LIG    1       -2.242   1.148  -6.081  0.00  0.00    +0.022 A 
ATOM      7  C   LIG    1       -1.614   1.165  -7.314  0.00  0.00    +0.041 A 
ATOM      8 CL   LIG    1       -2.470   1.731  -8.715  0.00  0.00    -0.084 Cl
ATOM      9  C   LIG    1       -0.305   0.733  -7.432  0.00  0.00    +0.022 A 
ATOM     10  C   LIG    1        0.379   0.284  -6.319  0.00  0.00    +0.025 A 
ATOM     11  C   LIG    1       -0.250   0.265  -5.081  0.00  0.00    +0.033 A 
ENDBRANCH   1  11
BRANCH   3  12
ATOM     12  C   LIG    1        1.027  -0.045  -1.553  0.00  0.00    +0.124 C 
ATOM     13  C   LIG    1        0.168   0.008  -0.251  0.00  0.00    +0.154 C 
ATOM     14  C   LIG    1        1.048  -0.618   0.834  0.00  0.00    +0.003 C 
ATOM     15  C   LIG    1        1.998   0.262   1.100  0.00  0.00    +0.003 C 
ATOM     16  C   LIG    1        1.743   1.467   0.191  0.00  0.00    +0.156 C 
ATOM     17  O   LIG    1        0.278   1.429   0.100  0.00  0.00    -0.364 OA
ATOM     18  C   LIG    1        2.143   0.988  -1.240  0.00  0.00    +0.145 C 
BRANCH  18  19
ATOM     19  C   LIG    1        2.109   2.131  -2.220  0.00  0.00    +0.311 C 
ATOM     20  O   LIG    1        1.287   3.009  -2.097  0.00  0.00    -0.251 OA
BRANCH  19  21
ATOM     21  O   LIG    1        2.991   2.176  -3.231  0.00  0.00    -0.480 OA
ATOM     22  H   LIG    1        3.629   1.495  -3.326  0.00  0.00    +0.295 HD
ENDBRANCH  19  21
ENDBRANCH  18  19
ENDBRANCH   3  12
TORSDOF 4
