REMARK  Name = ZINC05593240
REMARK                            x       y       z     vdW  Elec       q    Type
REMARK                         _______ _______ _______ _____ _____    ______ ____
ROOT
ATOM      1  C   LIG    1        1.518  -4.080   2.151  0.00  0.00    +0.034 A 
ATOM      2  C   LIG    1        1.451  -4.787   3.344  0.00  0.00    +0.025 A 
ATOM      3  C   LIG    1        1.478  -6.168   3.329  0.00  0.00    +0.030 A 
ATOM      4  C   LIG    1        1.573  -6.846   2.128  0.00  0.00    +0.105 A 
ATOM      5  C   LIG    1        1.641  -6.145   0.938  0.00  0.00    +0.030 A 
ATOM      6  C   LIG    1        1.608  -4.764   0.946  0.00  0.00    +0.025 A 
ENDROOT
BRANCH   1   8
ATOM      7  C   LIG    1        0.869  -2.011   1.173  0.00  0.00    +0.220 C 
ATOM      8  N   LIG    1        1.491  -2.681   2.163  0.00  0.00    -0.285 N 
ATOM      9  H   LIG    1        1.920  -2.193   2.883  0.00  0.00    +0.155 HD
ATOM     10  O   LIG    1        0.405  -2.616   0.229  0.00  0.00    -0.275 OA
BRANCH   7  11
ATOM     11  C   LIG    1        0.748  -0.510   1.239  0.00  0.00    +0.072 C 
ATOM     12  C   LIG    1       -0.028  -0.116   2.497  0.00  0.00    +0.017 C 
BRANCH  11  14
ATOM     13  C   LIG    1       -0.009   1.526   0.005  0.00  0.00    +0.004 C 
ATOM     14  C   LIG    1        0.004  -0.004   0.001  0.00  0.00    +0.009 C 
ENDBRANCH  11  14
ENDBRANCH   7  11
ENDBRANCH   1   8
BRANCH   4  15
ATOM     15  S   LIG    1        1.608  -8.608   2.113  0.00  0.00    +0.056 S 
ATOM     16  O   LIG    1        2.080  -9.015   3.390  0.00  0.00    -0.153 OA
ATOM     17  O   LIG    1        2.250  -8.991   0.905  0.00  0.00    -0.153 OA
BRANCH  15  18
ATOM     18  N   LIG    1        0.039  -9.127   2.002  0.00  0.00    -0.204 NA
ATOM     19  H   LIG    1       -0.157 -10.077   1.979  0.00  0.00    +0.144 HD
ATOM     20  H   LIG    1       -0.684  -8.482   1.959  0.00  0.00    +0.144 HD
ENDBRANCH  15  18
ENDBRANCH   4  15
TORSDOF 5
