REMARK  Name = ZINC05159961
REMARK                            x       y       z     vdW  Elec       q    Type
REMARK                         _______ _______ _______ _____ _____    ______ ____
ROOT
ATOM      1  C   LIG    1        2.115  -0.326  -2.814  0.00  0.00    +0.044 C 
ATOM      2  C   LIG    1        1.125   0.742  -3.203  0.00  0.00    -0.039 A 
ATOM      3  C   LIG    1        0.255   0.510  -4.220  0.00  0.00    +0.013 A 
ATOM      4  C   LIG    1       -0.670   1.501  -4.597  0.00  0.00    -0.007 A 
ATOM      5  C   LIG    1       -0.693   2.739  -3.907  0.00  0.00    +0.028 A 
ATOM      6  C   LIG    1        0.212   2.960  -2.852  0.00  0.00    +0.133 A 
ATOM      7  C   LIG    1       -1.618   3.727  -4.287  0.00  0.00    +0.061 A 
ATOM      8  C   LIG    1       -2.483   3.484  -5.314  0.00  0.00    +0.159 A 
ATOM      9  C   LIG    1       -2.461   2.259  -5.997  0.00  0.00    +0.162 A 
ATOM     10  C   LIG    1       -1.574   1.282  -5.651  0.00  0.00    +0.008 A 
ATOM     11  C   LIG    1        1.112   1.960  -2.506  0.00  0.00    +0.031 A 
ENDROOT
BRANCH  11  12
ATOM     12  C   LIG    1        2.068   2.184  -1.396  0.00  0.00    +0.031 A 
ATOM     13  C   LIG    1        3.327   2.744  -1.664  0.00  0.00    -0.039 A 
ATOM     14  C   LIG    1        3.691   3.112  -3.079  0.00  0.00    +0.044 C 
ATOM     15  C   LIG    1        4.222   2.959  -0.665  0.00  0.00    +0.013 A 
ATOM     16  C   LIG    1        3.896   2.620   0.661  0.00  0.00    -0.007 A 
ATOM     17  C   LIG    1        2.626   2.059   0.949  0.00  0.00    +0.028 A 
ATOM     18  C   LIG    1        2.305   1.715   2.274  0.00  0.00    +0.061 A 
ATOM     19  C   LIG    1        3.213   1.935   3.268  0.00  0.00    +0.159 A 
ATOM     20  C   LIG    1        4.466   2.496   2.985  0.00  0.00    +0.162 A 
ATOM     21  C   LIG    1        4.808   2.834   1.708  0.00  0.00    +0.008 A 
ATOM     22  C   LIG    1        1.713   1.837  -0.099  0.00  0.00    +0.133 A 
BRANCH  21  23
ATOM     23  C   LIG    1        6.160   3.436   1.421  0.00  0.00    +0.017 C 
ATOM     24  C   LIG    1        7.255   2.481   1.899  0.00  0.00    +0.012 C 
ATOM     25  C   LIG    1        6.290   4.771   2.157  0.00  0.00    +0.012 C 
ENDBRANCH  21  23
BRANCH  19  26
ATOM     26  O   LIG    1        2.898   1.606   4.550  0.00  0.00    -0.503 OA
ATOM     27  H   LIG    1        2.474   2.320   5.045  0.00  0.00    +0.292 HD
ENDBRANCH  19  26
BRANCH  20  28
ATOM     28  O   LIG    1        5.352   2.704   3.994  0.00  0.00    -0.503 OA
ATOM     29  H   LIG    1        5.275   3.573   4.412  0.00  0.00    +0.292 HD
ENDBRANCH  20  28
BRANCH  22  30
ATOM     30  O   LIG    1        0.494   1.296   0.156  0.00  0.00    -0.506 OA
ATOM     31  H   LIG    1        0.474   0.331   0.105  0.00  0.00    +0.292 HD
ENDBRANCH  22  30
ENDBRANCH  11  12
BRANCH  10  32
ATOM     32  C   LIG    1       -1.563  -0.028  -6.396  0.00  0.00    +0.017 C 
ATOM     33  C   LIG    1       -1.214   0.223  -7.864  0.00  0.00    +0.012 C 
ATOM     34  C   LIG    1       -2.945  -0.678  -6.305  0.00  0.00    +0.012 C 
ENDBRANCH  10  32
BRANCH   6  35
ATOM     35  O   LIG    1        0.206   4.139  -2.179  0.00  0.00    -0.506 OA
ATOM     36  H   LIG    1        0.790   4.811  -2.557  0.00  0.00    +0.292 HD
ENDBRANCH   6  35
BRANCH   8  37
ATOM     37  O   LIG    1       -3.377   4.441  -5.680  0.00  0.00    -0.503 OA
ATOM     38  H   LIG    1       -3.048   5.048  -6.358  0.00  0.00    +0.292 HD
ENDBRANCH   8  37
BRANCH   9  39
ATOM     39  O   LIG    1       -3.334   2.044  -7.016  0.00  0.00    -0.503 OA
ATOM     40  H   LIG    1       -2.999   2.311  -7.883  0.00  0.00    +0.292 HD
ENDBRANCH   9  39
TORSDOF 9
