REMARK  Name = ZINC04832953
REMARK                            x       y       z     vdW  Elec       q    Type
REMARK                         _______ _______ _______ _____ _____    ______ ____
ROOT
ATOM      1  N   LIG    1        0.136  -0.059   0.237  0.00  0.00    -0.251 N 
ATOM      2  H   LIG    1        0.971  -0.553   0.243  0.00  0.00    +0.158 HD
ATOM      3  C   LIG    1       -1.038  -0.721   0.224  0.00  0.00    +0.404 C 
ATOM      4  O   LIG    1       -2.081  -0.105   0.128  0.00  0.00    -0.226 OA
ENDROOT
BRANCH   1   8
ATOM      5  C   LIG    1        0.179   4.107   0.252  0.00  0.00    +0.000 A 
ATOM      6  C   LIG    1        1.146   3.404   0.949  0.00  0.00    +0.002 A 
ATOM      7  C   LIG    1        1.134   2.023   0.946  0.00  0.00    +0.023 A 
ATOM      8  C   LIG    1        0.151   1.340   0.242  0.00  0.00    +0.036 A 
ATOM      9  C   LIG    1       -0.815   2.049  -0.461  0.00  0.00    +0.023 A 
ATOM     10  C   LIG    1       -0.801   3.430  -0.450  0.00  0.00    +0.002 A 
ENDBRANCH   1   8
BRANCH   3  11
ATOM     11  O   LIG    1       -1.055  -2.064   0.319  0.00  0.00    -0.452 OA
BRANCH  11  12
ATOM     12  C   LIG    1       -2.355  -2.710   0.298  0.00  0.00    +0.215 C 
BRANCH  12  13
ATOM     13  C   LIG    1       -2.175  -4.224   0.415  0.00  0.00    -0.037 C 
BRANCH  13  14
ATOM     14  N   LIG    1       -1.542  -4.529   1.715  0.00  0.00    +0.382 N 
ATOM     15  H   LIG    1       -0.710  -3.938   1.827  0.00  0.00    -0.082 HD
ATOM     16  C   LIG    1       -2.486  -4.241   2.816  0.00  0.00    -0.079 C 
ATOM     17  C   LIG    1       -1.770  -4.450   4.152  0.00  0.00    -0.019 C 
ATOM     18  C   LIG    1       -1.292  -5.902   4.248  0.00  0.00    -0.004 C 
ATOM     19  C   LIG    1       -0.375  -6.208   3.061  0.00  0.00    -0.019 C 
ATOM     20  C   LIG    1       -1.131  -5.948   1.757  0.00  0.00    -0.079 C 
ENDBRANCH  13  14
ENDBRANCH  12  13
ENDBRANCH  11  12
ENDBRANCH   3  11
TORSDOF 5
