REMARK  Name = ZINC05024318
REMARK                            x       y       z     vdW  Elec       q    Type
REMARK                         _______ _______ _______ _____ _____    ______ ____
ROOT
ATOM      1  C   LIG    1        1.165  -0.677  -0.013  0.00  0.00    +0.233 A 
ATOM      2  N   LIG    1        2.335  -0.095  -0.020  0.00  0.00    -0.212 NA
ATOM      3  C   LIG    1        2.453   1.254  -0.014  0.00  0.00    +0.082 A 
ATOM      4  C   LIG    1        3.700   1.883  -0.023  0.00  0.00    +0.030 A 
ATOM      5  C   LIG    1        3.771   3.258  -0.017  0.00  0.00    +0.022 A 
ATOM      6  C   LIG    1        2.615   4.030  -0.002  0.00  0.00    +0.042 A 
ATOM      7 CL   LIG    1        2.737   5.762   0.005  0.00  0.00    -0.084 Cl
ATOM      8  C   LIG    1        1.372   3.432   0.007  0.00  0.00    +0.037 A 
ATOM      9  C   LIG    1        1.280   2.043   0.001  0.00  0.00    +0.086 A 
ATOM     10  C   LIG    1       -0.016   1.347   0.009  0.00  0.00    +0.348 A 
ATOM     11  O   LIG    1       -1.064   1.965   0.018  0.00  0.00    -0.244 OA
ATOM     12  O   LIG    1        0.002  -0.004   0.002  0.00  0.00    -0.403 OA
ENDROOT
BRANCH   1  18
ATOM     13  C   LIG    1       -0.146  -4.195  -0.019  0.00  0.00    +0.001 A 
ATOM     14  C   LIG    1        1.031  -4.921  -0.036  0.00  0.00    +0.001 A 
ATOM     15  C   LIG    1        2.252  -4.272  -0.044  0.00  0.00    +0.015 A 
ATOM     16  C   LIG    1        2.304  -2.892  -0.041  0.00  0.00    +0.026 A 
ATOM     17  I   LIG    1        4.154  -1.910  -0.062  0.00  0.00    -0.043 I 
ATOM     18  C   LIG    1        1.119  -2.153  -0.020  0.00  0.00    +0.050 A 
ATOM     19  C   LIG    1       -0.110  -2.816  -0.012  0.00  0.00    +0.014 A 
ENDBRANCH   1  18
TORSDOF 1
