REMARK  Name = ZINC05162286
REMARK                            x       y       z     vdW  Elec       q    Type
REMARK                         _______ _______ _______ _____ _____    ______ ____
ROOT
ATOM      1  C   LIG    1        5.003  -2.740  -0.063  0.00  0.00    -0.023 A 
ATOM      2  C   LIG    1        6.204  -2.023  -0.066  0.00  0.00    +0.008 A 
ATOM      3  C   LIG    1        7.408  -2.696  -0.082  0.00  0.00    +0.002 A 
ATOM      4  C   LIG    1        7.433  -4.079  -0.095  0.00  0.00    +0.023 A 
ATOM      5  C   LIG    1        6.245  -4.801  -0.093  0.00  0.00    +0.025 A 
ATOM      6  C   LIG    1        5.029  -4.135  -0.071  0.00  0.00    +0.030 A 
ENDROOT
BRANCH   5   7
ATOM      7  N   LIG    1        6.277  -6.197  -0.107  0.00  0.00    -0.358 N 
ATOM      8  H   LIG    1        5.448  -6.701  -0.105  0.00  0.00    +0.142 HD
ATOM      9  H   LIG    1        7.127  -6.663  -0.118  0.00  0.00    +0.142 HD
ENDBRANCH   5   7
BRANCH   1  11
ATOM     10  C   LIG    1        3.692  -0.681  -0.038  0.00  0.00    +0.008 C 
ATOM     11  C   LIG    1        3.715  -2.024  -0.046  0.00  0.00    +0.008 C 
BRANCH  10  15
ATOM     12  C   LIG    1       -0.017   1.380   0.010  0.00  0.00    +0.000 A 
ATOM     13  C   LIG    1        1.168   2.095   0.002  0.00  0.00    +0.001 A 
ATOM     14  C   LIG    1        2.377   1.431  -0.013  0.00  0.00    +0.008 A 
ATOM     15  C   LIG    1        2.404   0.034  -0.021  0.00  0.00    -0.025 A 
ATOM     16  C   LIG    1        1.204  -0.681  -0.013  0.00  0.00    +0.008 A 
ATOM     17  C   LIG    1        0.002  -0.004   0.002  0.00  0.00    +0.001 A 
ENDBRANCH  10  15
ENDBRANCH   1  11
TORSDOF 3
