REMARK  Name = ZINC05224053
REMARK                            x       y       z     vdW  Elec       q    Type
REMARK                         _______ _______ _______ _____ _____    ______ ____
ROOT
ATOM      1  N   LIG    1       -0.759   1.590  -1.151  0.00  0.00    -0.296 N 
ATOM      2  C   LIG    1       -0.013   1.086   0.008  0.00  0.00    +0.123 C 
ATOM      3  C   LIG    1       -0.775   1.603   1.248  0.00  0.00    +0.124 C 
ATOM      4  C   LIG    1       -2.205   1.785   0.683  0.00  0.00    +0.112 C 
ATOM      5  C   LIG    1       -1.996   1.984  -0.801  0.00  0.00    +0.217 C 
ATOM      6  O   LIG    1       -2.823   2.434  -1.565  0.00  0.00    -0.276 OA
ENDROOT
BRANCH   3   7
ATOM      7  C   LIG    1       -0.209   2.918   1.719  0.00  0.00    +0.310 C 
ATOM      8  O   LIG    1        0.721   3.420   1.133  0.00  0.00    -0.251 OA
BRANCH   7   9
ATOM      9  O   LIG    1       -0.738   3.532   2.789  0.00  0.00    -0.480 OA
ATOM     10  H   LIG    1       -1.459   3.143   3.243  0.00  0.00    +0.295 HD
ENDBRANCH   7   9
ENDBRANCH   3   7
BRANCH   1  11
ATOM     11  C   LIG    1       -0.224   1.656  -2.513  0.00  0.00    +0.142 C 
BRANCH  11  18
ATOM     12  C   LIG    1        0.368  -0.681  -3.187  0.00  0.00    +0.006 A 
ATOM     13  C   LIG    1        0.086  -1.864  -3.844  0.00  0.00    +0.020 A 
ATOM     14  C   LIG    1       -1.091  -1.993  -4.560  0.00  0.00    +0.041 A 
ATOM     15 CL   LIG    1       -1.444  -3.475  -5.391  0.00  0.00    -0.084 Cl
ATOM     16  C   LIG    1       -1.987  -0.940  -4.613  0.00  0.00    +0.020 A 
ATOM     17  C   LIG    1       -1.706   0.240  -3.950  0.00  0.00    +0.006 A 
ATOM     18  C   LIG    1       -0.530   0.369  -3.235  0.00  0.00    -0.030 A 
ENDBRANCH  11  18
ENDBRANCH   1  11
TORSDOF 4
