REMARK  Name = ZINC05410694
REMARK                            x       y       z     vdW  Elec       q    Type
REMARK                         _______ _______ _______ _____ _____    ______ ____
ROOT
ATOM      1  C   LIG    1       -0.822   3.459   1.762  0.00  0.00    +0.004 C 
ENDROOT
BRANCH   1   2
ATOM      2  C   LIG    1       -0.742   1.938   1.620  0.00  0.00    +0.173 C 
BRANCH   2   3
ATOM      3  S   LIG    1       -0.019   1.518   0.010  0.00  0.00    -0.006 S 
ATOM      4  O   LIG    1        1.355   1.880  -0.001  0.00  0.00    -0.167 OA
BRANCH   3   5
ATOM      5  O   LIG    1        0.002  -0.004   0.002  0.00  0.00    -0.269 OA
ATOM      6  H   LIG    1       -0.908  -0.340   0.009  0.00  0.00    +0.243 HD
ENDBRANCH   3   5
ENDBRANCH   2   3
ENDBRANCH   1   2
BRANCH   1   7
ATOM      7  C   LIG    1       -1.432   3.814   3.119  0.00  0.00    -0.085 C 
BRANCH   7   8
ATOM      8  N   LIG    1       -1.524   5.280   3.236  0.00  0.00    +0.378 N 
ATOM      9  H   LIG    1       -2.142   5.639   2.499  0.00  0.00    -0.090 HD
ATOM     10  H   LIG    1       -0.601   5.698   3.129  0.00  0.00    -0.090 HD
ATOM     11  H   LIG    1       -1.908   5.534   4.144  0.00  0.00    -0.090 HD
ENDBRANCH   7   8
ENDBRANCH   1   7
TORSDOF 5
