REMARK  Name = ZINC05187207
REMARK                            x       y       z     vdW  Elec       q    Type
REMARK                         _______ _______ _______ _____ _____    ______ ____
ROOT
ATOM      1  C   LIG    1       -3.251  -3.118   0.001  0.00  0.00    +0.111 C 
ATOM      2  C   LIG    1       -4.295  -2.032   0.011  0.00  0.00    +0.232 C 
ATOM      3  N   LIG    1       -3.920  -0.737   0.017  0.00  0.00    -0.185 N 
ATOM      4  C   LIG    1       -4.832   0.418   0.028  0.00  0.00    +0.137 C 
ATOM      5  C   LIG    1       -3.880   1.630   0.035  0.00  0.00    +0.087 C 
ATOM      6  C   LIG    1       -2.501   1.010   0.019  0.00  0.00    +0.069 C 
ATOM      7  N   LIG    1       -2.606  -0.274   0.013  0.00  0.00    -0.181 NA
ATOM      8  O   LIG    1       -5.473  -2.322   0.015  0.00  0.00    -0.274 OA
ENDROOT
BRANCH   4   9
ATOM      9  C   LIG    1       -5.683   0.410   1.271  0.00  0.00    -0.025 A 
ATOM     10  C   LIG    1       -5.138   0.019   2.479  0.00  0.00    +0.007 A 
ATOM     11  C   LIG    1       -5.917   0.018   3.621  0.00  0.00    +0.020 A 
ATOM     12  C   LIG    1       -7.245   0.397   3.553  0.00  0.00    +0.041 A 
ATOM     13 CL   LIG    1       -8.226   0.388   4.985  0.00  0.00    -0.084 Cl
ATOM     14  C   LIG    1       -7.792   0.783   2.342  0.00  0.00    +0.020 A 
ATOM     15  C   LIG    1       -7.011   0.790   1.202  0.00  0.00    +0.007 A 
ENDBRANCH   4   9
BRANCH   6  16
ATOM     16  C   LIG    1       -1.231   1.759   0.017  0.00  0.00    -0.002 A 
ATOM     17  C   LIG    1       -0.013   1.076   0.008  0.00  0.00    +0.010 A 
ATOM     18  C   LIG    1        1.171   1.783   0.001  0.00  0.00    +0.001 A 
ATOM     19  C   LIG    1        1.155   3.167   0.008  0.00  0.00    +0.000 A 
ATOM     20  C   LIG    1       -0.048   3.851   0.023  0.00  0.00    +0.001 A 
ATOM     21  C   LIG    1       -1.240   3.156   0.031  0.00  0.00    +0.010 A 
ENDBRANCH   6  16
TORSDOF 2
