REMARK  Name = ZINC04995478
REMARK                            x       y       z     vdW  Elec       q    Type
REMARK                         _______ _______ _______ _____ _____    ______ ____
ROOT
ATOM      1  S   LIG    1        4.211  -1.771  -0.795  0.00  0.00    +0.077 S 
ATOM      2  O   LIG    1        5.474  -1.989  -1.409  0.00  0.00    -0.150 OA
ATOM      3  O   LIG    1        3.008  -1.667  -1.543  0.00  0.00    -0.150 OA
ENDROOT
BRANCH   1   4
ATOM      4  C   LIG    1        3.977  -3.085   0.355  0.00  0.00    +0.139 A 
ATOM      5  C   LIG    1        3.639  -2.805   1.666  0.00  0.00    +0.031 A 
ATOM      6  C   LIG    1        3.455  -3.835   2.569  0.00  0.00    +0.002 A 
ATOM      7  C   LIG    1        3.609  -5.147   2.160  0.00  0.00    +0.002 A 
ATOM      8  C   LIG    1        3.946  -5.428   0.849  0.00  0.00    +0.034 A 
ATOM      9  C   LIG    1        4.125  -4.397  -0.054  0.00  0.00    +0.148 A 
BRANCH   9  10
ATOM     10  N   LIG    1        4.481  -4.698  -1.459  0.00  0.00    +0.008 N 
ATOM     11  O   LIG    1        4.736  -5.833  -1.789  0.00  0.00    -0.130 OA
BRANCH  10  12
ATOM     12  O   LIG    1        4.518  -3.808  -2.277  0.00  0.00    -0.396 OA
ATOM     13  H   LIG    1        4.320  -2.929  -2.022  0.00  0.00    +0.329 HD
ENDBRANCH  10  12
ENDBRANCH   9  10
ENDBRANCH   1   4
BRANCH   1  14
ATOM     14  N   LIG    1        4.346  -0.372   0.081  0.00  0.00    -0.192 N 
BRANCH  14  18
ATOM     15  C   LIG    1        0.924   1.708   1.220  0.00  0.00    +0.000 A 
ATOM     16  C   LIG    1        2.123   2.381   1.071  0.00  0.00    +0.002 A 
ATOM     17  C   LIG    1        3.260   1.694   0.694  0.00  0.00    +0.025 A 
ATOM     18  C   LIG    1        3.198   0.326   0.463  0.00  0.00    +0.052 A 
ATOM     19  C   LIG    1        1.992  -0.347   0.613  0.00  0.00    +0.025 A 
ATOM     20  C   LIG    1        0.859   0.346   0.991  0.00  0.00    +0.002 A 
ENDBRANCH  14  18
BRANCH  14  21
ATOM     21  C   LIG    1        5.669   0.133   0.455  0.00  0.00    +0.251 C 
BRANCH  21  22
ATOM     22  C   LIG    1        5.937  -0.183   1.903  0.00  0.00    +0.324 C 
ATOM     23  O   LIG    1        5.059  -0.673   2.593  0.00  0.00    -0.249 OA
BRANCH  22  24
ATOM     24  O   LIG    1        7.032   0.050   2.386  0.00  0.00    -0.479 OA
ATOM     25  H   LIG    1        7.707   0.427   1.856  0.00  0.00    +0.295 HD
ENDBRANCH  22  24
ENDBRANCH  21  22
ENDBRANCH  14  21
ENDBRANCH   1  14
TORSDOF 8
