REMARK  Name = ZINC05566758
REMARK                            x       y       z     vdW  Elec       q    Type
REMARK                         _______ _______ _______ _____ _____    ______ ____
ROOT
ATOM      1  C   LIG    1       -2.928   1.570  -2.460  0.00  0.00    +0.141 C 
ENDROOT
BRANCH   1   5
ATOM      2  C   LIG    1       -0.729   1.579   1.267  0.00  0.00    +0.000 C 
ATOM      3  C   LIG    1       -0.013   1.086   0.008  0.00  0.00    +0.000 C 
ATOM      4  C   LIG    1       -0.753   1.593  -1.232  0.00  0.00    +0.006 C 
ATOM      5  C   LIG    1       -2.188   1.063  -1.221  0.00  0.00    +0.022 C 
ATOM      6  C   LIG    1       -2.904   1.556   0.038  0.00  0.00    +0.006 C 
ATOM      7  C   LIG    1       -2.164   1.050   1.278  0.00  0.00    +0.000 C 
ENDBRANCH   1   5
BRANCH   1   8
ATOM      8  O   LIG    1       -2.259   1.109  -3.636  0.00  0.00    -0.387 OA
ATOM      9  H   LIG    1       -2.209   0.146  -3.708  0.00  0.00    +0.210 HD
ENDBRANCH   1   8
BRANCH   1  10
ATOM     10  C   LIG    1       -4.342   1.048  -2.450  0.00  0.00    +0.011 C 
ATOM     11  C   LIG    1       -5.365   1.899  -2.435  0.00  0.00    +0.089 C 
BRANCH  11  12
ATOM     12  C   LIG    1       -6.744   1.391  -2.425  0.00  0.00    +0.329 C 
ATOM     13  O   LIG    1       -6.949   0.193  -2.429  0.00  0.00    -0.246 OA
BRANCH  12  14
ATOM     14  O   LIG    1       -7.780   2.252  -2.410  0.00  0.00    -0.478 OA
ATOM     15  H   LIG    1       -7.621   3.176  -2.407  0.00  0.00    +0.295 HD
ENDBRANCH  12  14
ENDBRANCH  11  12
ENDBRANCH   1  10
TORSDOF 5
