REMARK  Name = ZINC05188392
REMARK                            x       y       z     vdW  Elec       q    Type
REMARK                         _______ _______ _______ _____ _____    ______ ____
ROOT
ATOM      1  C   LIG    1        6.522  -6.863   2.666  0.00  0.00    +0.002 C 
ENDROOT
BRANCH   1   2
ATOM      2  C   LIG    1        5.191  -6.149   2.420  0.00  0.00    +0.019 C 
BRANCH   2   3
ATOM      3  C   LIG    1        5.434  -4.642   2.313  0.00  0.00    +0.107 C 
BRANCH   3   5
ATOM      4  C   LIG    1        4.128  -2.617   1.949  0.00  0.00    +0.426 C 
ATOM      5  N   LIG    1        4.160  -3.958   2.078  0.00  0.00    -0.279 N 
ATOM      6  H   LIG    1        3.338  -4.471   2.015  0.00  0.00    +0.152 HD
ATOM      7  O   LIG    1        5.157  -1.975   2.028  0.00  0.00    -0.224 OA
BRANCH   4   8
ATOM      8  O   LIG    1        2.958  -1.988   1.733  0.00  0.00    -0.299 OA
BRANCH   8  14
ATOM      9  C   LIG    1       -0.019   1.525   0.010  0.00  0.00    +0.001 C 
ATOM     10  C   LIG    1        1.413   2.063  -0.000  0.00  0.00    +0.006 C 
ATOM     11  C   LIG    1        2.128   1.634   1.285  0.00  0.00    +0.054 C 
ATOM     12  C   LIG    1        2.028   0.130   1.411  0.00  0.00    +0.058 C 
ATOM     13  C   LIG    1        0.664  -0.511   1.288  0.00  0.00    +0.054 C 
ATOM     14  N   LIG    1        3.071  -0.582   1.618  0.00  0.00    -0.082 NA
ATOM     15  C   LIG    1        0.002  -0.004   0.002  0.00  0.00    +0.006 C 
ENDBRANCH   8  14
ENDBRANCH   4   8
ENDBRANCH   3   5
ENDBRANCH   2   3
ENDBRANCH   1   2
BRANCH   1  16
ATOM     16  C   LIG    1        6.280  -8.370   2.773  0.00  0.00    +0.002 C 
BRANCH  16  17
ATOM     17  C   LIG    1        7.610  -9.084   3.019  0.00  0.00    +0.019 C 
BRANCH  17  18
ATOM     18  C   LIG    1        7.368 -10.591   3.126  0.00  0.00    +0.107 C 
BRANCH  18  19
ATOM     19  N   LIG    1        8.642 -11.275   3.361  0.00  0.00    -0.279 N 
ATOM     20  H   LIG    1        9.463 -10.762   3.424  0.00  0.00    +0.152 HD
ATOM     21  C   LIG    1        8.674 -12.616   3.490  0.00  0.00    +0.426 C 
ATOM     22  O   LIG    1        7.645 -13.258   3.411  0.00  0.00    -0.224 OA
BRANCH  21  23
ATOM     23  O   LIG    1        9.844 -13.245   3.706  0.00  0.00    -0.299 OA
BRANCH  23  24
ATOM     24  N   LIG    1        9.730 -14.651   3.821  0.00  0.00    -0.082 NA
ATOM     25  C   LIG    1       10.774 -15.363   4.028  0.00  0.00    +0.058 C 
ATOM     26  C   LIG    1       12.137 -14.721   4.158  0.00  0.00    +0.054 C 
ATOM     27  C   LIG    1       12.795 -15.233   5.444  0.00  0.00    +0.006 C 
ATOM     28  C   LIG    1       12.817 -16.762   5.430  0.00  0.00    +0.001 C 
ATOM     29  C   LIG    1       11.386 -17.301   5.434  0.00  0.00    +0.006 C 
ATOM     30  C   LIG    1       10.674 -16.867   4.154  0.00  0.00    +0.054 C 
ENDBRANCH  23  24
ENDBRANCH  21  23
ENDBRANCH  18  19
ENDBRANCH  17  18
ENDBRANCH  16  17
ENDBRANCH   1  16
TORSDOF 11
