REMARK  Name = ZINC05766573
REMARK                            x       y       z     vdW  Elec       q    Type
REMARK                         _______ _______ _______ _____ _____    ______ ____
ROOT
ATOM      1  C   LIG    1        0.877   3.458   1.287  0.00  0.00    +0.048 C 
ATOM      2  C   LIG    1       -0.295   2.702   1.859  0.00  0.00    +0.001 C 
ATOM      3  C   LIG    1       -0.850   1.697   1.143  0.00  0.00    -0.022 C 
ATOM      4  C   LIG    1       -1.982   0.943   1.672  0.00  0.00    -0.013 A 
ATOM      5  C   LIG    1       -2.561  -0.100   0.945  0.00  0.00    +0.009 A 
ATOM      6  C   LIG    1       -3.635  -0.803   1.466  0.00  0.00    +0.001 A 
ATOM      7  C   LIG    1       -4.159  -0.498   2.702  0.00  0.00    +0.008 A 
ATOM      8  C   LIG    1       -3.603   0.545   3.463  0.00  0.00    -0.017 A 
ATOM      9  C   LIG    1       -4.110   0.886   4.729  0.00  0.00    +0.008 A 
ATOM     10  C   LIG    1       -3.541   1.914   5.446  0.00  0.00    +0.001 A 
ATOM     11  C   LIG    1       -2.465   2.631   4.942  0.00  0.00    +0.012 A 
ATOM     12  C   LIG    1       -1.938   2.320   3.693  0.00  0.00    +0.030 A 
ATOM     13  C   LIG    1       -2.507   1.270   2.942  0.00  0.00    +0.000 A 
ATOM     14  C   LIG    1       -0.799   3.060   3.130  0.00  0.00    +0.190 C 
ATOM     15  O   LIG    1       -0.289   3.973   3.758  0.00  0.00    -0.287 OA
ENDROOT
BRANCH   3  16
ATOM     16  C   LIG    1       -0.289   1.349  -0.212  0.00  0.00    +0.156 C 
BRANCH  16  17
ATOM     17  C   LIG    1        0.744   0.263  -0.063  0.00  0.00    +0.309 C 
ATOM     18  O   LIG    1        1.000  -0.183   1.030  0.00  0.00    -0.251 OA
BRANCH  17  19
ATOM     19  O   LIG    1        1.381  -0.210  -1.146  0.00  0.00    -0.480 OA
ATOM     20  H   LIG    1        1.183   0.136  -1.994  0.00  0.00    +0.295 HD
ENDBRANCH  17  19
ENDBRANCH  16  17
ENDBRANCH   3  16
TORSDOF 3
