REMARK  Name = ZINC05234694
REMARK                            x       y       z     vdW  Elec       q    Type
REMARK                         _______ _______ _______ _____ _____    ______ ____
ROOT
ATOM      1  C   LIG    1        0.490   5.075  -1.472  0.00  0.00    +0.091 A 
ATOM      2  C   LIG    1       -0.199   5.505  -2.602  0.00  0.00    +0.124 A 
ATOM      3  C   LIG    1       -1.061   4.650  -3.271  0.00  0.00    +0.092 A 
ATOM      4  C   LIG    1       -1.244   3.354  -2.817  0.00  0.00    +0.146 A 
ATOM      5  C   LIG    1       -0.556   2.914  -1.671  0.00  0.00    +0.063 A 
ATOM      6  C   LIG    1       -0.742   1.585  -1.213  0.00  0.00    -0.016 A 
ATOM      7  C   LIG    1       -1.592   0.771  -1.891  0.00  0.00    +0.097 A 
ATOM      8  C   LIG    1       -2.266   1.254  -3.030  0.00  0.00    +0.338 A 
ATOM      9  O   LIG    1       -3.027   0.518  -3.633  0.00  0.00    -0.245 OA
ATOM     10  O   LIG    1       -2.082   2.513  -3.463  0.00  0.00    -0.422 OA
ATOM     11  C   LIG    1        0.321   3.788  -1.003  0.00  0.00    +0.131 A 
ENDROOT
BRANCH   2  12
ATOM     12  O   LIG    1       -0.025   6.773  -3.054  0.00  0.00    -0.507 OA
ATOM     13  H   LIG    1       -0.642   7.414  -2.675  0.00  0.00    +0.292 HD
ENDBRANCH   2  12
BRANCH  11  14
ATOM     14  O   LIG    1        0.992   3.370   0.100  0.00  0.00    -0.506 OA
ATOM     15  H   LIG    1        0.519   3.523   0.930  0.00  0.00    +0.292 HD
ENDBRANCH  11  14
BRANCH   6  16
ATOM     16  C   LIG    1       -0.013   1.086   0.008  0.00  0.00    +0.156 C 
BRANCH  16  17
ATOM     17  C   LIG    1        1.414   0.765  -0.355  0.00  0.00    +0.309 C 
ATOM     18  O   LIG    1        1.800   0.925  -1.489  0.00  0.00    -0.251 OA
BRANCH  17  19
ATOM     19  O   LIG    1        2.257   0.301   0.581  0.00  0.00    -0.480 OA
ATOM     20  H   LIG    1        1.958   0.177   1.460  0.00  0.00    +0.295 HD
ENDBRANCH  17  19
ENDBRANCH  16  17
ENDBRANCH   6  16
TORSDOF 5
