REMARK  Name = ZINC05626309
REMARK                            x       y       z     vdW  Elec       q    Type
REMARK                         _______ _______ _______ _____ _____    ______ ____
ROOT
ATOM      1  N   LIG    1        1.239  -2.076  -0.021  0.00  0.00    -0.236 N 
ATOM      2  H   LIG    1        2.087  -2.547  -0.033  0.00  0.00    +0.174 HD
ENDROOT
BRANCH   1   3
ATOM      3  N   LIG    1        0.132  -2.739  -0.014  0.00  0.00    -0.176 NA
ATOM      4  C   LIG    1        0.154  -4.060  -0.021  0.00  0.00    +0.164 C 
ATOM      5  C   LIG    1       -0.997  -4.976  -0.021  0.00  0.00    +0.165 C 
ATOM      6  N   LIG    1       -0.534  -6.187  -0.031  0.00  0.00    -0.186 NA
ATOM      7  N   LIG    1        0.860  -6.200  -0.038  0.00  0.00    -0.202 N 
ATOM      8  H   LIG    1        1.408  -7.001  -0.046  0.00  0.00    +0.178 HD
ATOM      9  C   LIG    1        1.336  -4.939  -0.038  0.00  0.00    +0.285 C 
ATOM     10  O   LIG    1        2.505  -4.595  -0.048  0.00  0.00    -0.267 OA
ENDBRANCH   1   3
BRANCH   1  16
ATOM     11  C   LIG    1       -0.017   1.377   0.010  0.00  0.00    +0.002 A 
ATOM     12  C   LIG    1        1.170   2.087   0.002  0.00  0.00    +0.002 A 
ATOM     13  C   LIG    1        2.381   1.418  -0.013  0.00  0.00    +0.022 A 
ATOM     14  C   LIG    1        2.408   0.036  -0.021  0.00  0.00    +0.063 A 
ATOM     15 CL   LIG    1        3.927  -0.803  -0.041  0.00  0.00    -0.082 Cl
ATOM     16  C   LIG    1        1.216  -0.681  -0.013  0.00  0.00    +0.067 A 
ATOM     17  C   LIG    1        0.002  -0.004   0.002  0.00  0.00    +0.026 A 
ENDBRANCH   1  16
TORSDOF 2
