REMARK  Name = ZINC05344304
REMARK                            x       y       z     vdW  Elec       q    Type
REMARK                         _______ _______ _______ _____ _____    ______ ____
ROOT
ATOM      1  N   LIG    1       -4.910   1.178   0.049  0.00  0.00    -0.285 N 
ATOM      2  H   LIG    1       -4.907   0.210  -0.010  0.00  0.00    +0.155 HD
ATOM      3  C   LIG    1       -6.078   1.843   0.145  0.00  0.00    +0.224 C 
ATOM      4  O   LIG    1       -6.088   3.056   0.140  0.00  0.00    -0.275 OA
ENDROOT
BRANCH   3   5
ATOM      5  C   LIG    1       -7.373   1.080   0.261  0.00  0.00    +0.124 C 
ATOM      6  C   LIG    1       -8.529   1.827  -0.475  0.00  0.00    +0.154 C 
ATOM      7  C   LIG    1       -9.716   0.862  -0.435  0.00  0.00    +0.003 C 
ATOM      8  C   LIG    1      -10.151   0.853   0.814  0.00  0.00    +0.003 C 
ATOM      9  C   LIG    1       -9.249   1.812   1.595  0.00  0.00    +0.156 C 
ATOM     10  O   LIG    1       -8.934   2.796   0.551  0.00  0.00    -0.364 OA
ATOM     11  C   LIG    1       -7.882   1.069   1.727  0.00  0.00    +0.145 C 
BRANCH  11  12
ATOM     12  C   LIG    1       -6.942   1.824   2.630  0.00  0.00    +0.311 C 
ATOM     13  O   LIG    1       -7.048   3.022   2.747  0.00  0.00    -0.251 OA
BRANCH  12  14
ATOM     14  O   LIG    1       -5.986   1.166   3.305  0.00  0.00    -0.480 OA
ATOM     15  H   LIG    1       -5.903   0.237   3.214  0.00  0.00    +0.295 HD
ENDBRANCH  12  14
ENDBRANCH  11  12
ENDBRANCH   3   5
BRANCH   1  20
ATOM     16  C   LIG    1       -1.378   2.038   0.631  0.00  0.00    +0.003 A 
ATOM     17  C   LIG    1       -1.294   3.268   0.010  0.00  0.00    +0.015 A 
ATOM     18  C   LIG    1       -2.422   3.821  -0.599  0.00  0.00    +0.061 A 
ATOM     19  C   LIG    1       -3.630   3.121  -0.587  0.00  0.00    +0.038 A 
ATOM     20  C   LIG    1       -3.702   1.884   0.035  0.00  0.00    +0.034 A 
ATOM     21  C   LIG    1       -2.574   1.345   0.643  0.00  0.00    +0.023 A 
BRANCH  18  22
ATOM     22  C   LIG    1       -2.337   5.140  -1.259  0.00  0.00    +0.337 C 
ATOM     23  O   LIG    1       -3.319   5.617  -1.793  0.00  0.00    -0.245 OA
BRANCH  22  24
ATOM     24  O   LIG    1       -1.172   5.816  -1.265  0.00  0.00    -0.477 OA
ATOM     25  H   LIG    1       -0.415   5.448  -0.853  0.00  0.00    +0.295 HD
ENDBRANCH  22  24
ENDBRANCH  18  22
ENDBRANCH   1  20
TORSDOF 6
