REMARK  Name = ZINC05832614
REMARK                            x       y       z     vdW  Elec       q    Type
REMARK                         _______ _______ _______ _____ _____    ______ ____
ROOT
ATOM      1  C   LIG    1       -2.392   9.055  -4.494  0.00  0.00    +0.019 C 
ATOM      2  C   LIG    1       -1.363   9.778  -3.623  0.00  0.00    +0.029 C 
ATOM      3  C   LIG    1        0.009   9.188  -3.873  0.00  0.00    +0.015 C 
ATOM      4  C   LIG    1       -0.080   7.671  -3.619  0.00  0.00    +0.009 C 
ATOM      5  C   LIG    1       -0.598   7.383  -2.215  0.00  0.00    +0.023 C 
ATOM      6  C   LIG    1       -0.706   5.912  -1.937  0.00  0.00    -0.041 A 
ATOM      7  C   LIG    1        0.232   5.064  -2.511  0.00  0.00    +0.008 A 
ATOM      8  C   LIG    1        0.194   3.708  -2.268  0.00  0.00    +0.049 A 
ATOM      9  C   LIG    1       -0.793   3.185  -1.444  0.00  0.00    +0.158 A 
ATOM     10  C   LIG    1       -1.734   4.029  -0.881  0.00  0.00    +0.052 A 
ATOM     11  C   LIG    1       -1.694   5.396  -1.124  0.00  0.00    -0.040 A 
ATOM     12  C   LIG    1       -2.755   6.251  -0.483  0.00  0.00    +0.036 C 
ATOM     13  C   LIG    1       -2.374   7.730  -0.524  0.00  0.00    +0.009 C 
ATOM     14  C   LIG    1       -1.942   8.074  -1.950  0.00  0.00    +0.001 C 
ATOM     15  C   LIG    1       -1.506  11.259  -3.809  0.00  0.00    +0.139 C 
ATOM     16  O   LIG    1       -0.901  11.956  -4.587  0.00  0.00    -0.297 OA
ATOM     17  C   LIG    1       -2.575  11.704  -2.815  0.00  0.00    +0.075 C 
ATOM     18  C   LIG    1       -2.961  10.448  -1.986  0.00  0.00    +0.012 C 
ATOM     19  C   LIG    1       -1.716   9.562  -2.125  0.00  0.00    +0.006 C 
ENDROOT
BRANCH   9  20
ATOM     20  O   LIG    1       -0.837   1.850  -1.194  0.00  0.00    -0.334 OA
BRANCH  20  21
ATOM     21  S   LIG    1       -0.030   1.420   0.022  0.00  0.00    +0.189 S 
ATOM     22  O   LIG    1        1.160   2.197   0.015  0.00  0.00    -0.119 OA
ATOM     23  O   LIG    1       -0.012  -0.001   0.016  0.00  0.00    -0.119 OA
BRANCH  21  24
ATOM     24  N   LIG    1       -0.885   1.877   1.364  0.00  0.00    -0.174 NA
ATOM     25  H   LIG    1       -1.531   1.270   1.758  0.00  0.00    +0.147 HD
ATOM     26  H   LIG    1       -0.741   2.752   1.757  0.00  0.00    +0.147 HD
ENDBRANCH  21  24
ENDBRANCH  20  21
ENDBRANCH   9  20
TORSDOF 3
