REMARK  Name = ZINC05834799
REMARK                            x       y       z     vdW  Elec       q    Type
REMARK                         _______ _______ _______ _____ _____    ______ ____
ROOT
ATOM      1  C   LIG    1        2.959   3.985   0.001  0.00  0.00    +0.131 A 
ATOM      2  C   LIG    1        3.184   5.353   0.001  0.00  0.00    +0.050 A 
ATOM      3  C   LIG    1        2.119   6.231   0.017  0.00  0.00    +0.049 A 
ATOM      4  C   LIG    1        0.813   5.753   0.026  0.00  0.00    +0.118 A 
ATOM      5  C   LIG    1        0.570   4.393   0.020  0.00  0.00    +0.060 A 
ATOM      6  C   LIG    1        1.644   3.494   0.005  0.00  0.00    +0.062 A 
ENDROOT
BRANCH   4   7
ATOM      7  O   LIG    1       -0.228   6.627   0.040  0.00  0.00    -0.507 OA
ATOM      8  H   LIG    1       -0.521   6.875   0.928  0.00  0.00    +0.292 HD
ENDBRANCH   4   7
BRANCH   6   9
ATOM      9  C   LIG    1        1.395   2.047  -0.000  0.00  0.00    +0.167 C 
ATOM     10  O   LIG    1        2.328   1.272  -0.013  0.00  0.00    -0.292 OA
BRANCH   9  11
ATOM     11  C   LIG    1       -0.019   1.526   0.010  0.00  0.00    +0.084 C 
BRANCH  11  12
ATOM     12  C   LIG    1        0.002  -0.004   0.002  0.00  0.00    +0.043 C 
BRANCH  12  13
ATOM     13  C   LIG    1       -1.412  -0.526   0.013  0.00  0.00    -0.047 A 
ATOM     14  C   LIG    1       -2.047  -0.777   1.215  0.00  0.00    +0.003 A 
ATOM     15  C   LIG    1       -3.345  -1.250   1.224  0.00  0.00    +0.000 A 
ATOM     16  C   LIG    1       -4.005  -1.483   0.032  0.00  0.00    +0.000 A 
ATOM     17  C   LIG    1       -3.368  -1.237  -1.170  0.00  0.00    +0.000 A 
ATOM     18  C   LIG    1       -2.072  -0.758  -1.179  0.00  0.00    +0.003 A 
ENDBRANCH  12  13
ENDBRANCH  11  12
ENDBRANCH   9  11
ENDBRANCH   6   9
BRANCH   1  19
ATOM     19  O   LIG    1        4.007   3.123  -0.008  0.00  0.00    -0.489 OA
BRANCH  19  20
ATOM     20  C   LIG    1        5.317   3.694  -0.012  0.00  0.00    +0.258 C 
BRANCH  20  21
ATOM     21  C   LIG    1        6.361   2.575  -0.022  0.00  0.00    +0.135 C 
BRANCH  21  22
ATOM     22  O   LIG    1        6.276   1.833   1.195  0.00  0.00    -0.390 OA
ATOM     23  H   LIG    1        6.432   2.361   1.990  0.00  0.00    +0.210 HD
ENDBRANCH  21  22
BRANCH  21  24
ATOM     24  C   LIG    1        7.759   3.184  -0.152  0.00  0.00    -0.048 C 
BRANCH  24  25
ATOM     25  N   LIG    1        8.748   2.098  -0.283  0.00  0.00    +0.381 N 
ATOM     26  H   LIG    1        8.532   1.541  -1.117  0.00  0.00    -0.086 HD
ATOM     27  H   LIG    1        8.705   1.498   0.550  0.00  0.00    -0.086 HD
BRANCH  25  28
ATOM     28  C   LIG    1       10.108   2.656  -0.409  0.00  0.00    -0.083 C 
BRANCH  28  30
ATOM     29  C   LIG    1       12.524   2.080  -0.675  0.00  0.00    +0.002 C 
ATOM     30  C   LIG    1       11.111   1.509  -0.543  0.00  0.00    -0.022 C 
ENDBRANCH  28  30
ENDBRANCH  25  28
ENDBRANCH  24  25
ENDBRANCH  21  24
ENDBRANCH  20  21
ENDBRANCH  19  20
ENDBRANCH   1  19
TORSDOF 13
