REMARK  Name = ZINC05765028
REMARK                            x       y       z     vdW  Elec       q    Type
REMARK                         _______ _______ _______ _____ _____    ______ ____
ROOT
ATOM      1  C   LIG    1       -2.512  -0.067   0.025  0.00  0.00    +0.066 C 
ATOM      2  C   LIG    1       -1.173  -0.758   0.009  0.00  0.00    +0.047 A 
ATOM      3  C   LIG    1        0.002  -0.004   0.002  0.00  0.00    +0.020 A 
ATOM      4  C   LIG    1       -0.018   1.458   0.010  0.00  0.00    +0.017 A 
ATOM      5  C   LIG    1        1.167   2.119   0.002  0.00  0.00    +0.071 A 
ATOM      6  C   LIG    1        2.383   1.402  -0.015  0.00  0.00    +0.249 A 
ATOM      7  N   LIG    1        2.410   0.057  -0.021  0.00  0.00    -0.322 N 
ATOM      8  H   LIG    1        3.373  -0.474  -0.033  0.00  0.00    +0.169 HD
ATOM      9  O   LIG    1        3.435   2.017  -0.022  0.00  0.00    -0.268 OA
ATOM     10  C   LIG    1        1.245  -0.670  -0.013  0.00  0.00    +0.052 A 
ATOM     11  C   LIG    1        1.246  -2.064  -0.021  0.00  0.00    +0.046 A 
ATOM     12  C   LIG    1        0.038  -2.728  -0.013  0.00  0.00    +0.113 A 
ATOM     13  N   LIG    1       -1.111  -2.074   0.001  0.00  0.00    -0.259 NA
ENDROOT
TORSDOF 0
