REMARK  Name = ZINC04851577
REMARK                            x       y       z     vdW  Elec       q    Type
REMARK                         _______ _______ _______ _____ _____    ______ ____
ROOT
ATOM      1  N   LIG    1        4.378  -1.079   1.536  0.00  0.00    -0.192 N 
ENDROOT
BRANCH   1   2
ATOM      2  C   LIG    1        5.241  -0.180   2.167  0.00  0.00    +0.054 A 
ATOM      3  C   LIG    1        4.914   0.340   3.413  0.00  0.00    +0.025 A 
ATOM      4  C   LIG    1        5.770   1.228   4.035  0.00  0.00    +0.004 A 
ATOM      5  C   LIG    1        6.951   1.599   3.418  0.00  0.00    +0.033 A 
ATOM      6  C   LIG    1        7.278   1.084   2.178  0.00  0.00    +0.123 A 
ATOM      7  C   LIG    1        6.430   0.191   1.553  0.00  0.00    +0.057 A 
BRANCH   6   8
ATOM      8  N   LIG    1        8.543   1.486   1.522  0.00  0.00    +0.006 N 
ATOM      9  O   LIG    1        9.288   2.263   2.070  0.00  0.00    -0.130 OA
BRANCH   8  10
ATOM     10  O   LIG    1        8.830   1.035   0.437  0.00  0.00    -0.396 OA
ATOM     11  H   LIG    1        8.252   0.433   0.012  0.00  0.00    +0.329 HD
ENDBRANCH   8  10
ENDBRANCH   6   8
ENDBRANCH   1   2
BRANCH   1  12
ATOM     12  S   LIG    1        3.741  -0.711   0.052  0.00  0.00    +0.075 S 
ATOM     13  O   LIG    1        4.554   0.317  -0.496  0.00  0.00    -0.150 OA
ATOM     14  O   LIG    1        3.524  -1.947  -0.615  0.00  0.00    -0.150 OA
BRANCH  12  18
ATOM     15  C   LIG    1       -0.343   1.109   0.759  0.00  0.00    +0.000 A 
ATOM     16  C   LIG    1        0.776   1.920   0.709  0.00  0.00    +0.002 A 
ATOM     17  C   LIG    1        2.023   1.364   0.493  0.00  0.00    +0.029 A 
ATOM     18  C   LIG    1        2.151  -0.003   0.328  0.00  0.00    +0.109 A 
ATOM     19  C   LIG    1        1.033  -0.813   0.379  0.00  0.00    +0.029 A 
ATOM     20  C   LIG    1       -0.215  -0.257   0.593  0.00  0.00    +0.002 A 
ENDBRANCH  12  18
ENDBRANCH   1  12
BRANCH   1  21
ATOM     21  C   LIG    1        4.036  -2.346   2.186  0.00  0.00    +0.251 C 
BRANCH  21  22
ATOM     22  C   LIG    1        5.096  -3.371   1.877  0.00  0.00    +0.324 C 
ATOM     23  O   LIG    1        6.049  -3.071   1.178  0.00  0.00    -0.249 OA
BRANCH  22  24
ATOM     24  O   LIG    1        5.001  -4.501   2.326  0.00  0.00    -0.479 OA
ATOM     25  H   LIG    1        4.269  -4.732   2.863  0.00  0.00    +0.295 HD
ENDBRANCH  22  24
ENDBRANCH  21  22
ENDBRANCH   1  21
TORSDOF 8
