REMARK  Name = ZINC05613247
REMARK                            x       y       z     vdW  Elec       q    Type
REMARK                         _______ _______ _______ _____ _____    ______ ____
ROOT
ATOM      1  C   LIG    1        3.424  -2.847  -0.047  0.00  0.00    +0.111 C 
ATOM      2  C   LIG    1        4.432  -1.726  -0.050  0.00  0.00    +0.232 C 
ATOM      3  N   LIG    1        4.015  -0.445  -0.039  0.00  0.00    -0.185 N 
ATOM      4  C   LIG    1        4.888   0.740  -0.041  0.00  0.00    +0.137 C 
ATOM      5  C   LIG    1        3.897   1.920  -0.031  0.00  0.00    +0.087 C 
ATOM      6  C   LIG    1        2.539   1.256  -0.015  0.00  0.00    +0.076 C 
ATOM      7  N   LIG    1        2.686  -0.025  -0.024  0.00  0.00    -0.181 NA
ATOM      8  O   LIG    1        5.618  -1.978  -0.063  0.00  0.00    -0.274 OA
ENDROOT
BRANCH   6   9
ATOM      9  C   LIG    1        1.249   1.963   0.001  0.00  0.00    +0.083 A 
ATOM     10  C   LIG    1        1.203   3.344   0.008  0.00  0.00    +0.028 A 
ATOM     11  C   LIG    1       -0.064   3.985   0.023  0.00  0.00    +0.018 A 
ATOM     12  C   LIG    1       -0.146   5.385   0.031  0.00  0.00    +0.011 A 
ATOM     13  C   LIG    1       -1.368   5.994   0.046  0.00  0.00    +0.001 A 
ATOM     14  C   LIG    1       -2.531   5.238   0.053  0.00  0.00    +0.004 A 
ATOM     15  C   LIG    1       -2.473   3.860   0.045  0.00  0.00    +0.047 A 
ATOM     16  C   LIG    1       -1.241   3.216   0.030  0.00  0.00    +0.139 A 
ATOM     17  O   LIG    1       -1.187   1.867   0.018  0.00  0.00    -0.422 OA
ATOM     18  C   LIG    1       -0.014   1.213   0.009  0.00  0.00    +0.346 A 
ATOM     19  O   LIG    1        0.002  -0.004   0.002  0.00  0.00    -0.244 OA
ENDBRANCH   6   9
BRANCH   4  20
ATOM     20  C   LIG    1        5.733   0.773  -1.289  0.00  0.00    -0.025 A 
ATOM     21  C   LIG    1        5.195   0.378  -2.499  0.00  0.00    +0.005 A 
ATOM     22  C   LIG    1        5.968   0.413  -3.644  0.00  0.00    +0.000 A 
ATOM     23  C   LIG    1        7.283   0.835  -3.577  0.00  0.00    +0.000 A 
ATOM     24  C   LIG    1        7.823   1.226  -2.366  0.00  0.00    +0.000 A 
ATOM     25  C   LIG    1        7.048   1.195  -1.222  0.00  0.00    +0.005 A 
ENDBRANCH   4  20
TORSDOF 2
