REMARK  Name = ZINC05509004
REMARK                            x       y       z     vdW  Elec       q    Type
REMARK                         _______ _______ _______ _____ _____    ______ ____
ROOT
ATOM      1  C   LIG    1       -7.428   3.784   0.090  0.00  0.00    +0.050 C 
ENDROOT
BRANCH   1   5
ATOM      2  C   LIG    1       -8.174   5.834  -3.583  0.00  0.00    +0.000 A 
ATOM      3  C   LIG    1       -7.360   4.717  -3.568  0.00  0.00    +0.000 A 
ATOM      4  C   LIG    1       -7.118   4.054  -2.380  0.00  0.00    +0.004 A 
ATOM      5  C   LIG    1       -7.691   4.507  -1.206  0.00  0.00    -0.040 A 
ATOM      6  C   LIG    1       -8.510   5.621  -1.222  0.00  0.00    +0.004 A 
ATOM      7  C   LIG    1       -8.748   6.287  -2.410  0.00  0.00    +0.000 A 
ENDBRANCH   1   5
BRANCH   1   8
ATOM      8  C   LIG    1       -8.076   2.424   0.046  0.00  0.00    -0.040 A 
ATOM      9  C   LIG    1       -7.597   1.458  -0.819  0.00  0.00    +0.004 A 
ATOM     10  C   LIG    1       -8.188   0.209  -0.855  0.00  0.00    +0.000 A 
ATOM     11  C   LIG    1       -9.264  -0.071  -0.034  0.00  0.00    +0.000 A 
ATOM     12  C   LIG    1       -9.747   0.897   0.827  0.00  0.00    +0.000 A 
ATOM     13  C   LIG    1       -9.152   2.145   0.867  0.00  0.00    +0.004 A 
ENDBRANCH   1   8
BRANCH   1  14
ATOM     14  C   LIG    1       -5.920   3.624   0.287  0.00  0.00    +0.031 C 
BRANCH  14  15
ATOM     15  C   LIG    1       -5.278   5.003   0.456  0.00  0.00    +0.105 C 
BRANCH  15  16
ATOM     16  N   LIG    1       -3.834   4.850   0.645  0.00  0.00    -0.311 N 
ATOM     17  H   LIG    1       -3.436   3.966   0.648  0.00  0.00    +0.149 HD
ATOM     18  C   LIG    1       -3.058   5.939   0.816  0.00  0.00    +0.244 C 
ATOM     19  O   LIG    1       -3.556   7.047   0.812  0.00  0.00    -0.270 OA
BRANCH  18  20
ATOM     20  C   LIG    1       -1.597   5.784   1.007  0.00  0.00    +0.040 A 
ATOM     21  C   LIG    1       -1.002   4.519   1.009  0.00  0.00    +0.033 A 
ATOM     22  C   LIG    1        0.363   4.420   1.196  0.00  0.00    +0.111 A 
ATOM     23  N   LIG    1        1.103   5.498   1.360  0.00  0.00    -0.263 NA
ATOM     24  C   LIG    1        0.584   6.710   1.361  0.00  0.00    +0.111 A 
ATOM     25  C   LIG    1       -0.773   6.900   1.186  0.00  0.00    +0.033 A 
ENDBRANCH  18  20
ENDBRANCH  15  16
ENDBRANCH  14  15
ENDBRANCH   1  14
TORSDOF 6
