REMARK  Name = ZINC04983565
REMARK                            x       y       z     vdW  Elec       q    Type
REMARK                         _______ _______ _______ _____ _____    ______ ____
ROOT
ATOM      1  C   LIG    1       -2.880   6.588  -3.255  0.00  0.00    +0.014 C 
ATOM      2  C   LIG    1       -2.884   7.435  -1.979  0.00  0.00    -0.003 C 
ATOM      3  C   LIG    1       -1.516   8.005  -1.706  0.00  0.00    +0.010 C 
ATOM      4  C   LIG    1       -0.741   7.117  -0.714  0.00  0.00    +0.005 C 
ATOM      5  C   LIG    1       -1.173   5.668  -0.874  0.00  0.00    +0.002 C 
ATOM      6  C   LIG    1       -2.601   5.496  -0.370  0.00  0.00    -0.003 C 
ATOM      7  C   LIG    1       -3.115   4.135  -0.823  0.00  0.00    +0.008 C 
ATOM      8  C   LIG    1       -2.334   3.091  -0.021  0.00  0.00    +0.032 C 
ATOM      9  C   LIG    1       -0.837   3.287  -0.173  0.00  0.00    -0.058 C 
ATOM     10  C   LIG    1       -0.152   2.166  -0.226  0.00  0.00    +0.067 C 
ATOM     11  C   LIG    1        1.219   1.819  -0.390  0.00  0.00    +0.237 C 
ATOM     12  N   LIG    1        2.289   2.586  -0.529  0.00  0.00    -0.312 N 
ATOM     13  H   LIG    1        3.144   2.149  -0.672  0.00  0.00    +0.149 HD
ATOM     14  C   LIG    1        2.269   4.025  -0.489  0.00  0.00    +0.105 C 
ATOM     15  C   LIG    1        1.050   4.650  -1.079  0.00  0.00    +0.030 C 
ATOM     16  O   LIG    1        1.444   0.623  -0.410  0.00  0.00    -0.271 OA
ATOM     17  C   LIG    1       -0.220   4.649  -0.269  0.00  0.00    -0.006 C 
ATOM     18  C   LIG    1        0.104   5.104   1.146  0.00  0.00    +0.016 C 
ATOM     19  C   LIG    1       -3.992   8.497  -2.166  0.00  0.00    +0.121 C 
ATOM     20  C   LIG    1       -5.300   7.705  -1.918  0.00  0.00    +0.032 C 
ATOM     21  C   LIG    1       -4.888   6.386  -1.205  0.00  0.00    +0.007 C 
ATOM     22  C   LIG    1       -3.443   6.668  -0.765  0.00  0.00    +0.001 C 
ENDROOT
BRANCH  19  23
ATOM     23  O   LIG    1       -3.953   9.002  -3.498  0.00  0.00    -0.391 OA
ATOM     24  H   LIG    1       -4.623   9.674  -3.683  0.00  0.00    +0.210 HD
ENDBRANCH  19  23
TORSDOF 1
