REMARK  Name = ZINC05187204
REMARK                            x       y       z     vdW  Elec       q    Type
REMARK                         _______ _______ _______ _____ _____    ______ ____
ROOT
ATOM      1  C   LIG    1       -2.487   1.516   0.023  0.00  0.00    +0.111 C 
ATOM      2  C   LIG    1       -1.124   2.158   0.019  0.00  0.00    +0.232 C 
ATOM      3  N   LIG    1       -0.017   1.389   0.010  0.00  0.00    -0.185 N 
ATOM      4  C   LIG    1        1.369   1.884  -0.001  0.00  0.00    +0.137 C 
ATOM      5  C   LIG    1        2.213   0.594  -0.016  0.00  0.00    +0.087 C 
ATOM      6  C   LIG    1        1.185  -0.514  -0.012  0.00  0.00    +0.069 C 
ATOM      7  N   LIG    1        0.002  -0.004   0.002  0.00  0.00    -0.181 NA
ATOM      8  O   LIG    1       -1.022   3.367   0.025  0.00  0.00    -0.274 OA
ENDROOT
BRANCH   4   9
ATOM      9  C   LIG    1        1.630   2.703  -1.238  0.00  0.00    -0.025 A 
ATOM     10  C   LIG    1        1.091   2.315  -2.451  0.00  0.00    +0.007 A 
ATOM     11  C   LIG    1        1.325   3.069  -3.585  0.00  0.00    +0.020 A 
ATOM     12  C   LIG    1        2.110   4.206  -3.509  0.00  0.00    +0.041 A 
ATOM     13 CL   LIG    1        2.410   5.150  -4.935  0.00  0.00    -0.084 Cl
ATOM     14  C   LIG    1        2.655   4.591  -2.297  0.00  0.00    +0.020 A 
ATOM     15  C   LIG    1        2.414   3.839  -1.162  0.00  0.00    +0.007 A 
ENDBRANCH   4   9
BRANCH   6  16
ATOM     16  C   LIG    1        1.489  -1.958  -0.022  0.00  0.00    -0.002 A 
ATOM     17  C   LIG    1        2.815  -2.395  -0.043  0.00  0.00    +0.010 A 
ATOM     18  C   LIG    1        3.092  -3.746  -0.047  0.00  0.00    +0.001 A 
ATOM     19  C   LIG    1        2.059  -4.668  -0.042  0.00  0.00    +0.000 A 
ATOM     20  C   LIG    1        0.743  -4.241  -0.028  0.00  0.00    +0.001 A 
ATOM     21  C   LIG    1        0.451  -2.893  -0.017  0.00  0.00    +0.010 A 
ENDBRANCH   6  16
TORSDOF 2
