REMARK  Name = ZINC05727907
REMARK                            x       y       z     vdW  Elec       q    Type
REMARK                         _______ _______ _______ _____ _____    ______ ____
ROOT
ATOM      1  N   LIG    1        4.516  -0.593   2.873  0.00  0.00    -0.194 NA
ATOM      2  H   LIG    1        5.201  -1.273   2.782  0.00  0.00    +0.148 HD
ENDROOT
BRANCH   1   3
ATOM      3  S   LIG    1        2.917  -1.021   2.863  0.00  0.00    +0.030 S 
ATOM      4  O   LIG    1        2.921  -2.436   2.733  0.00  0.00    -0.158 OA
ATOM      5  O   LIG    1        2.368  -0.402   4.019  0.00  0.00    -0.158 OA
BRANCH   3   6
ATOM      6  C   LIG    1        2.238  -0.258   1.364  0.00  0.00    +0.200 C 
BRANCH   6  16
ATOM      7  C   LIG    1       -0.019   1.526   0.010  0.00  0.00    +0.012 C 
ATOM      8  C   LIG    1        0.002  -0.004   0.002  0.00  0.00    -0.018 C 
ATOM      9  C   LIG    1        0.557  -0.556  -1.312  0.00  0.00    +0.012 C 
ATOM     10  C   LIG    1       -1.400  -0.616   0.356  0.00  0.00    +0.003 C 
ATOM     11  C   LIG    1       -1.029  -2.124   0.492  0.00  0.00    +0.005 C 
ATOM     12  C   LIG    1        0.399  -2.119   1.085  0.00  0.00    +0.017 C 
ATOM     13  C   LIG    1       -1.563  -0.104   1.820  0.00  0.00    +0.079 C 
ATOM     14  C   LIG    1       -0.152  -0.089   2.388  0.00  0.00    +0.142 C 
ATOM     15  O   LIG    1        0.188   0.246   3.498  0.00  0.00    -0.297 OA
ATOM     16  C   LIG    1        0.749  -0.591   1.251  0.00  0.00    +0.055 C 
ENDBRANCH   6  16
ENDBRANCH   3   6
ENDBRANCH   1   3
BRANCH   1  17
ATOM     17  C   LIG    1        4.896   0.815   3.018  0.00  0.00    +0.110 C 
BRANCH  17  18
ATOM     18  C   LIG    1        6.383   0.907   3.369  0.00  0.00    +0.052 C 
BRANCH  18  19
ATOM     19  C   LIG    1        6.774   2.355   3.518  0.00  0.00    -0.046 A 
ATOM     20  C   LIG    1        7.220   3.067   2.421  0.00  0.00    +0.005 A 
ATOM     21  C   LIG    1        7.579   4.395   2.558  0.00  0.00    +0.029 A 
ATOM     22  C   LIG    1        7.491   5.011   3.793  0.00  0.00    +0.105 A 
ATOM     23  C   LIG    1        7.044   4.299   4.890  0.00  0.00    +0.029 A 
ATOM     24  C   LIG    1        6.681   2.972   4.752  0.00  0.00    +0.005 A 
BRANCH  22  25
ATOM     25  S   LIG    1        7.950   6.703   3.968  0.00  0.00    +0.056 S 
ATOM     26  O   LIG    1        8.851   6.992   2.908  0.00  0.00    -0.153 OA
ATOM     27  O   LIG    1        8.295   6.891   5.334  0.00  0.00    -0.153 OA
BRANCH  25  28
ATOM     28  N   LIG    1        6.591   7.610   3.694  0.00  0.00    -0.204 NA
ATOM     29  H   LIG    1        6.636   8.577   3.744  0.00  0.00    +0.144 HD
ATOM     30  H   LIG    1        5.751   7.173   3.483  0.00  0.00    +0.144 HD
ENDBRANCH  25  28
ENDBRANCH  22  25
ENDBRANCH  18  19
ENDBRANCH  17  18
ENDBRANCH   1  17
TORSDOF 8
