REMARK  Name = ZINC05160057
REMARK                            x       y       z     vdW  Elec       q    Type
REMARK                         _______ _______ _______ _____ _____    ______ ____
ROOT
ATOM      1  C   LIG    1        7.854   1.103   2.162  0.00  0.00    +0.109 C 
ATOM      2  C   LIG    1        7.121   2.156   1.372  0.00  0.00    +0.213 C 
ATOM      3  N   LIG    1        6.208   2.940   1.978  0.00  0.00    -0.288 N 
ATOM      4  C   LIG    1        5.837   2.709   3.381  0.00  0.00    +0.109 C 
ATOM      5  C   LIG    1        6.013   4.017   4.159  0.00  0.00    +0.019 C 
ATOM      6  C   LIG    1        5.214   5.127   3.472  0.00  0.00    +0.004 C 
ATOM      7  C   LIG    1        5.744   5.335   2.052  0.00  0.00    +0.036 C 
ATOM      8  C   LIG    1        5.565   4.042   1.250  0.00  0.00    +0.151 C 
ATOM      9  O   LIG    1        7.354   2.299   0.190  0.00  0.00    -0.276 OA
ENDROOT
BRANCH   8  10
ATOM     10  C   LIG    1        4.130   3.756   1.089  0.00  0.00    -0.082 C 
ATOM     11  C   LIG    1        2.985   3.528   0.961  0.00  0.00    -0.119 C 
BRANCH  11  12
ATOM     12  C   LIG    1        1.550   3.241   0.800  0.00  0.00    +0.012 C 
BRANCH  12  13
ATOM     13  N   LIG    1        1.378   1.974   0.029  0.00  0.00    +0.387 N 
ATOM     14  H   LIG    1        1.680   2.126  -0.941  0.00  0.00    -0.080 HD
ATOM     15  C   LIG    1        2.168   0.893   0.629  0.00  0.00    -0.078 C 
ATOM     16  C   LIG    1        1.484  -0.375   0.057  0.00  0.00    -0.020 C 
ATOM     17  C   LIG    1       -0.012   0.013   0.048  0.00  0.00    -0.020 C 
ATOM     18  C   LIG    1       -0.028   1.553   0.051  0.00  0.00    -0.078 C 
ENDBRANCH  12  13
ENDBRANCH  11  12
ENDBRANCH   8  10
TORSDOF 3
