REMARK  Name = ZINC04899446
REMARK                            x       y       z     vdW  Elec       q    Type
REMARK                         _______ _______ _______ _____ _____    ______ ____
ROOT
ATOM      1  C   LIG    1        4.865   0.503  -0.028  0.00  0.00    +0.159 C 
ENDROOT
BRANCH   1   2
ATOM      2  N   LIG    1        6.186   1.129  -0.129  0.00  0.00    -0.305 N 
ATOM      3  H   LIG    1        6.323   2.030   0.204  0.00  0.00    +0.149 HD
ATOM      4  C   LIG    1        7.211   0.453  -0.685  0.00  0.00    +0.200 C 
ATOM      5  O   LIG    1        7.020  -0.636  -1.183  0.00  0.00    -0.278 OA
BRANCH   4   6
ATOM      6  C   LIG    1        8.595   1.051  -0.687  0.00  0.00    +0.016 C 
ATOM      7  N   LIG    1        9.595   0.000  -0.929  0.00  0.00    +0.387 N 
ATOM      8  H   LIG    1       10.259  -0.030  -0.145  0.00  0.00    -0.085 HD
ATOM      9  H   LIG    1        9.126  -0.909  -1.015  0.00  0.00    -0.085 HD
ATOM     10  C   LIG    1       10.318   0.305  -2.178  0.00  0.00    -0.082 C 
ATOM     11  C   LIG    1       10.168   1.837  -2.352  0.00  0.00    -0.020 C 
ATOM     12  C   LIG    1        8.724   2.071  -1.838  0.00  0.00    -0.009 C 
ENDBRANCH   4   6
ENDBRANCH   1   2
BRANCH   1  13
ATOM     13  C   LIG    1        3.800   1.569  -0.065  0.00  0.00    +0.234 C 
ATOM     14  N   LIG    1        2.501   1.221  -0.135  0.00  0.00    -0.305 N 
ATOM     15  H   LIG    1        2.252   0.287  -0.218  0.00  0.00    +0.149 HD
ATOM     16  O   LIG    1        4.114   2.740  -0.032  0.00  0.00    -0.274 OA
BRANCH  14  17
ATOM     17  C   LIG    1        1.462   2.253  -0.085  0.00  0.00    +0.199 C 
BRANCH  17  18
ATOM     18  C   LIG    1        0.105   1.605  -0.180  0.00  0.00    +0.228 C 
ATOM     19  N   LIG    1       -1.008   2.365  -0.160  0.00  0.00    -0.328 N 
ATOM     20  H   LIG    1       -0.935   3.329  -0.080  0.00  0.00    +0.145 HD
ATOM     21  H   LIG    1       -1.881   1.948  -0.226  0.00  0.00    +0.145 HD
ATOM     22  O   LIG    1        0.014   0.399  -0.281  0.00  0.00    -0.274 OA
ENDBRANCH  17  18
ENDBRANCH  14  17
ENDBRANCH   1  13
BRANCH   1  23
ATOM     23  C   LIG    1        4.767  -0.270   1.289  0.00  0.00    +0.034 C 
BRANCH  23  25
ATOM     24  C   LIG    1        3.508  -2.163   0.252  0.00  0.00    +0.007 C 
ATOM     25  C   LIG    1        3.460  -1.065   1.317  0.00  0.00    -0.015 C 
ATOM     26  C   LIG    1        3.278  -1.700   2.697  0.00  0.00    +0.007 C 
ENDBRANCH  23  25
ENDBRANCH   1  23
TORSDOF 7
