REMARK  Name = ZINC05676460
REMARK                            x       y       z     vdW  Elec       q    Type
REMARK                         _______ _______ _______ _____ _____    ______ ____
ROOT
ATOM      1  N   LIG    1       -2.865  -2.306   0.017  0.00  0.00    -0.266 N 
ATOM      2  H   LIG    1       -3.609  -1.689   0.104  0.00  0.00    +0.156 HD
ATOM      3  C   LIG    1       -1.601  -1.839   0.003  0.00  0.00    +0.304 C 
ATOM      4  N   LIG    1       -1.373  -0.511  -0.005  0.00  0.00    -0.294 N 
ATOM      5  H   LIG    1       -2.119   0.109  -0.001  0.00  0.00    +0.151 HD
ATOM      6  O   LIG    1       -0.666  -2.616  -0.003  0.00  0.00    -0.252 OA
ENDROOT
BRANCH   4   7
ATOM      7  C   LIG    1        0.001  -0.003  -0.021  0.00  0.00    +0.037 C 
ATOM      8  C   LIG    1       -0.020   1.527  -0.027  0.00  0.00    +0.029 C 
ATOM      9  C   LIG    1        1.415   2.057  -0.043  0.00  0.00    -0.008 C 
ATOM     10  C   LIG    1        2.155   1.562   1.201  0.00  0.00    +0.007 C 
ATOM     11  C   LIG    1        2.176   0.033   1.208  0.00  0.00    -0.008 C 
ATOM     12  C   LIG    1        2.893  -0.473  -0.046  0.00  0.00    +0.007 C 
ATOM     13  C   LIG    1        2.153   0.021  -1.290  0.00  0.00    -0.008 C 
ATOM     14  C   LIG    1        2.131   1.551  -1.297  0.00  0.00    +0.007 C 
ATOM     15  C   LIG    1        0.717  -0.508  -1.274  0.00  0.00    +0.029 C 
ATOM     16  C   LIG    1        0.741  -0.498   1.224  0.00  0.00    +0.029 C 
ENDBRANCH   4   7
BRANCH   1  22
ATOM     17  C   LIG    1       -4.282  -4.229   0.412  0.00  0.00    +0.141 A 
ATOM     18  C   LIG    1       -4.514  -5.590   0.299  0.00  0.00    +0.047 A 
ATOM     19  C   LIG    1       -3.579  -6.403  -0.315  0.00  0.00    +0.004 A 
ATOM     20  C   LIG    1       -2.410  -5.861  -0.817  0.00  0.00    +0.002 A 
ATOM     21  C   LIG    1       -2.173  -4.503  -0.712  0.00  0.00    +0.027 A 
ATOM     22  C   LIG    1       -3.105  -3.683  -0.094  0.00  0.00    +0.077 A 
BRANCH  17  24
ATOM     23  C   LIG    1       -6.385  -4.058   1.509  0.00  0.00    +0.277 C 
ATOM     24  O   LIG    1       -5.202  -3.428   1.014  0.00  0.00    -0.493 OA
ENDBRANCH  17  24
ENDBRANCH   1  22
TORSDOF 3
