REMARK  Name = ZINC04982098
REMARK                            x       y       z     vdW  Elec       q    Type
REMARK                         _______ _______ _______ _____ _____    ______ ____
ROOT
ATOM      1  N   LIG    1       -1.413  -1.998   0.005  0.00  0.00    -0.313 N 
ATOM      2  C   LIG    1       -1.408  -2.776  -1.110  0.00  0.00    +0.068 A 
ATOM      3  C   LIG    1       -1.419  -2.492  -2.478  0.00  0.00    +0.028 A 
ATOM      4  C   LIG    1       -1.410  -3.523  -3.390  0.00  0.00    +0.002 A 
ATOM      5  C   LIG    1       -1.389  -4.842  -2.962  0.00  0.00    +0.002 A 
ATOM      6  C   LIG    1       -1.379  -5.139  -1.615  0.00  0.00    +0.028 A 
ATOM      7  C   LIG    1       -1.387  -4.113  -0.682  0.00  0.00    +0.069 A 
ATOM      8  N   LIG    1       -1.381  -4.074   0.703  0.00  0.00    -0.306 N 
ATOM      9  C   LIG    1       -1.393  -2.759   1.071  0.00  0.00    +0.175 A 
ENDROOT
BRANCH   9  10
ATOM     10  N   LIG    1       -1.386  -2.300   2.371  0.00  0.00    -0.330 N 
ATOM     11  H   LIG    1       -1.370  -2.931   3.108  0.00  0.00    +0.145 HD
ATOM     12  H   LIG    1       -1.398  -1.347   2.549  0.00  0.00    +0.145 HD
ENDBRANCH   9  10
BRANCH   1  13
ATOM     13  C   LIG    1       -1.433  -0.534   0.013  0.00  0.00    +0.125 C 
BRANCH  13  15
ATOM     14  C   LIG    1       -0.019   1.526   0.010  0.00  0.00    +0.005 C 
ATOM     15  C   LIG    1        0.002  -0.004   0.002  0.00  0.00    +0.018 C 
ENDBRANCH  13  15
ENDBRANCH   1  13
BRANCH   8  16
ATOM     16  C   LIG    1       -1.361  -5.228   1.605  0.00  0.00    +0.204 C 
BRANCH  16  17
ATOM     17  C   LIG    1        0.067  -5.604   1.907  0.00  0.00    +0.183 C 
ATOM     18  O   LIG    1        0.977  -4.971   1.418  0.00  0.00    -0.290 OA
BRANCH  17  19
ATOM     19  C   LIG    1        0.356  -6.740   2.796  0.00  0.00    +0.019 A 
ATOM     20  C   LIG    1       -0.693  -7.477   3.358  0.00  0.00    +0.013 A 
ATOM     21  C   LIG    1       -0.414  -8.540   4.189  0.00  0.00    +0.020 A 
ATOM     22  C   LIG    1        0.899  -8.880   4.470  0.00  0.00    +0.041 A 
ATOM     23 CL   LIG    1        1.240 -10.220   5.519  0.00  0.00    -0.084 Cl
ATOM     24  C   LIG    1        1.943  -8.154   3.917  0.00  0.00    +0.020 A 
ATOM     25  C   LIG    1        1.680  -7.092   3.079  0.00  0.00    +0.013 A 
ENDBRANCH  17  19
ENDBRANCH  16  17
ENDBRANCH   8  16
TORSDOF 6
