REMARK  Name = ZINC04984210
REMARK                            x       y       z     vdW  Elec       q    Type
REMARK                         _______ _______ _______ _____ _____    ______ ____
ROOT
ATOM      1  C   LIG    1        2.482   1.497  -0.013  0.00  0.00    +0.148 C 
ENDROOT
BRANCH   1   5
ATOM      2  C   LIG    1        3.749   3.559  -3.533  0.00  0.00    +0.000 A 
ATOM      3  C   LIG    1        4.575   3.510  -2.426  0.00  0.00    +0.000 A 
ATOM      4  C   LIG    1        4.165   2.843  -1.287  0.00  0.00    +0.006 A 
ATOM      5  C   LIG    1        2.929   2.225  -1.255  0.00  0.00    -0.020 A 
ATOM      6  C   LIG    1        2.105   2.270  -2.364  0.00  0.00    +0.006 A 
ATOM      7  C   LIG    1        2.513   2.942  -3.501  0.00  0.00    +0.000 A 
ENDBRANCH   1   5
BRANCH   1   8
ATOM      8  C   LIG    1        2.961   2.242   1.206  0.00  0.00    -0.020 A 
ATOM      9  C   LIG    1        2.680   3.588   1.348  0.00  0.00    +0.006 A 
ATOM     10  C   LIG    1        3.115   4.271   2.469  0.00  0.00    +0.000 A 
ATOM     11  C   LIG    1        3.841   3.610   3.442  0.00  0.00    +0.000 A 
ATOM     12  C   LIG    1        4.127   2.265   3.297  0.00  0.00    +0.000 A 
ATOM     13  C   LIG    1        3.687   1.581   2.179  0.00  0.00    +0.006 A 
ENDBRANCH   1   8
BRANCH   1  14
ATOM     14  N   LIG    1        1.019   1.418   0.007  0.00  0.00    -0.325 N 
ATOM     15  C   LIG    1        0.268   0.274   0.025  0.00  0.00    +0.107 A 
ATOM     16  C   LIG    1       -1.024   0.656   0.034  0.00  0.00    +0.130 A 
ATOM     17  N   LIG    1       -1.060   1.997   0.030  0.00  0.00    -0.244 NA
ATOM     18  C   LIG    1        0.160   2.460   0.011  0.00  0.00    +0.200 A 
ENDBRANCH   1  14
TORSDOF 3
