REMARK  Name = ZINC05646855
REMARK                            x       y       z     vdW  Elec       q    Type
REMARK                         _______ _______ _______ _____ _____    ______ ____
ROOT
ATOM      1  C   LIG    1        3.759  -0.470  -0.183  0.00  0.00    +0.024 A 
ATOM      2  C   LIG    1        4.095  -1.236  -1.325  0.00  0.00    +0.072 A 
ATOM      3  C   LIG    1        3.431  -1.663  -2.466  0.00  0.00    +0.132 A 
ATOM      4  N   LIG    1        4.302  -2.378  -3.199  0.00  0.00    -0.261 N 
ATOM      5  N   LIG    1        5.542  -2.429  -2.551  0.00  0.00    -0.150 NA
ATOM      6  H   LIG    1        4.101  -2.797  -4.050  0.00  0.00    +0.190 HD
ATOM      7  C   LIG    1        5.470  -1.757  -1.419  0.00  0.00    +0.205 A 
ATOM      8  N   LIG    1        6.329  -1.480  -0.424  0.00  0.00    -0.127 NA
ATOM      9  N   LIG    1        5.983  -0.781   0.594  0.00  0.00    -0.147 NA
ATOM     10  C   LIG    1        4.767  -0.263   0.766  0.00  0.00    +0.102 A 
ENDROOT
BRANCH   1  14
ATOM     11  C   LIG    1       -0.134   1.149   0.333  0.00  0.00    +0.000 A 
ATOM     12  C   LIG    1        0.941   1.995   0.126  0.00  0.00    +0.001 A 
ATOM     13  C   LIG    1        2.208   1.476  -0.042  0.00  0.00    +0.008 A 
ATOM     14  C   LIG    1        2.404   0.094  -0.003  0.00  0.00    -0.015 A 
ATOM     15  C   LIG    1        1.314  -0.753   0.207  0.00  0.00    +0.008 A 
ATOM     16  C   LIG    1        0.053  -0.221   0.373  0.00  0.00    +0.001 A 
ENDBRANCH   1  14
BRANCH   3  17
ATOM     17  N   LIG    1        2.107  -1.400  -2.792  0.00  0.00    -0.254 N 
ATOM     18  H   LIG    1        1.556  -0.871  -2.194  0.00  0.00    +0.158 HD
ATOM     19  C   LIG    1        1.587  -1.880  -3.939  0.00  0.00    +0.309 C 
ATOM     20  N   LIG    1        0.302  -1.625  -4.255  0.00  0.00    -0.269 N 
ATOM     21  H   LIG    1       -0.228  -1.038  -3.694  0.00  0.00    +0.156 HD
ATOM     22  O   LIG    1        2.278  -2.543  -4.689  0.00  0.00    -0.252 OA
BRANCH  20  23
ATOM     23  C   LIG    1       -0.266  -2.205  -5.394  0.00  0.00    +0.035 A 
ATOM     24  C   LIG    1       -1.228  -1.515  -6.121  0.00  0.00    +0.023 A 
ATOM     25  C   LIG    1       -1.788  -2.091  -7.245  0.00  0.00    +0.002 A 
ATOM     26  C   LIG    1       -1.391  -3.353  -7.647  0.00  0.00    +0.000 A 
ATOM     27  C   LIG    1       -0.434  -4.043  -6.925  0.00  0.00    +0.002 A 
ATOM     28  C   LIG    1        0.134  -3.470  -5.804  0.00  0.00    +0.023 A 
ENDBRANCH  20  23
ENDBRANCH   3  17
BRANCH  10  29
ATOM     29  C   LIG    1        4.478   0.535   1.979  0.00  0.00    +0.003 A 
ATOM     30  C   LIG    1        3.293   0.330   2.687  0.00  0.00    +0.010 A 
ATOM     31  C   LIG    1        3.029   1.077   3.816  0.00  0.00    +0.001 A 
ATOM     32  C   LIG    1        3.936   2.029   4.247  0.00  0.00    +0.000 A 
ATOM     33  C   LIG    1        5.112   2.238   3.549  0.00  0.00    +0.001 A 
ATOM     34  C   LIG    1        5.391   1.492   2.422  0.00  0.00    +0.010 A 
ENDBRANCH  10  29
TORSDOF 4
