REMARK  Name = ZINC05114634
REMARK                            x       y       z     vdW  Elec       q    Type
REMARK                         _______ _______ _______ _____ _____    ______ ____
ROOT
ATOM      1  C   LIG    1       -2.146   1.019   1.297  0.00  0.00    +0.116 C 
ENDROOT
BRANCH   1   2
ATOM      2  N   LIG    1       -2.934   1.476   0.150  0.00  0.00    -0.332 N 
ATOM      3  C   LIG    1       -3.472   0.690  -0.812  0.00  0.00    +0.118 A 
ATOM      4  C   LIG    1       -4.122   1.518  -1.681  0.00  0.00    +0.119 A 
ATOM      5  N   LIG    1       -3.958   2.786  -1.232  0.00  0.00    -0.342 N 
ATOM      6  H   LIG    1       -4.333   3.630  -1.681  0.00  0.00    +0.167 HD
ATOM      7  C   LIG    1       -3.251   2.764  -0.142  0.00  0.00    +0.174 A 
BRANCH   4   8
ATOM      8  C   LIG    1       -4.862   1.107  -2.887  0.00  0.00    +0.259 C 
ATOM      9  N   LIG    1       -5.456   2.035  -3.662  0.00  0.00    -0.324 N 
ATOM     10  H   LIG    1       -5.943   1.765  -4.456  0.00  0.00    +0.145 HD
ATOM     11  H   LIG    1       -5.397   2.974  -3.426  0.00  0.00    +0.145 HD
ATOM     12  O   LIG    1       -4.936  -0.070  -3.183  0.00  0.00    -0.269 OA
ENDBRANCH   4   8
ENDBRANCH   1   2
BRANCH   1  13
ATOM     13  C   LIG    1       -0.751   1.647   1.240  0.00  0.00    +0.134 C 
ATOM     14  C   LIG    1       -0.036   1.187  -0.032  0.00  0.00    +0.040 C 
BRANCH  13  15
ATOM     15  O   LIG    1        0.002   1.238   2.384  0.00  0.00    -0.390 OA
ATOM     16  H   LIG    1        0.122   0.281   2.454  0.00  0.00    +0.210 HD
ENDBRANCH  13  15
ENDBRANCH   1  13
BRANCH   1  17
ATOM     17  C   LIG    1       -2.841   1.438   2.594  0.00  0.00    +0.028 C 
BRANCH  17  18
ATOM     18  C   LIG    1       -4.179   0.705   2.715  0.00  0.00    +0.002 C 
BRANCH  18  19
ATOM     19  C   LIG    1       -4.912   1.187   3.968  0.00  0.00    +0.000 C 
BRANCH  19  20
ATOM     20  C   LIG    1       -6.250   0.453   4.090  0.00  0.00    -0.000 C 
BRANCH  20  22
ATOM     21  C   LIG    1       -8.321   0.202   5.464  0.00  0.00    +0.004 C 
ATOM     22  C   LIG    1       -6.984   0.935   5.343  0.00  0.00    -0.003 C 
ENDBRANCH  20  22
ENDBRANCH  19  20
ENDBRANCH  18  19
ENDBRANCH  17  18
ENDBRANCH   1  17
TORSDOF 9
