REMARK  Name = ZINC05138927
REMARK                            x       y       z     vdW  Elec       q    Type
REMARK                         _______ _______ _______ _____ _____    ______ ____
ROOT
ATOM      1  C   LIG    1       -0.013   1.076   0.008  0.00  0.00    +0.062 A 
ATOM      2  C   LIG    1       -1.231   1.758   0.017  0.00  0.00    +0.046 A 
ATOM      3  C   LIG    1       -1.247   3.155   0.031  0.00  0.00    +0.062 A 
ATOM      4  C   LIG    1       -0.057   3.859   0.024  0.00  0.00    +0.163 A 
ATOM      5  C   LIG    1        1.157   3.176   0.008  0.00  0.00    +0.201 A 
ATOM      6  C   LIG    1        1.175   1.784   0.000  0.00  0.00    +0.163 A 
ENDROOT
BRANCH   2   7
ATOM      7  C   LIG    1       -2.501   1.005   0.019  0.00  0.00    +0.267 C 
ATOM      8  N   LIG    1       -3.676   1.665   0.028  0.00  0.00    -0.193 N 
ATOM      9  H   LIG    1       -3.688   2.635   0.034  0.00  0.00    +0.183 HD
ATOM     10  O   LIG    1       -2.486  -0.211   0.013  0.00  0.00    -0.268 OA
BRANCH   8  11
ATOM     11  O   LIG    1       -4.894   0.942   0.030  0.00  0.00    -0.295 OA
ATOM     12  H   LIG    1       -5.683   1.501   0.037  0.00  0.00    +0.241 HD
ENDBRANCH   8  11
ENDBRANCH   2   7
BRANCH   4  13
ATOM     13  O   LIG    1       -0.071   5.218   0.032  0.00  0.00    -0.503 OA
ATOM     14  H   LIG    1       -0.084   5.617  -0.849  0.00  0.00    +0.292 HD
ENDBRANCH   4  13
BRANCH   5  15
ATOM     15  O   LIG    1        2.325   3.870   0.001  0.00  0.00    -0.501 OA
ATOM     16  H   LIG    1        2.655   4.075  -0.885  0.00  0.00    +0.292 HD
ENDBRANCH   5  15
BRANCH   6  17
ATOM     17  O   LIG    1        2.361   1.120  -0.015  0.00  0.00    -0.503 OA
ATOM     18  H   LIG    1        2.696   0.933  -0.903  0.00  0.00    +0.292 HD
ENDBRANCH   6  17
TORSDOF 5
