REMARK  Name = ZINC05681580
REMARK                            x       y       z     vdW  Elec       q    Type
REMARK                         _______ _______ _______ _____ _____    ______ ____
ROOT
ATOM      1  S   LIG    1       -0.231  -2.921  -0.013  0.00  0.00    +0.072 S 
ATOM      2  O   LIG    1       -0.871  -2.642  -1.251  0.00  0.00    -0.150 OA
ATOM      3  O   LIG    1       -0.848  -2.657   1.240  0.00  0.00    -0.150 OA
ENDROOT
BRANCH   1   4
ATOM      4  C   LIG    1        0.165  -4.638  -0.027  0.00  0.00    +0.109 A 
ATOM      5  C   LIG    1        0.315  -5.303  -1.230  0.00  0.00    +0.031 A 
ATOM      6  C   LIG    1        0.626  -6.650  -1.241  0.00  0.00    +0.034 A 
ATOM      7  C   LIG    1        0.788  -7.332  -0.050  0.00  0.00    +0.122 A 
ATOM      8  C   LIG    1        0.639  -6.667   1.153  0.00  0.00    +0.034 A 
ATOM      9  C   LIG    1        0.332  -5.319   1.164  0.00  0.00    +0.031 A 
BRANCH   7  10
ATOM     10  N   LIG    1        1.120  -8.774  -0.061  0.00  0.00    +0.006 N 
ATOM     11  O   LIG    1        1.250  -9.356  -1.113  0.00  0.00    -0.130 OA
BRANCH  10  12
ATOM     12  O   LIG    1        1.262  -9.370   0.981  0.00  0.00    -0.396 OA
ATOM     13  H   LIG    1        1.161  -8.920   1.796  0.00  0.00    +0.329 HD
ENDBRANCH  10  12
ENDBRANCH   7  10
ENDBRANCH   1   4
BRANCH   1  14
ATOM     14  N   LIG    1        1.200  -2.088  -0.022  0.00  0.00    -0.214 N 
ATOM     15  H   LIG    1        2.054  -2.577  -0.033  0.00  0.00    +0.174 HD
BRANCH  14  24
ATOM     16  C   LIG    1       -0.017   1.387   0.010  0.00  0.00    +0.003 A 
ATOM     17  C   LIG    1        1.141   2.104   0.003  0.00  0.00    +0.010 A 
ATOM     18  C   LIG    1        2.377   1.438  -0.013  0.00  0.00    +0.002 A 
ATOM     19  C   LIG    1        3.592   2.150  -0.020  0.00  0.00    +0.011 A 
ATOM     20  C   LIG    1        4.757   1.437  -0.035  0.00  0.00    +0.020 A 
ATOM     21  C   LIG    1        4.719   0.044  -0.042  0.00  0.00    +0.111 A 
ATOM     22  N   LIG    1        3.586  -0.615  -0.035  0.00  0.00    -0.253 NA
ATOM     23  C   LIG    1        2.412   0.022  -0.021  0.00  0.00    +0.093 A 
ATOM     24  C   LIG    1        1.195  -0.694  -0.013  0.00  0.00    +0.074 A 
ATOM     25  C   LIG    1        0.002  -0.004   0.002  0.00  0.00    +0.026 A 
ENDBRANCH  14  24
ENDBRANCH   1  14
TORSDOF 5
