REMARK  Name = ZINC04845111
REMARK                            x       y       z     vdW  Elec       q    Type
REMARK                         _______ _______ _______ _____ _____    ______ ____
ROOT
ATOM      1  C   LIG    1        3.711   1.880  -0.121  0.00  0.00    +0.022 A 
ATOM      2  C   LIG    1        3.640   3.277  -0.111  0.00  0.00    +0.015 A 
ATOM      3  C   LIG    1        4.792   4.023  -0.205  0.00  0.00    +0.046 A 
ATOM      4  C   LIG    1        6.025   3.391  -0.320  0.00  0.00    +0.120 A 
ATOM      5  C   LIG    1        6.100   2.002  -0.336  0.00  0.00    +0.046 A 
ATOM      6  C   LIG    1        4.953   1.248  -0.238  0.00  0.00    +0.015 A 
ENDROOT
BRANCH   1   7
ATOM      7  C   LIG    1        2.479   1.076  -0.016  0.00  0.00    +0.193 C 
ATOM      8  O   LIG    1        2.393   0.016  -0.606  0.00  0.00    -0.287 OA
BRANCH   7  12
ATOM      9  C   LIG    1       -0.768   2.463   2.344  0.00  0.00    +0.000 A 
ATOM     10  C   LIG    1       -0.925   1.343   1.547  0.00  0.00    +0.001 A 
ATOM     11  C   LIG    1        0.127   0.884   0.783  0.00  0.00    +0.012 A 
ATOM     12  C   LIG    1        1.349   1.559   0.805  0.00  0.00    +0.022 A 
ATOM     13  C   LIG    1        1.499   2.692   1.607  0.00  0.00    +0.012 A 
ATOM     14  C   LIG    1        0.441   3.137   2.371  0.00  0.00    +0.001 A 
ENDBRANCH   7  12
ENDBRANCH   1   7
BRANCH   4  15
ATOM     15  O   LIG    1        7.159   4.130  -0.417  0.00  0.00    -0.494 OA
BRANCH  15  16
ATOM     16  C   LIG    1        7.010   5.551  -0.394  0.00  0.00    +0.210 C 
BRANCH  16  17
ATOM     17  C   LIG    1        8.385   6.210  -0.513  0.00  0.00    -0.037 C 
BRANCH  17  18
ATOM     18  N   LIG    1        8.973   5.908  -1.853  0.00  0.00    +0.382 N 
ATOM     19  H   LIG    1        9.207   4.910  -1.901  0.00  0.00    -0.082 HD
ATOM     20  C   LIG    1       10.178   6.709  -2.076  0.00  0.00    -0.079 C 
ATOM     21  C   LIG    1       10.215   7.018  -3.584  0.00  0.00    -0.020 C 
ATOM     22  C   LIG    1        8.938   6.365  -4.161  0.00  0.00    -0.020 C 
ATOM     23  C   LIG    1        8.018   6.247  -2.920  0.00  0.00    -0.079 C 
ENDBRANCH  17  18
ENDBRANCH  16  17
ENDBRANCH  15  16
ENDBRANCH   4  15
TORSDOF 6
