REMARK  Name = ZINC05161529
REMARK                            x       y       z     vdW  Elec       q    Type
REMARK                         _______ _______ _______ _____ _____    ______ ____
ROOT
ATOM      1  C   LIG    1       -1.124  -1.004  -0.305  0.00  0.00    +0.149 C 
ATOM      2  N   LIG    1        0.028  -0.114  -0.145  0.00  0.00    -0.343 N 
ATOM      3  C   LIG    1       -0.039   1.259  -0.044  0.00  0.00    +0.050 A 
ATOM      4  C   LIG    1       -1.095   2.165  -0.054  0.00  0.00    +0.028 A 
ATOM      5  C   LIG    1       -0.842   3.514   0.066  0.00  0.00    +0.022 A 
ATOM      6  C   LIG    1        0.460   3.981   0.206  0.00  0.00    +0.042 A 
ATOM      7 CL   LIG    1        0.751   5.685   0.361  0.00  0.00    -0.084 Cl
ATOM      8  C   LIG    1        1.512   3.109   0.223  0.00  0.00    +0.030 A 
ATOM      9  C   LIG    1        1.278   1.736   0.098  0.00  0.00    +0.005 A 
ATOM     10  C   LIG    1        2.144   0.559   0.077  0.00  0.00    -0.014 A 
ATOM     11  C   LIG    1        1.340  -0.522  -0.071  0.00  0.00    +0.055 A 
ENDROOT
BRANCH  11  12
ATOM     12  C   LIG    1        1.801  -1.925  -0.141  0.00  0.00    +0.017 A 
ATOM     13  C   LIG    1        1.296  -2.886   0.743  0.00  0.00    +0.013 A 
ATOM     14  C   LIG    1        1.756  -4.186   0.631  0.00  0.00    +0.020 A 
ATOM     15  C   LIG    1        2.700  -4.490  -0.333  0.00  0.00    +0.111 A 
ATOM     16  N   LIG    1        3.162  -3.563  -1.149  0.00  0.00    -0.263 NA
ATOM     17  C   LIG    1        2.752  -2.313  -1.086  0.00  0.00    +0.120 A 
ENDBRANCH  11  12
BRANCH  10  18
ATOM     18  C   LIG    1        3.647   0.549   0.198  0.00  0.00    +0.038 C 
BRANCH  18  19
ATOM     19  C   LIG    1        4.039   0.364   1.665  0.00  0.00    +0.005 C 
BRANCH  19  20
ATOM     20  C   LIG    1        5.562   0.431   1.798  0.00  0.00    +0.001 C 
BRANCH  20  21
ATOM     21  C   LIG    1        5.955   0.246   3.265  0.00  0.00    +0.011 C 
BRANCH  21  22
ATOM     22  C   LIG    1        7.478   0.314   3.397  0.00  0.00    +0.120 C 
BRANCH  22  23
ATOM     23  C   LIG    1        7.864   0.131   4.842  0.00  0.00    +0.305 C 
ATOM     24  O   LIG    1        7.010  -0.036   5.680  0.00  0.00    -0.251 OA
BRANCH  23  25
ATOM     25  O   LIG    1        9.158   0.154   5.199  0.00  0.00    -0.481 OA
ATOM     26  H   LIG    1        9.821   0.283   4.549  0.00  0.00    +0.295 HD
ENDBRANCH  23  25
ENDBRANCH  22  23
ENDBRANCH  21  22
ENDBRANCH  20  21
ENDBRANCH  19  20
ENDBRANCH  18  19
ENDBRANCH  10  18
TORSDOF 8
