REMARK  Name = ZINC05113953
REMARK                            x       y       z     vdW  Elec       q    Type
REMARK                         _______ _______ _______ _____ _____    ______ ____
ROOT
ATOM      1  C   LIG    1        0.011   1.072   2.506  0.00  0.00    +0.057 C 
ENDROOT
BRANCH   1   2
ATOM      2  N   LIG    1        1.397   1.571   2.474  0.00  0.00    +0.391 N 
ATOM      3  H   LIG    1        1.849   1.257   1.607  0.00  0.00    -0.088 HD
ATOM      4  H   LIG    1        1.918   1.208   3.270  0.00  0.00    -0.088 HD
ATOM      5  H   LIG    1        1.403   2.590   2.501  0.00  0.00    -0.088 HD
ENDBRANCH   1   2
BRANCH   1   6
ATOM      6  C   LIG    1       -0.694   1.558   3.746  0.00  0.00    +0.296 C 
ATOM      7  O   LIG    1       -1.871   1.830   3.705  0.00  0.00    -0.253 OA
BRANCH   6   8
ATOM      8  O   LIG    1       -0.015   1.690   4.897  0.00  0.00    -0.482 OA
ATOM      9  H   LIG    1        0.897   1.479   4.929  0.00  0.00    +0.295 HD
ENDBRANCH   6   8
ENDBRANCH   1   6
BRANCH   1  10
ATOM     10  C   LIG    1        0.032  -0.457   2.498  0.00  0.00    +0.211 C 
ATOM     11  F   LIG    1       -1.281  -0.942   2.508  0.00  0.00    -0.250 F 
ENDBRANCH   1  10
BRANCH   1  12
ATOM     12  C   LIG    1       -0.729   1.579   1.267  0.00  0.00    -0.001 C 
BRANCH  12  13
ATOM     13  C   LIG    1       -0.013   1.086   0.008  0.00  0.00    -0.020 C 
BRANCH  13  14
ATOM     14  C   LIG    1       -0.753   1.593  -1.232  0.00  0.00    -0.086 C 
BRANCH  14  15
ATOM     15  N   LIG    1       -0.068   1.094  -2.437  0.00  0.00    +0.378 N 
ATOM     16  H   LIG    1       -0.094   0.068  -2.440  0.00  0.00    -0.090 HD
ATOM     17  H   LIG    1        0.903   1.401  -2.439  0.00  0.00    -0.090 HD
ATOM     18  H   LIG    1       -0.535   1.441  -3.273  0.00  0.00    -0.090 HD
ENDBRANCH  14  15
ENDBRANCH  13  14
ENDBRANCH  12  13
ENDBRANCH   1  12
TORSDOF 8
