REMARK  Name = ZINC05193949
REMARK                            x       y       z     vdW  Elec       q    Type
REMARK                         _______ _______ _______ _____ _____    ______ ____
ROOT
ATOM      1  C   LIG    1       -0.192   1.298   0.248  0.00  0.00    +0.002 A 
ATOM      2  C   LIG    1       -1.354   2.035   0.384  0.00  0.00    +0.001 A 
ATOM      3  C   LIG    1       -1.297   3.417   0.439  0.00  0.00    +0.017 A 
ATOM      4  C   LIG    1       -0.074   4.056   0.347  0.00  0.00    +0.035 A 
ATOM      5  C   LIG    1        1.102   3.317   0.203  0.00  0.00    +0.055 A 
ATOM      6  N   LIG    1        2.340   3.966   0.107  0.00  0.00    -0.240 N 
ATOM      7  C   LIG    1        3.417   3.414   0.700  0.00  0.00    +0.207 C 
ATOM      8  O   LIG    1        4.516   3.899   0.532  0.00  0.00    -0.277 OA
ATOM      9  C   LIG    1        2.488   5.173  -0.588  0.00  0.00    +0.055 A 
ATOM     10  C   LIG    1        3.633   5.416  -1.331  0.00  0.00    +0.025 A 
ATOM     11  C   LIG    1        3.773   6.609  -2.016  0.00  0.00    +0.002 A 
ATOM     12  C   LIG    1        2.776   7.566  -1.967  0.00  0.00    +0.001 A 
ATOM     13  C   LIG    1        1.628   7.334  -1.228  0.00  0.00    +0.017 A 
ATOM     14  C   LIG    1        1.484   6.143  -0.541  0.00  0.00    +0.035 A 
ATOM     15  S   LIG    1        0.032   5.818   0.409  0.00  0.00    -0.086 S 
ATOM     16  C   LIG    1        1.033   1.933   0.155  0.00  0.00    +0.025 A 
ENDROOT
BRANCH   7  17
ATOM     17  C   LIG    1        3.256   2.195   1.571  0.00  0.00    +0.012 C 
BRANCH  17  18
ATOM     18  N   LIG    1        4.515   1.955   2.298  0.00  0.00    +0.384 N 
ATOM     19  H   LIG    1        5.266   1.774   1.621  0.00  0.00    -0.089 HD
ATOM     20  H   LIG    1        4.417   1.146   2.909  0.00  0.00    -0.089 HD
ATOM     21  H   LIG    1        4.759   2.773   2.854  0.00  0.00    -0.089 HD
ENDBRANCH  17  18
ENDBRANCH   7  17
TORSDOF 2
