REMARK  Name = ZINC04811107
REMARK                            x       y       z     vdW  Elec       q    Type
REMARK                         _______ _______ _______ _____ _____    ______ ____
ROOT
ATOM      1  C   LIG    1       -4.880  -4.123   0.268  0.00  0.00    +0.037 A 
ATOM      2  C   LIG    1       -3.732  -4.635   0.878  0.00  0.00    +0.015 A 
ATOM      3  C   LIG    1       -2.532  -3.974   0.746  0.00  0.00    +0.024 A 
ATOM      4  C   LIG    1       -2.461  -2.798   0.006  0.00  0.00    +0.034 A 
ATOM      5  C   LIG    1       -3.603  -2.283  -0.598  0.00  0.00    +0.024 A 
ATOM      6  C   LIG    1       -4.806  -2.941  -0.475  0.00  0.00    +0.015 A 
ENDROOT
BRANCH   1  16
ATOM      7  C   LIG    1      -10.955  -6.192   0.292  0.00  0.00    +0.000 A 
ATOM      8  C   LIG    1       -9.768  -6.879   0.110  0.00  0.00    +0.002 A 
ATOM      9  C   LIG    1       -8.569  -6.196   0.117  0.00  0.00    +0.024 A 
ATOM     10  C   LIG    1       -8.554  -4.818   0.305  0.00  0.00    +0.040 A 
ATOM     11  C   LIG    1       -9.743  -4.130   0.485  0.00  0.00    -0.026 A 
ATOM     12  C   LIG    1       -9.766  -2.638   0.687  0.00  0.00    +0.038 C 
ATOM     13  C   LIG    1       -8.401  -2.141   1.162  0.00  0.00    +0.024 C 
ATOM     14  C   LIG    1       -7.321  -2.678   0.221  0.00  0.00    +0.114 C 
ATOM     15  N   LIG    1       -7.326  -4.144   0.312  0.00  0.00    -0.267 N 
ATOM     16  C   LIG    1       -6.169  -4.829   0.406  0.00  0.00    +0.251 C 
ATOM     17  O   LIG    1       -6.187  -6.028   0.605  0.00  0.00    -0.270 OA
ATOM     18  C   LIG    1      -10.942  -4.824   0.479  0.00  0.00    +0.005 A 
ENDBRANCH   1  16
BRANCH   4  19
ATOM     19  N   LIG    1       -1.244  -2.132  -0.125  0.00  0.00    -0.281 N 
ATOM     20  H   LIG    1       -0.602  -2.146   0.602  0.00  0.00    +0.155 HD
ATOM     21  C   LIG    1       -0.959  -1.467  -1.262  0.00  0.00    +0.250 C 
ATOM     22  O   LIG    1       -1.718  -1.529  -2.209  0.00  0.00    -0.270 OA
BRANCH  21  23
ATOM     23  C   LIG    1        0.277  -0.663  -1.358  0.00  0.00    +0.055 A 
ATOM     24  C   LIG    1        1.152  -0.590  -0.272  0.00  0.00    +0.014 A 
ATOM     25  C   LIG    1        2.304   0.162  -0.368  0.00  0.00    +0.001 A 
ATOM     26  C   LIG    1        2.595   0.844  -1.538  0.00  0.00    +0.001 A 
ATOM     27  C   LIG    1        1.733   0.777  -2.617  0.00  0.00    +0.021 A 
ATOM     28  C   LIG    1        0.576   0.027  -2.535  0.00  0.00    +0.053 A 
ATOM     29 CL   LIG    1       -0.501  -0.062  -3.894  0.00  0.00    -0.083 Cl
ENDBRANCH  21  23
ENDBRANCH   4  19
TORSDOF 3
