REMARK  Name = ZINC05543794
REMARK                            x       y       z     vdW  Elec       q    Type
REMARK                         _______ _______ _______ _____ _____    ______ ____
ROOT
ATOM      1  C   LIG    1       -0.016   1.353   0.009  0.00  0.00    +0.002 A 
ATOM      2  C   LIG    1        1.161   2.103   0.002  0.00  0.00    +0.002 A 
ATOM      3  C   LIG    1        2.383   1.514  -0.013  0.00  0.00    +0.030 A 
ATOM      4  C   LIG    1        2.478   0.105  -0.021  0.00  0.00    +0.090 A 
ATOM      5  C   LIG    1        1.239  -0.685  -0.013  0.00  0.00    +0.092 A 
ATOM      6  N   LIG    1        1.290  -2.011  -0.021  0.00  0.00    -0.223 NA
ATOM      7  C   LIG    1        2.478  -2.626  -0.036  0.00  0.00    +0.202 A 
ATOM      8  N   LIG    1        2.845  -3.897  -0.047  0.00  0.00    -0.150 NA
ATOM      9  N   LIG    1        4.240  -3.979  -0.061  0.00  0.00    -0.261 N 
ATOM     10  H   LIG    1        4.747  -4.806  -0.071  0.00  0.00    +0.190 HD
ATOM     11  C   LIG    1        4.776  -2.752  -0.060  0.00  0.00    +0.140 A 
ATOM     12  C   LIG    1        3.718  -1.827  -0.044  0.00  0.00    +0.149 A 
ATOM     13  N   LIG    1        3.659  -0.501  -0.036  0.00  0.00    -0.239 NA
ATOM     14  C   LIG    1        0.002  -0.004   0.002  0.00  0.00    +0.030 A 
ENDROOT
BRANCH  11  15
ATOM     15  N   LIG    1        6.125  -2.450  -0.071  0.00  0.00    -0.342 N 
ATOM     16  H   LIG    1        6.414  -1.524  -0.068  0.00  0.00    +0.144 HD
ATOM     17  H   LIG    1        6.781  -3.164  -0.081  0.00  0.00    +0.144 HD
ENDBRANCH  11  15
TORSDOF 1
