REMARK  Name = ZINC05116719
REMARK                            x       y       z     vdW  Elec       q    Type
REMARK                         _______ _______ _______ _____ _____    ______ ____
ROOT
ATOM      1  C   LIG    1        0.039  -3.208  -1.640  0.00  0.00    +0.169 C 
ATOM      2  O   LIG    1        0.057  -4.336  -1.193  0.00  0.00    -0.292 OA
ENDROOT
BRANCH   1   3
ATOM      3  C   LIG    1        0.029  -2.988  -3.131  0.00  0.00    +0.066 C 
ATOM      4  C   LIG    1       -0.680  -4.160  -3.815  0.00  0.00    +0.018 C 
ATOM      5  C   LIG    1       -0.914  -3.826  -5.293  0.00  0.00    +0.056 C 
ATOM      6  C   LIG    1        0.388  -3.343  -5.884  0.00  0.00    +0.036 A 
ATOM      7  C   LIG    1        1.444  -2.932  -5.150  0.00  0.00    +0.037 A 
ATOM      8  N   LIG    1        2.425  -2.578  -6.024  0.00  0.00    -0.350 N 
ATOM      9  C   LIG    1        1.939  -2.781  -7.270  0.00  0.00    +0.171 A 
ATOM     10  H   LIG    1        3.307  -2.242  -5.796  0.00  0.00    +0.166 HD
ATOM     11  N   LIG    1        0.718  -3.240  -7.175  0.00  0.00    -0.350 N 
ATOM     12  H   LIG    1        0.143  -3.468  -7.922  0.00  0.00    +0.166 HD
ATOM     13  C   LIG    1        1.472  -2.894  -3.644  0.00  0.00    +0.066 C 
ENDBRANCH   1   3
BRANCH   1  17
ATOM     14  C   LIG    1       -0.018   1.461   0.010  0.00  0.00    +0.149 C 
ATOM     15  N   LIG    1        0.002  -0.004   0.002  0.00  0.00    -0.349 N 
ATOM     16  C   LIG    1        0.008  -0.763  -1.110  0.00  0.00    +0.098 A 
ATOM     17  C   LIG    1        0.028  -2.097  -0.760  0.00  0.00    +0.043 A 
ATOM     18  C   LIG    1        0.035  -2.135   0.715  0.00  0.00    +0.010 A 
ATOM     19  C   LIG    1        0.054  -3.160   1.656  0.00  0.00    +0.011 A 
ATOM     20  C   LIG    1        0.069  -2.853   3.000  0.00  0.00    +0.001 A 
ATOM     21  C   LIG    1        0.053  -1.530   3.415  0.00  0.00    +0.002 A 
ATOM     22  C   LIG    1        0.031  -0.505   2.494  0.00  0.00    +0.026 A 
ATOM     23  C   LIG    1        0.024  -0.795   1.133  0.00  0.00    +0.050 A 
ENDBRANCH   1  17
TORSDOF 2
