REMARK  Name = ZINC05673241
REMARK                            x       y       z     vdW  Elec       q    Type
REMARK                         _______ _______ _______ _____ _____    ______ ____
ROOT
ATOM      1  C   LIG    1        5.929   2.087   0.005  0.00  0.00    +0.067 C 
ATOM      2  N   LIG    1        4.846   1.404  -0.138  0.00  0.00    -0.181 NA
ATOM      3  N   LIG    1        4.848   0.003  -0.144  0.00  0.00    -0.189 N 
ATOM      4  C   LIG    1        3.694  -0.686  -0.033  0.00  0.00    +0.266 C 
ATOM      5  O   LIG    1        3.713  -1.901   0.008  0.00  0.00    -0.268 OA
ATOM      6  C   LIG    1        6.132  -0.704  -0.266  0.00  0.00    +0.136 C 
ATOM      7  C   LIG    1        7.144   0.008   0.637  0.00  0.00    +0.027 C 
ATOM      8  C   LIG    1        7.282   1.458   0.169  0.00  0.00    +0.059 C 
ENDROOT
BRANCH   4   9
ATOM      9  C   LIG    1        2.407   0.036   0.038  0.00  0.00    +0.040 A 
ATOM     10  C   LIG    1        2.369   1.421  -0.144  0.00  0.00    +0.014 A 
ATOM     11  C   LIG    1        1.165   2.089  -0.077  0.00  0.00    +0.022 A 
ATOM     12  C   LIG    1       -0.005   1.392   0.171  0.00  0.00    +0.059 A 
ATOM     13 CL   LIG    1       -1.516   2.242   0.262  0.00  0.00    -0.082 Cl
ATOM     14  C   LIG    1        0.026   0.018   0.354  0.00  0.00    +0.060 A 
ATOM     15 CL   LIG    1       -1.446  -0.848   0.664  0.00  0.00    -0.082 Cl
ATOM     16  C   LIG    1        1.225  -0.662   0.288  0.00  0.00    +0.034 A 
ENDBRANCH   4   9
BRANCH   1  23
ATOM     17  C   LIG    1        6.993   4.336   0.066  0.00  0.00    +0.011 A 
ATOM     18  C   LIG    1        6.897   5.712   0.063  0.00  0.00    +0.020 A 
ATOM     19  C   LIG    1        5.655   6.323   0.018  0.00  0.00    +0.041 A 
ATOM     20 CL   LIG    1        5.543   8.055   0.023  0.00  0.00    -0.084 Cl
ATOM     21  C   LIG    1        4.502   5.558  -0.032  0.00  0.00    +0.020 A 
ATOM     22  C   LIG    1        4.584   4.181  -0.036  0.00  0.00    +0.011 A 
ATOM     23  C   LIG    1        5.834   3.559   0.010  0.00  0.00    -0.002 A 
ENDBRANCH   1  23
TORSDOF 2
