REMARK  Name = ZINC05447539
REMARK                            x       y       z     vdW  Elec       q    Type
REMARK                         _______ _______ _______ _____ _____    ______ ____
ROOT
ATOM      1  C   LIG    1       -1.412  -0.526   0.013  0.00  0.00    -0.041 A 
ATOM      2  C   LIG    1       -1.762  -1.315  -1.065  0.00  0.00    +0.008 A 
ATOM      3  C   LIG    1       -2.976  -1.935  -1.337  0.00  0.00    +0.050 A 
ATOM      4  C   LIG    1       -4.142  -1.917  -0.593  0.00  0.00    +0.167 A 
ATOM      5  C   LIG    1       -4.388  -1.260   0.633  0.00  0.00    +0.261 A 
ATOM      6  C   LIG    1       -3.497  -0.465   1.389  0.00  0.00    +0.168 A 
ATOM      7  O   LIG    1       -5.512  -1.396   1.098  0.00  0.00    -0.280 OA
ATOM      8  C   LIG    1       -2.179  -0.150   1.108  0.00  0.00    +0.053 A 
ENDROOT
BRANCH   1  10
ATOM      9  C   LIG    1       -0.019   1.526   0.010  0.00  0.00    +0.012 C 
ATOM     10  C   LIG    1        0.002  -0.004   0.002  0.00  0.00    +0.013 C 
ATOM     11  C   LIG    1        0.742  -0.511   1.242  0.00  0.00    +0.012 C 
ENDBRANCH   1  10
BRANCH   4  12
ATOM     12  O   LIG    1       -5.182  -2.619  -1.106  0.00  0.00    -0.503 OA
ATOM     13  H   LIG    1       -5.083  -3.078  -1.917  0.00  0.00    +0.292 HD
ENDBRANCH   4  12
BRANCH   6  14
ATOM     14  O   LIG    1       -3.997   0.051   2.540  0.00  0.00    -0.503 OA
ATOM     15  H   LIG    1       -4.918  -0.189   2.711  0.00  0.00    +0.292 HD
ENDBRANCH   6  14
TORSDOF 3
