REMARK  Name = ZINC05819733
REMARK                            x       y       z     vdW  Elec       q    Type
REMARK                         _______ _______ _______ _____ _____    ______ ____
ROOT
ATOM      1  C   LIG    1        0.739  -2.027  -1.265  0.00  0.00    +0.070 C 
ENDROOT
BRANCH   1   2
ATOM      2  C   LIG    1        1.337  -2.550  -2.546  0.00  0.00    +0.087 A 
ATOM      3  C   LIG    1        2.364  -3.453  -2.506  0.00  0.00    +0.138 A 
ATOM      4  C   LIG    1        2.912  -3.932  -3.784  0.00  0.00    +0.059 A 
ATOM      5  C   LIG    1        3.960  -4.854  -3.818  0.00  0.00    +0.015 A 
ATOM      6  C   LIG    1        4.451  -5.283  -5.032  0.00  0.00    +0.001 A 
ATOM      7  C   LIG    1        3.910  -4.802  -6.215  0.00  0.00    +0.004 A 
ATOM      8  C   LIG    1        2.875  -3.890  -6.196  0.00  0.00    +0.047 A 
ATOM      9  C   LIG    1        2.365  -3.446  -4.983  0.00  0.00    +0.143 A 
ATOM     10  O   LIG    1        1.351  -2.554  -4.946  0.00  0.00    -0.422 OA
ATOM     11  C   LIG    1        0.840  -2.116  -3.784  0.00  0.00    +0.345 A 
ATOM     12  O   LIG    1       -0.078  -1.314  -3.806  0.00  0.00    -0.245 OA
BRANCH   3  13
ATOM     13  O   LIG    1        2.859  -3.893  -1.327  0.00  0.00    -0.506 OA
ATOM     14  H   LIG    1        3.582  -4.529  -1.417  0.00  0.00    +0.292 HD
ENDBRANCH   3  13
ENDBRANCH   1   2
BRANCH   1  15
ATOM     15  C   LIG    1       -0.709  -2.438  -1.183  0.00  0.00    +0.087 A 
ATOM     16  C   LIG    1       -1.694  -1.555  -1.532  0.00  0.00    +0.138 A 
ATOM     17  C   LIG    1       -3.091  -2.005  -1.434  0.00  0.00    +0.059 A 
ATOM     18  C   LIG    1       -4.146  -1.156  -1.774  0.00  0.00    +0.015 A 
ATOM     19  C   LIG    1       -5.443  -1.608  -1.671  0.00  0.00    +0.001 A 
ATOM     20  C   LIG    1       -5.702  -2.898  -1.233  0.00  0.00    +0.004 A 
ATOM     21  C   LIG    1       -4.670  -3.746  -0.894  0.00  0.00    +0.047 A 
ATOM     22  C   LIG    1       -3.354  -3.311  -0.990  0.00  0.00    +0.143 A 
ATOM     23  O   LIG    1       -2.330  -4.128  -0.663  0.00  0.00    -0.422 OA
ATOM     24  C   LIG    1       -1.052  -3.729  -0.754  0.00  0.00    +0.345 A 
ATOM     25  O   LIG    1       -0.165  -4.508  -0.452  0.00  0.00    -0.245 OA
BRANCH  16  26
ATOM     26  O   LIG    1       -1.392  -0.306  -1.953  0.00  0.00    -0.506 OA
ATOM     27  H   LIG    1       -0.497  -0.034  -2.010  0.00  0.00    +0.292 HD
ENDBRANCH  16  26
ENDBRANCH   1  15
BRANCH   1  28
ATOM     28  C   LIG    1        0.839  -0.501  -1.241  0.00  0.00    +0.013 C 
BRANCH  28  30
ATOM     29  C   LIG    1        0.304   1.558   0.070  0.00  0.00    +0.004 C 
ATOM     30  C   LIG    1        0.205   0.031   0.046  0.00  0.00    -0.002 C 
ENDBRANCH  28  30
ENDBRANCH   1  28
TORSDOF 6
