REMARK  Name = ZINC05275275
REMARK                            x       y       z     vdW  Elec       q    Type
REMARK                         _______ _______ _______ _____ _____    ______ ____
ROOT
ATOM      1  C   LIG    1        3.083   3.015  -0.566  0.00  0.00    +0.024 C 
ATOM      2  C   LIG    1        3.056   2.793   0.966  0.00  0.00    +0.007 C 
ATOM      3  C   LIG    1        1.725   2.055   1.282  0.00  0.00    +0.005 C 
ATOM      4  C   LIG    1        1.278   1.552  -0.098  0.00  0.00    -0.001 C 
ATOM      5  C   LIG    1       -0.137   1.094  -0.247  0.00  0.00    +0.000 C 
ATOM      6  C   LIG    1       -1.028   1.486   0.939  0.00  0.00    +0.031 C 
ATOM      7  C   LIG    1       -2.392   0.901   0.683  0.00  0.00    -0.027 C 
ATOM      8  C   LIG    1       -2.837   0.621  -0.502  0.00  0.00    -0.065 C 
ATOM      9  C   LIG    1       -2.075   0.869  -1.782  0.00  0.00    -0.008 C 
ATOM     10  C   LIG    1       -2.951   1.713  -2.714  0.00  0.00    +0.016 C 
ATOM     11  C   LIG    1       -1.797  -0.473  -2.447  0.00  0.00    +0.014 C 
ATOM     12  C   LIG    1       -2.563  -1.586  -1.733  0.00  0.00    +0.032 C 
ATOM     13  C   LIG    1       -4.040  -1.248  -1.560  0.00  0.00    +0.119 C 
ATOM     14  C   LIG    1       -4.204  -0.027  -0.647  0.00  0.00    +0.062 C 
ATOM     15  C   LIG    1       -0.795   1.657  -1.510  0.00  0.00    +0.003 C 
ATOM     16  C   LIG    1        0.143   1.641  -2.702  0.00  0.00    +0.005 C 
ATOM     17  C   LIG    1        1.467   2.369  -2.450  0.00  0.00    +0.007 C 
ATOM     18  C   LIG    1        1.623   2.754  -1.002  0.00  0.00    -0.024 C 
ATOM     19  C   LIG    1        0.828   4.012  -0.662  0.00  0.00    +0.012 C 
ENDROOT
BRANCH   1  21
ATOM     20  C   LIG    1        4.917   4.704  -0.467  0.00  0.00    +0.038 C 
ATOM     21  C   LIG    1        3.469   4.455  -0.893  0.00  0.00    +0.115 C 
BRANCH  21  22
ATOM     22  O   LIG    1        2.605   5.351  -0.189  0.00  0.00    -0.392 OA
ATOM     23  H   LIG    1        2.640   5.257   0.772  0.00  0.00    +0.210 HD
ENDBRANCH  21  22
ENDBRANCH   1  21
BRANCH  13  24
ATOM     24  O   LIG    1       -4.633  -0.988  -2.833  0.00  0.00    -0.391 OA
ATOM     25  H   LIG    1       -5.579  -0.792  -2.793  0.00  0.00    +0.210 HD
ENDBRANCH  13  24
TORSDOF 3
