REMARK  Name = ZINC05224686
REMARK                            x       y       z     vdW  Elec       q    Type
REMARK                         _______ _______ _______ _____ _____    ______ ____
ROOT
ATOM      1  C   LIG    1        2.014   3.013  -0.185  0.00  0.00    +0.024 A 
ATOM      2  C   LIG    1        1.374   1.760  -0.128  0.00  0.00    +0.071 A 
ATOM      3  C   LIG    1       -0.008   1.302  -0.210  0.00  0.00    +0.148 A 
ATOM      4  N   LIG    1        0.001  -0.001  -0.090  0.00  0.00    -0.157 NA
ATOM      5  N   LIG    1        1.313  -0.458   0.069  0.00  0.00    -0.257 N 
ATOM      6  H   LIG    1        1.583  -1.414   0.180  0.00  0.00    +0.191 HD
ATOM      7  C   LIG    1        2.169   0.608   0.048  0.00  0.00    +0.180 A 
ATOM      8  N   LIG    1        3.487   0.738   0.155  0.00  0.00    -0.129 NA
ATOM      9  N   LIG    1        4.070   1.879   0.103  0.00  0.00    -0.147 NA
ATOM     10  C   LIG    1        3.413   3.024  -0.060  0.00  0.00    +0.102 A 
ENDROOT
BRANCH   1  14
ATOM     11  C   LIG    1       -0.192   6.606  -0.711  0.00  0.00    +0.000 A 
ATOM     12  C   LIG    1        0.655   6.164  -1.712  0.00  0.00    +0.001 A 
ATOM     13  C   LIG    1        1.374   4.999  -1.547  0.00  0.00    +0.008 A 
ATOM     14  C   LIG    1        1.246   4.264  -0.368  0.00  0.00    -0.015 A 
ATOM     15  C   LIG    1        0.386   4.712   0.636  0.00  0.00    +0.008 A 
ATOM     16  C   LIG    1       -0.324   5.882   0.461  0.00  0.00    +0.001 A 
ENDBRANCH   1  14
BRANCH  10  17
ATOM     17  C   LIG    1        4.154   4.306  -0.111  0.00  0.00    +0.003 A 
ATOM     18  C   LIG    1        5.331   4.405  -0.852  0.00  0.00    +0.010 A 
ATOM     19  C   LIG    1        6.013   5.604  -0.900  0.00  0.00    +0.001 A 
ATOM     20  C   LIG    1        5.538   6.702  -0.206  0.00  0.00    +0.000 A 
ATOM     21  C   LIG    1        4.374   6.608   0.535  0.00  0.00    +0.001 A 
ATOM     22  C   LIG    1        3.680   5.417   0.587  0.00  0.00    +0.010 A 
ENDBRANCH  10  17
BRANCH   3  23
ATOM     23  N   LIG    1       -1.136   2.107  -0.390  0.00  0.00    -0.341 N 
ATOM     24  H   LIG    1       -1.038   3.069  -0.469  0.00  0.00    +0.144 HD
ATOM     25  H   LIG    1       -2.017   1.704  -0.436  0.00  0.00    +0.144 HD
ENDBRANCH   3  23
TORSDOF 3
