REMARK  Name = ZINC04912840
REMARK                            x       y       z     vdW  Elec       q    Type
REMARK                         _______ _______ _______ _____ _____    ______ ____
ROOT
ATOM      1  S   LIG    1       -1.513  -0.904   0.010  0.00  0.00    +0.059 S 
ATOM      2  O   LIG    1       -2.493  -0.044   0.573  0.00  0.00    -0.153 OA
ATOM      3  O   LIG    1       -1.221  -2.185   0.551  0.00  0.00    -0.153 OA
ENDROOT
BRANCH   1  13
ATOM      4  C   LIG    1       -0.017   1.378   0.010  0.00  0.00    +0.032 A 
ATOM      5  C   LIG    1        1.170   2.088   0.002  0.00  0.00    +0.051 A 
ATOM      6  C   LIG    1        2.382   1.415  -0.013  0.00  0.00    +0.162 A 
ATOM      7  C   LIG    1        2.401   0.025  -0.018  0.00  0.00    +0.164 A 
ATOM      8  O   LIG    1        3.579  -0.656  -0.024  0.00  0.00    -0.485 OA
ATOM      9  C   LIG    1        4.746   0.081  -0.406  0.00  0.00    +0.270 C 
ATOM     10  C   LIG    1        4.733   1.422   0.340  0.00  0.00    +0.270 C 
ATOM     11  C   LIG    1        1.207  -0.681  -0.011  0.00  0.00    +0.078 A 
ATOM     12  O   LIG    1        3.542   2.127  -0.024  0.00  0.00    -0.485 OA
ATOM     13  C   LIG    1        0.002  -0.004   0.002  0.00  0.00    +0.109 A 
ENDBRANCH   1  13
BRANCH   1  14
ATOM     14  N   LIG    1       -1.947  -1.146  -1.570  0.00  0.00    -0.190 NA
ATOM     15  H   LIG    1       -2.753  -0.736  -1.919  0.00  0.00    +0.148 HD
BRANCH  14  16
ATOM     16  C   LIG    1       -1.112  -1.979  -2.440  0.00  0.00    +0.107 C 
BRANCH  16  17
ATOM     17  C   LIG    1       -1.898  -2.347  -3.700  0.00  0.00    +0.038 C 
BRANCH  17  18
ATOM     18  C   LIG    1       -1.027  -3.217  -4.608  0.00  0.00    +0.124 C 
BRANCH  18  19
ATOM     19  N   LIG    1       -1.779  -3.570  -5.814  0.00  0.00    -0.338 N 
ATOM     20  C   LIG    1       -2.581  -4.667  -5.980  0.00  0.00    +0.104 A 
ATOM     21  C   LIG    1       -3.076  -4.603  -7.231  0.00  0.00    +0.101 A 
ATOM     22  N   LIG    1       -2.590  -3.497  -7.813  0.00  0.00    -0.352 N 
ATOM     23  H   LIG    1       -2.785  -3.207  -8.718  0.00  0.00    +0.166 HD
ATOM     24  C   LIG    1       -1.816  -2.871  -6.969  0.00  0.00    +0.173 A 
ENDBRANCH  18  19
ENDBRANCH  17  18
ENDBRANCH  16  17
ENDBRANCH  14  16
ENDBRANCH   1  14
TORSDOF 6
