REMARK  Name = ZINC05447704
REMARK                            x       y       z     vdW  Elec       q    Type
REMARK                         _______ _______ _______ _____ _____    ______ ____
ROOT
ATOM      1  C   LIG    1       -0.027   1.532   0.029  0.00  0.00    +0.060 C 
ATOM      2  C   LIG    1       -0.005   0.002   0.015  0.00  0.00    +0.124 C 
ATOM      3  C   LIG    1        0.722  -0.480  -1.242  0.00  0.00    +0.060 C 
ATOM      4  C   LIG    1       -1.419  -0.515  -0.000  0.00  0.00    +0.020 C 
ATOM      5  C   LIG    1       -1.699  -1.704   0.532  0.00  0.00    +0.015 C 
ATOM      6  C   LIG    1       -0.591  -2.472   1.137  0.00  0.00    +0.059 A 
ATOM      7  C   LIG    1       -0.714  -3.832   1.399  0.00  0.00    +0.142 A 
ATOM      8  C   LIG    1        0.370  -4.521   1.976  0.00  0.00    +0.102 A 
ATOM      9  C   LIG    1        0.272  -5.906   2.250  0.00  0.00    +0.142 A 
ATOM     10  C   LIG    1        1.384  -6.553   2.830  0.00  0.00    +0.063 A 
ATOM     11  C   LIG    1        1.336  -7.929   3.119  0.00  0.00    +0.019 A 
ATOM     12  C   LIG    1        2.410  -8.545   3.679  0.00  0.00    +0.055 A 
ATOM     13  C   LIG    1        3.574  -7.812   3.974  0.00  0.00    +0.224 A 
ATOM     14  C   LIG    1        3.637  -6.441   3.690  0.00  0.00    +0.207 A 
ATOM     15  O   LIG    1        4.623  -8.425   4.525  0.00  0.00    -0.284 OA
ATOM     16  C   LIG    1        2.549  -5.806   3.119  0.00  0.00    +0.184 A 
ATOM     17  O   LIG    1        2.605  -4.485   2.842  0.00  0.00    -0.450 OA
ATOM     18  C   LIG    1        1.562  -3.832   2.285  0.00  0.00    +0.150 A 
ATOM     19  C   LIG    1        1.665  -2.475   2.014  0.00  0.00    +0.047 A 
ATOM     20  C   LIG    1        0.604  -1.796   1.444  0.00  0.00    +0.140 A 
ATOM     21  O   LIG    1        0.690  -0.470   1.170  0.00  0.00    -0.481 OA
ENDROOT
BRANCH  19  22
ATOM     22  C   LIG    1        2.939  -1.739   2.341  0.00  0.00    +0.015 C 
ATOM     23  C   LIG    1        2.843  -0.301   1.828  0.00  0.00    +0.020 C 
ATOM     24  C   LIG    1        4.121  -2.442   1.669  0.00  0.00    +0.020 C 
BRANCH  22  25
ATOM     25  C   LIG    1        3.143  -1.728   3.834  0.00  0.00    -0.023 C 
ATOM     26  C   LIG    1        2.269  -2.308   4.619  0.00  0.00    +0.005 C 
ENDBRANCH  22  25
ENDBRANCH  19  22
BRANCH   7  27
ATOM     27  O   LIG    1       -1.863  -4.486   1.103  0.00  0.00    -0.505 OA
ATOM     28  H   LIG    1       -1.885  -4.859   0.211  0.00  0.00    +0.292 HD
ENDBRANCH   7  27
BRANCH   9  29
ATOM     29  O   LIG    1       -0.854  -6.589   1.964  0.00  0.00    -0.505 OA
ATOM     30  H   LIG    1       -1.585  -6.147   1.578  0.00  0.00    +0.292 HD
ENDBRANCH   9  29
BRANCH  14  31
ATOM     31  O   LIG    1        4.767  -5.736   3.975  0.00  0.00    -0.501 OA
ATOM     32  H   LIG    1        5.472  -6.266   4.372  0.00  0.00    +0.292 HD
ENDBRANCH  14  31
TORSDOF 5
