REMARK  Name = ZINC04959623
REMARK                            x       y       z     vdW  Elec       q    Type
REMARK                         _______ _______ _______ _____ _____    ______ ____
ROOT
ATOM      1  C   LIG    1       -0.017   1.379   0.010  0.00  0.00    +0.017 A 
ATOM      2  C   LIG    1        1.171   2.081   0.002  0.00  0.00    +0.024 A 
ATOM      3  C   LIG    1        2.386   1.401  -0.011  0.00  0.00    +0.032 A 
ATOM      4  C   LIG    1        2.405   0.017  -0.007  0.00  0.00    -0.018 A 
ATOM      5  C   LIG    1        3.687  -0.767   0.015  0.00  0.00    +0.049 C 
ATOM      6  C   LIG    1        3.592  -1.780   1.146  0.00  0.00    -0.023 C 
ATOM      7  C   LIG    1        4.268  -1.371   2.188  0.00  0.00    -0.030 C 
ATOM      8  C   LIG    1        4.926  -0.035   1.916  0.00  0.00    +0.033 C 
ATOM      9  C   LIG    1        4.906   0.084   0.359  0.00  0.00    +0.035 C 
ATOM     10  CA  LIG    1        4.874   1.504  -0.120  0.00  0.00    +0.184 C 
ATOM     11  C   LIG    1        1.206  -0.681  -0.007  0.00  0.00    +0.021 A 
ATOM     12  N   LIG    1        3.569   2.131  -0.035  0.00  0.00    -0.331 N 
ATOM     13  H   LIG    1        3.518   3.099  -0.017  0.00  0.00    +0.147 HD
ATOM     14  C   LIG    1        0.002  -0.004   0.002  0.00  0.00    +0.018 A 
ATOM     15 BR   LIG    1       -1.623  -0.970   0.004  0.00  0.00    -0.050 Br
ENDROOT
BRANCH  10  16
ATOM     16  C   LIG    1        5.823   2.314   0.725  0.00  0.00    +0.326 C 
ATOM     17  O   LIG    1        6.989   2.431   0.391  0.00  0.00    -0.249 OA
BRANCH  16  18
ATOM     18  OXT LIG    1        5.424   2.853   1.743  0.00  0.00    -0.479 OA
ATOM     19  HXT LIG    1        4.527   2.763   2.000  0.00  0.00    +0.295 HD
ENDBRANCH  16  18
ENDBRANCH  10  16
TORSDOF 2
