REMARK  Name = ZINC05525671
REMARK                            x       y       z     vdW  Elec       q    Type
REMARK                         _______ _______ _______ _____ _____    ______ ____
ROOT
ATOM      1  C   LIG    1       -0.018   1.465   0.010  0.00  0.00    -0.096 C 
ATOM      2  N   LIG    1        0.002  -0.004   0.002  0.00  0.00    +0.379 N 
ATOM      3  H   LIG    1       -0.938  -0.370  -0.009  0.00  0.00    -0.082 HD
ATOM      4  C   LIG    1        0.772  -0.507  -1.165  0.00  0.00    -0.070 C 
ATOM      5  C   LIG    1        1.190  -1.939  -0.767  0.00  0.00    +0.014 C 
ATOM      6  C   LIG    1        1.173  -1.947   0.775  0.00  0.00    +0.049 C 
ATOM      7  C   LIG    1        0.746  -0.520   1.180  0.00  0.00    -0.067 C 
ENDROOT
BRANCH   5   8
ATOM      8  C   LIG    1        2.575  -2.241  -1.279  0.00  0.00    -0.010 A 
ATOM      9  C   LIG    1        3.643  -1.453  -0.890  0.00  0.00    +0.006 A 
ATOM     10  C   LIG    1        4.913  -1.730  -1.360  0.00  0.00    +0.000 A 
ATOM     11  C   LIG    1        5.117  -2.795  -2.218  0.00  0.00    +0.003 A 
ATOM     12  C   LIG    1        4.052  -3.583  -2.607  0.00  0.00    +0.038 A 
ATOM     13  C   LIG    1        2.780  -3.310  -2.134  0.00  0.00    +0.127 A 
ATOM     14  F   LIG    1        1.738  -4.083  -2.510  0.00  0.00    -0.205 F 
ENDBRANCH   5   8
BRANCH   6  15
ATOM     15  C   LIG    1        0.176  -2.958   1.282  0.00  0.00    +0.165 C 
ATOM     16  O   LIG    1       -0.763  -3.284   0.588  0.00  0.00    -0.292 OA
BRANCH  15  17
ATOM     17  C   LIG    1        0.343  -3.549   2.619  0.00  0.00    +0.018 A 
ATOM     18  C   LIG    1        1.422  -3.171   3.425  0.00  0.00    +0.013 A 
ATOM     19  C   LIG    1        1.571  -3.728   4.676  0.00  0.00    +0.020 A 
ATOM     20  C   LIG    1        0.656  -4.661   5.137  0.00  0.00    +0.041 A 
ATOM     21 CL   LIG    1        0.853  -5.359   6.714  0.00  0.00    -0.084 Cl
ATOM     22  C   LIG    1       -0.415  -5.040   4.344  0.00  0.00    +0.020 A 
ATOM     23  C   LIG    1       -0.580  -4.487   3.092  0.00  0.00    +0.013 A 
ENDBRANCH  15  17
ENDBRANCH   6  15
TORSDOF 3
