REMARK  Name = ZINC05826865
REMARK                            x       y       z     vdW  Elec       q    Type
REMARK                         _______ _______ _______ _____ _____    ______ ____
ROOT
ATOM      1  C   LIG    1       -4.246  -4.645  -0.359  0.00  0.00    +0.000 C 
ENDROOT
BRANCH   1   2
ATOM      2  C   LIG    1       -2.815  -4.116  -0.244  0.00  0.00    +0.002 C 
BRANCH   2   3
ATOM      3  C   LIG    1       -2.844  -2.592  -0.110  0.00  0.00    +0.031 C 
BRANCH   3   4
ATOM      4  C   LIG    1       -1.413  -2.063   0.004  0.00  0.00    +0.115 C 
BRANCH   4   5
ATOM      5  O   LIG    1       -0.825  -2.539   1.217  0.00  0.00    -0.392 OA
ATOM      6  H   LIG    1       -1.296  -2.264   2.016  0.00  0.00    +0.210 HD
ENDBRANCH   4   5
BRANCH   4   7
ATOM      7  C   LIG    1       -1.433  -0.534   0.013  0.00  0.00    +0.032 C 
BRANCH   7   8
ATOM      8  C   LIG    1        0.002  -0.004   0.002  0.00  0.00    +0.015 C 
BRANCH   8   9
ATOM      9  C   LIG    1       -0.019   1.526   0.010  0.00  0.00    +0.088 C 
BRANCH   9  11
ATOM     10  C   LIG    1        2.464   2.442  -0.008  0.00  0.00    +0.004 C 
ATOM     11  C   LIG    1        1.362   2.035   0.000  0.00  0.00    -0.106 C 
ENDBRANCH   9  11
ENDBRANCH   8   9
ENDBRANCH   7   8
ENDBRANCH   4   7
ENDBRANCH   3   4
ENDBRANCH   2   3
ENDBRANCH   1   2
BRANCH   1  12
ATOM     12  C   LIG    1       -4.218  -6.169  -0.493  0.00  0.00    +0.000 C 
BRANCH  12  13
ATOM     13  C   LIG    1       -5.649  -6.698  -0.608  0.00  0.00    +0.000 C 
BRANCH  13  14
ATOM     14  C   LIG    1       -5.620  -8.222  -0.742  0.00  0.00    +0.000 C 
BRANCH  14  15
ATOM     15  C   LIG    1       -7.051  -8.750  -0.857  0.00  0.00    +0.000 C 
BRANCH  15  16
ATOM     16  C   LIG    1       -7.022 -10.274  -0.991  0.00  0.00    +0.001 C 
BRANCH  16  17
ATOM     17  C   LIG    1       -8.454 -10.803  -1.105  0.00  0.00    +0.011 C 
BRANCH  17  18
ATOM     18  C   LIG    1       -8.425 -12.327  -1.239  0.00  0.00    +0.120 C 
BRANCH  18  19
ATOM     19  C   LIG    1       -9.835 -12.848  -1.353  0.00  0.00    +0.305 C 
ATOM     20  O   LIG    1      -10.766 -12.079  -1.329  0.00  0.00    -0.251 OA
BRANCH  19  21
ATOM     21  O   LIG    1      -10.055 -14.166  -1.480  0.00  0.00    -0.481 OA
ATOM     22  H   LIG    1       -9.332 -14.762  -1.499  0.00  0.00    +0.295 HD
ENDBRANCH  19  21
ENDBRANCH  18  19
ENDBRANCH  17  18
ENDBRANCH  16  17
ENDBRANCH  15  16
ENDBRANCH  14  15
ENDBRANCH  13  14
ENDBRANCH  12  13
ENDBRANCH   1  12
TORSDOF 17
