REMARK  Name = ZINC04822135
REMARK                            x       y       z     vdW  Elec       q    Type
REMARK                         _______ _______ _______ _____ _____    ______ ____
ROOT
ATOM      1  N   LIG    1        1.231  -2.083  -0.021  0.00  0.00    -0.299 N 
ATOM      2  H   LIG    1        2.080  -2.540   0.078  0.00  0.00    +0.154 HD
ENDROOT
BRANCH   1   6
ATOM      3  C   LIG    1       -3.668  -2.175   0.243  0.00  0.00    +0.066 C 
ATOM      4  C   LIG    1       -2.333  -2.875   0.223  0.00  0.00    +0.045 A 
ATOM      5  C   LIG    1       -1.163  -2.129   0.114  0.00  0.00    +0.067 A 
ATOM      6  C   LIG    1        0.052  -2.787   0.091  0.00  0.00    +0.130 A 
ATOM      7  N   LIG    1        0.061  -4.149   0.187  0.00  0.00    -0.182 N 
ATOM      8  C   LIG    1       -1.113  -4.838   0.298  0.00  0.00    +0.255 A 
ATOM      9  N   LIG    1       -0.805  -6.129   0.373  0.00  0.00    -0.197 NA
ATOM     10  C   LIG    1        0.512  -6.279   0.314  0.00  0.00    +0.247 A 
ATOM     11  N   LIG    1        1.085  -5.106   0.200  0.00  0.00    -0.151 NA
ATOM     12  N   LIG    1       -2.282  -4.187   0.313  0.00  0.00    -0.216 NA
ENDBRANCH   1   6
BRANCH   1  13
ATOM     13  C   LIG    1        1.202  -0.707  -0.279  0.00  0.00    +0.036 A 
ATOM     14  C   LIG    1        2.068   0.143   0.397  0.00  0.00    +0.027 A 
ATOM     15  C   LIG    1        2.041   1.502   0.144  0.00  0.00    +0.051 A 
ATOM     16  C   LIG    1        1.151   2.018  -0.784  0.00  0.00    +0.166 A 
ATOM     17  C   LIG    1        0.282   1.168  -1.463  0.00  0.00    +0.168 A 
ATOM     18  O   LIG    1       -0.483   1.913  -2.313  0.00  0.00    -0.453 OA
ATOM     19  C   LIG    1       -0.359   3.272  -1.851  0.00  0.00    +0.466 C 
ATOM     20  O   LIG    1        0.930   3.298  -1.209  0.00  0.00    -0.453 OA
ATOM     21  C   LIG    1        0.309  -0.193  -1.209  0.00  0.00    +0.072 A 
ENDBRANCH   1  13
TORSDOF 2
