REMARK  Name = ZINC05839491
REMARK                            x       y       z     vdW  Elec       q    Type
REMARK                         _______ _______ _______ _____ _____    ______ ____
ROOT
ATOM      1  C   LIG    1       -0.019   1.526   0.010  0.00  0.00    -0.011 C 
ENDROOT
BRANCH   1   2
ATOM      2  C   LIG    1        0.002  -0.004   0.002  0.00  0.00    +0.078 C 
BRANCH   2   3
ATOM      3  C   LIG    1       -1.412  -0.526   0.013  0.00  0.00    +0.163 C 
ATOM      4  O   LIG    1       -2.344   0.250   0.026  0.00  0.00    -0.292 OA
BRANCH   3  11
ATOM      5  C   LIG    1       -0.587  -2.872  -0.013  0.00  0.00    +0.014 A 
ATOM      6  C   LIG    1       -0.827  -4.228  -0.013  0.00  0.00    +0.039 A 
ATOM      7  C   LIG    1       -2.130  -4.705  -0.003  0.00  0.00    +0.123 A 
ATOM      8  F   LIG    1       -2.359  -6.037  -0.007  0.00  0.00    -0.205 F 
ATOM      9  C   LIG    1       -3.199  -3.821   0.012  0.00  0.00    +0.039 A 
ATOM     10  C   LIG    1       -2.972  -2.462   0.017  0.00  0.00    +0.014 A 
ATOM     11  C   LIG    1       -1.661  -1.975   0.007  0.00  0.00    +0.018 A 
ENDBRANCH   3  11
ENDBRANCH   2   3
ENDBRANCH   1   2
BRANCH   1  12
ATOM     12  C   LIG    1        1.417   2.055  -0.000  0.00  0.00    -0.078 C 
BRANCH  12  13
ATOM     13  N   LIG    1        1.379   3.532   0.031  0.00  0.00    +0.380 N 
ATOM     14  H   LIG    1        0.782   3.834   0.809  0.00  0.00    -0.082 HD
ATOM     15  C   LIG    1        2.742   4.067   0.236  0.00  0.00    -0.076 C 
ATOM     16  C   LIG    1        2.661   5.589   0.383  0.00  0.00    +0.013 C 
ATOM     17  C   LIG    1        2.057   6.188  -0.890  0.00  0.00    +0.111 C 
ATOM     18  C   LIG    1        0.677   5.570  -1.131  0.00  0.00    +0.013 C 
ATOM     19  C   LIG    1        0.816   4.049  -1.234  0.00  0.00    -0.076 C 
BRANCH  17  20
ATOM     20  O   LIG    1        1.926   7.603  -0.736  0.00  0.00    -0.392 OA
ATOM     21  H   LIG    1        1.550   8.049  -1.507  0.00  0.00    +0.210 HD
ENDBRANCH  17  20
ENDBRANCH  12  13
ENDBRANCH   1  12
TORSDOF 6
