REMARK  Name = ZINC04844756
REMARK                            x       y       z     vdW  Elec       q    Type
REMARK                         _______ _______ _______ _____ _____    ______ ____
ROOT
ATOM      1  C   LIG    1        0.278   1.321  -0.302  0.00  0.00    +0.046 C 
ATOM      2  C   LIG    1        0.507  -0.168  -0.242  0.00  0.00    -0.024 A 
ATOM      3  C   LIG    1        0.688  -0.887  -1.409  0.00  0.00    +0.007 A 
ATOM      4  C   LIG    1        0.898  -2.252  -1.354  0.00  0.00    +0.033 A 
ATOM      5  C   LIG    1        0.927  -2.898  -0.132  0.00  0.00    +0.123 A 
ATOM      6  C   LIG    1        0.748  -2.179   1.035  0.00  0.00    +0.061 A 
ATOM      7  C   LIG    1        0.542  -0.813   0.980  0.00  0.00    +0.111 A 
ENDROOT
BRANCH   7   8
ATOM      8  S   LIG    1        0.319   0.105   2.467  0.00  0.00    +0.061 S 
ATOM      9  O   LIG    1        0.406  -0.827   3.536  0.00  0.00    -0.153 OA
ATOM     10  O   LIG    1       -0.820   0.931   2.268  0.00  0.00    -0.153 OA
BRANCH   8  11
ATOM     11  N   LIG    1        1.619   1.119   2.616  0.00  0.00    -0.183 NA
ATOM     12  C   LIG    1        2.880   0.617   3.169  0.00  0.00    +0.131 C 
ATOM     13  C   LIG    1        1.510   2.518   2.196  0.00  0.00    +0.131 C 
ENDBRANCH   8  11
ENDBRANCH   7   8
BRANCH   5  14
ATOM     14  N   LIG    1        1.151  -4.360  -0.073  0.00  0.00    +0.006 N 
ATOM     15  O   LIG    1        1.308  -4.989  -1.093  0.00  0.00    -0.130 OA
BRANCH  14  16
ATOM     16  O   LIG    1        1.177  -4.925   0.996  0.00  0.00    -0.396 OA
ATOM     17  H   LIG    1        1.055  -4.437   1.786  0.00  0.00    +0.329 HD
ENDBRANCH  14  16
ENDBRANCH   5  14
TORSDOF 4
