REMARK  Name = ZINC05418039
REMARK                            x       y       z     vdW  Elec       q    Type
REMARK                         _______ _______ _______ _____ _____    ______ ____
ROOT
ATOM      1  C   LIG    1       -6.391  -3.147  -2.670  0.00  0.00    +0.044 C 
ATOM      2  C   LIG    1       -5.189  -2.257  -2.849  0.00  0.00    -0.050 A 
ATOM      3  C   LIG    1       -4.619  -2.114  -4.107  0.00  0.00    +0.005 A 
ATOM      4  C   LIG    1       -3.520  -1.305  -4.293  0.00  0.00    +0.026 A 
ATOM      5  C   LIG    1       -2.972  -0.624  -3.211  0.00  0.00    +0.047 A 
ATOM      6  C   LIG    1       -3.553  -0.773  -1.938  0.00  0.00    +0.003 A 
ATOM      7  C   LIG    1       -2.757   0.057  -1.034  0.00  0.00    -0.018 A 
ATOM      8  C   LIG    1       -1.794   0.639  -1.768  0.00  0.00    +0.032 A 
ATOM      9  C   LIG    1       -0.751   1.592  -1.233  0.00  0.00    +0.121 C 
ATOM     10  C   LIG    1       -0.140   1.015   0.046  0.00  0.00    +0.019 C 
ATOM     11  C   LIG    1       -0.956   1.468   1.254  0.00  0.00    +0.001 C 
ATOM     12  C   LIG    1       -2.432   1.589   0.889  0.00  0.00    +0.005 C 
ATOM     13  C   LIG    1       -2.962   0.221   0.450  0.00  0.00    +0.037 C 
ATOM     14  N   LIG    1       -1.907   0.236  -3.073  0.00  0.00    -0.357 N 
ATOM     15  H   LIG    1       -1.321   0.517  -3.794  0.00  0.00    +0.166 HD
ATOM     16  C   LIG    1       -4.667  -1.599  -1.772  0.00  0.00    +0.013 A 
ENDROOT
BRANCH   9  17
ATOM     17  C   LIG    1       -1.393   2.920  -0.929  0.00  0.00    +0.219 C 
ATOM     18  N   LIG    1       -2.471   3.324  -1.629  0.00  0.00    -0.329 N 
ATOM     19  H   LIG    1       -2.885   4.179  -1.433  0.00  0.00    +0.145 HD
ATOM     20  H   LIG    1       -2.834   2.759  -2.330  0.00  0.00    +0.145 HD
ATOM     21  O   LIG    1       -0.940   3.627  -0.053  0.00  0.00    -0.275 OA
ENDBRANCH   9  17
TORSDOF 1
