REMARK  Name = ZINC05647678
REMARK                            x       y       z     vdW  Elec       q    Type
REMARK                         _______ _______ _______ _____ _____    ______ ____
ROOT
ATOM      1  C   LIG    1       -0.744   1.567   1.262  0.00  0.00    -0.026 C 
ATOM      2  C   LIG    1       -0.317   0.752   0.039  0.00  0.00    +0.027 C 
ATOM      3  C   LIG    1       -1.186   1.110  -1.140  0.00  0.00    -0.003 A 
ATOM      4  C   LIG    1       -0.750   0.781  -2.414  0.00  0.00    +0.007 A 
ATOM      5  C   LIG    1       -1.522   1.085  -3.517  0.00  0.00    +0.004 A 
ATOM      6  C   LIG    1       -2.739   1.722  -3.356  0.00  0.00    +0.049 A 
ATOM      7  C   LIG    1       -3.180   2.054  -2.087  0.00  0.00    +0.159 A 
ATOM      8  C   LIG    1       -2.400   1.749  -0.971  0.00  0.00    +0.165 A 
ATOM      9  O   LIG    1       -2.863   2.095   0.259  0.00  0.00    -0.490 OA
ATOM     10  C   LIG    1       -2.269   1.470   1.397  0.00  0.00    +0.214 C 
ENDROOT
BRANCH   1  11
ATOM     11  N   LIG    1       -0.116   1.036   2.490  0.00  0.00    +0.384 N 
ATOM     12  H   LIG    1       -0.533   1.502   3.305  0.00  0.00    -0.081 HD
BRANCH  11  13
ATOM     13  C   LIG    1       -0.356  -0.418   2.593  0.00  0.00    -0.079 C 
BRANCH  13  15
ATOM     14  C   LIG    1       -0.159  -2.401   4.101  0.00  0.00    +0.002 C 
ATOM     15  C   LIG    1        0.104  -0.899   3.971  0.00  0.00    -0.022 C 
ENDBRANCH  13  15
ENDBRANCH  11  13
BRANCH  11  16
ATOM     16  C   LIG    1        1.337   1.308   2.473  0.00  0.00    -0.079 C 
BRANCH  16  17
ATOM     17  C   LIG    1        1.565   2.777   2.836  0.00  0.00    -0.022 C 
ATOM     18  C   LIG    1        3.056   3.103   2.728  0.00  0.00    +0.002 C 
ENDBRANCH  16  17
ENDBRANCH  11  16
ENDBRANCH   1  11
BRANCH   7  19
ATOM     19  O   LIG    1       -4.377   2.680  -1.928  0.00  0.00    -0.503 OA
ATOM     20  H   LIG    1       -4.322   3.646  -1.947  0.00  0.00    +0.292 HD
ENDBRANCH   7  19
TORSDOF 6
