REMARK  Name = ZINC05418036
REMARK                            x       y       z     vdW  Elec       q    Type
REMARK                         _______ _______ _______ _____ _____    ______ ____
ROOT
ATOM      1  C   LIG    1        3.840  -3.529   4.856  0.00  0.00    +0.044 C 
ATOM      2  C   LIG    1        4.008  -2.597   3.683  0.00  0.00    -0.050 A 
ATOM      3  C   LIG    1        5.281  -2.316   3.204  0.00  0.00    +0.005 A 
ATOM      4  C   LIG    1        5.457  -1.469   2.133  0.00  0.00    +0.026 A 
ATOM      5  C   LIG    1        4.350  -0.886   1.524  0.00  0.00    +0.047 A 
ATOM      6  C   LIG    1        3.063  -1.170   2.015  0.00  0.00    +0.003 A 
ATOM      7  C   LIG    1        2.136  -0.409   1.178  0.00  0.00    -0.018 A 
ATOM      8  C   LIG    1        2.870   0.251   0.266  0.00  0.00    +0.032 A 
ATOM      9  C   LIG    1        2.311   1.150  -0.811  0.00  0.00    +0.121 C 
ATOM     10  C   LIG    1        1.277   2.099  -0.201  0.00  0.00    +0.019 C 
ATOM     11  C   LIG    1       -0.103   1.448  -0.240  0.00  0.00    +0.001 C 
ATOM     12  C   LIG    1        0.013  -0.063  -0.056  0.00  0.00    +0.005 C 
ATOM     13  C   LIG    1        0.636  -0.362   1.310  0.00  0.00    +0.037 C 
ATOM     14  N   LIG    1        4.198  -0.021   0.464  0.00  0.00    -0.357 N 
ATOM     15  H   LIG    1        4.925   0.343  -0.066  0.00  0.00    +0.166 HD
ATOM     16  C   LIG    1        2.908  -2.034   3.101  0.00  0.00    +0.013 A 
ENDROOT
BRANCH   9  17
ATOM     17  C   LIG    1        3.429   1.953  -1.425  0.00  0.00    +0.219 C 
ATOM     18  N   LIG    1        4.039   1.514  -2.543  0.00  0.00    -0.329 N 
ATOM     19  H   LIG    1        4.758   2.031  -2.938  0.00  0.00    +0.145 HD
ATOM     20  H   LIG    1        3.759   0.681  -2.953  0.00  0.00    +0.145 HD
ATOM     21  O   LIG    1        3.779   2.995  -0.912  0.00  0.00    -0.275 OA
ENDBRANCH   9  17
TORSDOF 1
