REMARK  Name = ZINC05162603
REMARK                            x       y       z     vdW  Elec       q    Type
REMARK                         _______ _______ _______ _____ _____    ______ ____
ROOT
ATOM      1  C   LIG    1        2.660   5.236   0.004  0.00  0.00    +0.169 A 
ATOM      2  N   LIG    1        3.819   5.193  -0.628  0.00  0.00    -0.128 NA
ATOM      3  N   LIG    1        4.389   4.056  -0.426  0.00  0.00    -0.125 NA
ATOM      4  C   LIG    1        3.628   3.307   0.345  0.00  0.00    +0.202 A 
ATOM      5  C   LIG    1        3.755   1.956   0.894  0.00  0.00    +0.162 A 
ATOM      6  N   LIG    1        2.802   1.466   1.655  0.00  0.00    -0.227 NA
ATOM      7  C   LIG    1        1.690   2.188   1.948  0.00  0.00    +0.090 A 
ATOM      8  C   LIG    1        0.694   1.634   2.763  0.00  0.00    +0.031 A 
ATOM      9  C   LIG    1       -0.436   2.362   3.058  0.00  0.00    +0.022 A 
ATOM     10  C   LIG    1       -0.591   3.650   2.563  0.00  0.00    +0.043 A 
ATOM     11 CL   LIG    1       -2.019   4.556   2.951  0.00  0.00    -0.083 Cl
ATOM     12  C   LIG    1        0.380   4.210   1.759  0.00  0.00    +0.048 A 
ATOM     13  C   LIG    1        1.525   3.490   1.445  0.00  0.00    +0.077 A 
ATOM     14  N   LIG    1        2.505   4.043   0.639  0.00  0.00    -0.271 N 
ENDROOT
BRANCH   1  18
ATOM     15  C   LIG    1       -0.070   8.489   0.045  0.00  0.00    +0.000 A 
ATOM     16  C   LIG    1        1.240   8.685   0.444  0.00  0.00    +0.001 A 
ATOM     17  C   LIG    1        2.132   7.632   0.433  0.00  0.00    +0.011 A 
ATOM     18  C   LIG    1        1.710   6.368   0.018  0.00  0.00    +0.020 A 
ATOM     19  C   LIG    1        0.388   6.179  -0.389  0.00  0.00    +0.011 A 
ATOM     20  C   LIG    1       -0.495   7.239  -0.367  0.00  0.00    +0.001 A 
ENDBRANCH   1  18
BRANCH   5  21
ATOM     21  N   LIG    1        4.875   1.197   0.613  0.00  0.00    -0.340 N 
ATOM     22  H   LIG    1        5.578   1.559   0.051  0.00  0.00    +0.144 HD
ATOM     23  H   LIG    1        4.959   0.302   0.977  0.00  0.00    +0.144 HD
ENDBRANCH   5  21
TORSDOF 2
