REMARK  Name = ZINC05425255
REMARK                            x       y       z     vdW  Elec       q    Type
REMARK                         _______ _______ _______ _____ _____    ______ ____
ROOT
ATOM      1  C   LIG    1        1.798   3.718   1.442  0.00  0.00    +0.083 C 
ENDROOT
BRANCH   1   2
ATOM      2  C   LIG    1        1.743   3.202   0.003  0.00  0.00    +0.066 C 
BRANCH   2   4
ATOM      3  C   LIG    1       -0.017   1.365   0.009  0.00  0.00    +0.105 A 
ATOM      4  C   LIG    1        1.267   1.772  -0.001  0.00  0.00    +0.034 A 
ATOM      5  N   LIG    1        2.048   0.681  -0.014  0.00  0.00    -0.350 N 
ATOM      6  H   LIG    1        3.018   0.686  -0.023  0.00  0.00    +0.166 HD
ATOM      7  C   LIG    1        1.297  -0.386  -0.012  0.00  0.00    +0.171 A 
ATOM      8  N   LIG    1        0.002  -0.004   0.002  0.00  0.00    -0.352 N 
ATOM      9  H   LIG    1       -0.771  -0.590   0.006  0.00  0.00    +0.166 HD
ENDBRANCH   2   4
ENDBRANCH   1   2
BRANCH   1  10
ATOM     10  S   LIG    1        2.370   5.439   1.446  0.00  0.00    -0.093 S 
BRANCH  10  11
ATOM     11  C   LIG    1        2.380   5.881   3.151  0.00  0.00    +0.123 C 
ATOM     12  N   LIG    1        3.253   6.782   3.601  0.00  0.00    -0.382 N 
ATOM     13  H   LIG    1        3.258   7.026   4.540  0.00  0.00    +0.158 HD
ATOM     14  H   LIG    1        3.884   7.194   2.990  0.00  0.00    +0.158 HD
BRANCH  11  15
ATOM     15  N   LIG    1        1.514   5.315   3.991  0.00  0.00    -0.340 N 
ATOM     16  H   LIG    1        1.519   5.559   4.930  0.00  0.00    +0.144 HD
ATOM     17  H   LIG    1        0.878   4.660   3.664  0.00  0.00    +0.144 HD
ENDBRANCH  11  15
ENDBRANCH  10  11
ENDBRANCH   1  10
TORSDOF 5
