REMARK  Name = ZINC05599905
REMARK                            x       y       z     vdW  Elec       q    Type
REMARK                         _______ _______ _______ _____ _____    ______ ____
ROOT
ATOM      1  C   LIG    1       -0.832   1.984  -1.095  0.00  0.00    -0.096 C 
ATOM      2  N   LIG    1       -0.047   1.479   0.039  0.00  0.00    +0.382 N 
ATOM      3  H   LIG    1       -0.502   1.770   0.912  0.00  0.00    -0.082 HD
ATOM      4  C   LIG    1        1.313   2.051   0.001  0.00  0.00    -0.031 C 
ATOM      5  C   LIG    1        2.060   1.785  -1.294  0.00  0.00    +0.023 C 
ATOM      6  C   LIG    1        2.703   0.424  -1.317  0.00  0.00    -0.041 A 
ATOM      7  C   LIG    1        2.791  -0.380  -0.201  0.00  0.00    +0.010 A 
ATOM      8  C   LIG    1        3.420  -1.616  -0.281  0.00  0.00    +0.163 A 
ATOM      9  C   LIG    1        3.957  -2.053  -1.487  0.00  0.00    +0.162 A 
ATOM     10  C   LIG    1        3.857  -1.247  -2.609  0.00  0.00    +0.049 A 
ATOM     11  C   LIG    1        2.214   0.044   1.125  0.00  0.00    +0.032 C 
ATOM     12  C   LIG    1        3.051  -0.510   2.274  0.00  0.00    +0.088 C 
ATOM     13  C   LIG    1        4.398   0.178   2.279  0.00  0.00    +0.134 C 
ATOM     14  C   LIG    1        4.424   1.690   2.238  0.00  0.00    +0.077 C 
ATOM     15  C   LIG    1        3.562   2.155   1.061  0.00  0.00    +0.041 C 
ATOM     16  O   LIG    1        5.423  -0.461   2.316  0.00  0.00    -0.297 OA
ATOM     17  C   LIG    1        0.783  -0.507   1.221  0.00  0.00    -0.004 C 
ATOM     18  C   LIG    1        3.234  -0.019  -2.522  0.00  0.00    +0.007 A 
ATOM     19  C   LIG    1        2.151   1.571   1.190  0.00  0.00    +0.065 C 
ATOM     20  C   LIG    1        0.002  -0.004   0.002  0.00  0.00    -0.078 C 
ENDROOT
BRANCH   8  21
ATOM     21  O   LIG    1        3.512  -2.402   0.825  0.00  0.00    -0.503 OA
ATOM     22  H   LIG    1        2.768  -3.009   0.939  0.00  0.00    +0.292 HD
ENDBRANCH   8  21
BRANCH   9  23
ATOM     23  O   LIG    1        4.574  -3.262  -1.564  0.00  0.00    -0.491 OA
ATOM     24  C   LIG    1        5.100  -3.641  -2.837  0.00  0.00    +0.277 C 
ENDBRANCH   9  23
BRANCH  19  25
ATOM     25  O   LIG    1        1.545   1.985   2.416  0.00  0.00    -0.389 OA
ATOM     26  H   LIG    1        1.477   2.944   2.517  0.00  0.00    +0.210 HD
ENDBRANCH  19  25
TORSDOF 3
