REMARK  Name = ZINC05115792
REMARK                            x       y       z     vdW  Elec       q    Type
REMARK                         _______ _______ _______ _____ _____    ______ ____
ROOT
ATOM      1  C   LIG    1       -1.216   5.539   4.946  0.00  0.00    +0.039 C 
ATOM      2  C   LIG    1       -1.027   4.572   5.914  0.00  0.00    +0.090 C 
ATOM      3  N   LIG    1       -0.123   4.726   6.923  0.00  0.00    -0.289 NA
ATOM      4  H   LIG    1        0.546   3.958   6.865  0.00  0.00    +0.125 HD
ATOM      5  C   LIG    1        0.577   5.896   6.909  0.00  0.00    +0.192 C 
ATOM      6  N   LIG    1        0.426   6.847   6.000  0.00  0.00    -0.274 NA
ATOM      7  H   LIG    1       -0.237   6.731   5.261  0.00  0.00    +0.126 HD
ATOM      8  C   LIG    1       -0.449   6.704   5.010  0.00  0.00    +0.126 C 
ENDROOT
BRANCH   5   9
ATOM      9  N   LIG    1        1.500   6.073   7.925  0.00  0.00    -0.303 NA
ATOM     10  H   LIG    1        2.027   6.887   7.965  0.00  0.00    +0.121 HD
ATOM     11  H   LIG    1        1.621   5.384   8.597  0.00  0.00    +0.121 HD
ENDBRANCH   5   9
BRANCH   8  12
ATOM     12  N   LIG    1       -0.601   7.699   4.058  0.00  0.00    -0.315 NA
ATOM     13  H   LIG    1       -0.064   8.505   4.109  0.00  0.00    +0.120 HD
ATOM     14  H   LIG    1       -1.244   7.588   3.340  0.00  0.00    +0.120 HD
ENDBRANCH   8  12
BRANCH   1  15
ATOM     15  C   LIG    1       -2.223   5.338   3.843  0.00  0.00    +0.042 C 
BRANCH  15  20
ATOM     16  C   LIG    1       -0.787   2.892   1.346  0.00  0.00    +0.120 A 
ATOM     17  C   LIG    1       -0.253   3.751   0.396  0.00  0.00    +0.045 A 
ATOM     18  C   LIG    1       -0.368   5.117   0.561  0.00  0.00    +0.004 A 
ATOM     19  C   LIG    1       -1.003   5.630   1.677  0.00  0.00    +0.004 A 
ATOM     20  C   LIG    1       -1.531   4.776   2.627  0.00  0.00    -0.044 A 
ATOM     21  C   LIG    1       -1.425   3.409   2.465  0.00  0.00    +0.049 A 
BRANCH  16  23
ATOM     22  C   LIG    1       -0.013   1.086   0.008  0.00  0.00    +0.277 C 
ATOM     23  O   LIG    1       -0.682   1.547   1.184  0.00  0.00    -0.495 OA
ENDBRANCH  16  23
ENDBRANCH  15  20
ENDBRANCH   1  15
TORSDOF 5
