REMARK  Name = ZINC05318265
REMARK                            x       y       z     vdW  Elec       q    Type
REMARK                         _______ _______ _______ _____ _____    ______ ____
ROOT
ATOM      1  C   LIG    1       -0.060  -0.523  -7.303  0.00  0.00    +0.121 A 
ATOM      2  C   LIG    1       -0.075   0.853  -7.476  0.00  0.00    +0.049 A 
ATOM      3  C   LIG    1       -0.099   1.390  -8.749  0.00  0.00    +0.044 A 
ATOM      4  C   LIG    1       -0.105   0.551  -9.852  0.00  0.00    +0.098 A 
ATOM      5  C   LIG    1       -0.083  -0.829  -9.679  0.00  0.00    +0.024 A 
ATOM      6  C   LIG    1       -0.066  -1.742 -10.887  0.00  0.00    +0.227 C 
ATOM      7  N   LIG    1       -0.768  -1.052 -11.969  0.00  0.00    -0.212 N 
ATOM      8  C   LIG    1       -1.547  -1.582 -13.083  0.00  0.00    +0.305 C 
ATOM      9  C   LIG    1       -1.967  -0.329 -13.833  0.00  0.00    +0.341 C 
ATOM     10  N   LIG    1       -1.457   0.698 -13.152  0.00  0.00    -0.005 NA
ATOM     11  O   LIG    1       -2.634  -0.273 -14.848  0.00  0.00    -0.251 OA
ATOM     12  C   LIG    1       -0.784   0.318 -12.096  0.00  0.00    +0.370 C 
ATOM     13  N   LIG    1       -0.143   1.093 -11.154  0.00  0.00    -0.207 N 
ATOM     14  H   LIG    1        0.255   1.950 -11.371  0.00  0.00    +0.251 HD
ATOM     15  C   LIG    1       -0.059  -1.364  -8.408  0.00  0.00    +0.055 A 
ENDROOT
BRANCH   1  16
ATOM     16  O   LIG    1       -0.041  -1.050  -6.050  0.00  0.00    -0.492 OA
BRANCH  16  17
ATOM     17  C   LIG    1       -0.043  -0.127  -4.959  0.00  0.00    +0.229 C 
BRANCH  17  18
ATOM     18  C   LIG    1       -0.020  -0.899  -3.638  0.00  0.00    +0.050 C 
BRANCH  18  19
ATOM     19  C   LIG    1       -0.023   0.089  -2.470  0.00  0.00    +0.099 C 
BRANCH  19  22
ATOM     20  C   LIG    1       -0.018   1.461   0.010  0.00  0.00    +0.132 C 
ATOM     21  N   LIG    1        0.002  -0.004   0.002  0.00  0.00    -0.301 N 
ATOM     22  C   LIG    1        0.000  -0.672  -1.169  0.00  0.00    +0.216 C 
ATOM     23  O   LIG    1        0.017  -1.884  -1.175  0.00  0.00    -0.276 OA
BRANCH  21  24
ATOM     24  C   LIG    1        0.024  -0.743   1.267  0.00  0.00    +0.076 C 
ATOM     25  C   LIG    1        1.276  -0.361   2.059  0.00  0.00    +0.022 C 
ATOM     26  C   LIG    1        1.299  -1.133   3.380  0.00  0.00    +0.002 C 
ATOM     27  C   LIG    1        0.052  -0.785   4.196  0.00  0.00    +0.000 C 
ATOM     28  C   LIG    1       -1.199  -1.167   3.404  0.00  0.00    +0.002 C 
ATOM     29  C   LIG    1       -1.222  -0.395   2.083  0.00  0.00    +0.022 C 
ENDBRANCH  21  24
ENDBRANCH  19  22
ENDBRANCH  18  19
ENDBRANCH  17  18
ENDBRANCH  16  17
ENDBRANCH   1  16
TORSDOF 6
