REMARK  Name = ZINC04970395
REMARK                            x       y       z     vdW  Elec       q    Type
REMARK                         _______ _______ _______ _____ _____    ______ ____
ROOT
ATOM      1  C   LIG    1        1.120  -2.188   1.328  0.00  0.00    +0.147 A 
ATOM      2  C   LIG    1        0.717  -3.178   0.444  0.00  0.00    +0.052 A 
ATOM      3  C   LIG    1        0.960  -4.506   0.737  0.00  0.00    -0.029 A 
ATOM      4  C   LIG    1        0.522  -5.582  -0.223  0.00  0.00    +0.045 C 
ATOM      5  C   LIG    1        1.605  -4.849   1.912  0.00  0.00    +0.046 A 
ATOM      6 CL   LIG    1        1.909  -6.518   2.279  0.00  0.00    -0.083 Cl
ATOM      7  C   LIG    1        2.008  -3.863   2.795  0.00  0.00    +0.052 A 
ATOM      8  C   LIG    1        1.772  -2.534   2.502  0.00  0.00    +0.151 A 
ENDROOT
BRANCH   8   9
ATOM      9  S   LIG    1        2.293  -1.278   3.624  0.00  0.00    +0.076 S 
ATOM     10  O   LIG    1        3.010  -0.320   2.857  0.00  0.00    -0.150 OA
ATOM     11  O   LIG    1        2.867  -1.943   4.740  0.00  0.00    -0.150 OA
BRANCH   9  12
ATOM     12  N   LIG    1        0.929  -0.518   4.175  0.00  0.00    -0.215 N 
ATOM     13  H   LIG    1        0.783   0.421   3.978  0.00  0.00    +0.174 HD
BRANCH  12  14
ATOM     14  C   LIG    1       -0.012  -1.228   4.924  0.00  0.00    +0.066 A 
ATOM     15  C   LIG    1       -1.370  -1.129   4.630  0.00  0.00    +0.027 A 
ATOM     16  C   LIG    1       -2.264  -1.853   5.402  0.00  0.00    +0.022 A 
ATOM     17  C   LIG    1       -1.785  -2.643   6.430  0.00  0.00    +0.111 A 
ATOM     18  N   LIG    1       -0.493  -2.715   6.683  0.00  0.00    -0.261 NA
ATOM     19  C   LIG    1        0.393  -2.048   5.970  0.00  0.00    +0.135 A 
ENDBRANCH  12  14
ENDBRANCH   9  12
ENDBRANCH   8   9
BRANCH   1  20
ATOM     20  O   LIG    1        0.882  -0.881   1.041  0.00  0.00    -0.490 OA
BRANCH  20  22
ATOM     21  C   LIG    1        0.041   0.909  -0.349  0.00  0.00    +0.048 C 
ATOM     22  C   LIG    1        0.114  -0.604  -0.132  0.00  0.00    +0.226 C 
ENDBRANCH  20  22
ENDBRANCH   1  20
TORSDOF 5
