REMARK  Name = ZINC05423825
REMARK                            x       y       z     vdW  Elec       q    Type
REMARK                         _______ _______ _______ _____ _____    ______ ____
ROOT
ATOM      1  C   LIG    1       -0.018   1.461   0.010  0.00  0.00    +0.175 C 
ATOM      2  N   LIG    1        0.002  -0.004   0.002  0.00  0.00    -0.246 N 
ATOM      3  C   LIG    1        0.005  -0.643  -1.161  0.00  0.00    +0.155 A 
ATOM      4  S   LIG    1        0.031  -2.337  -0.581  0.00  0.00    -0.013 S 
ATOM      5  C   LIG    1        0.035  -1.939   1.165  0.00  0.00    +0.254 A 
ATOM      6  N   LIG    1        0.021  -0.623   1.101  0.00  0.00    -0.142 NA
ENDROOT
BRANCH   3   7
ATOM      7  N   LIG    1       -0.009  -0.142  -2.454  0.00  0.00    -0.338 N 
ATOM      8  H   LIG    1       -0.005  -0.750  -3.209  0.00  0.00    +0.144 HD
ATOM      9  H   LIG    1       -0.023   0.816  -2.603  0.00  0.00    +0.144 HD
ENDBRANCH   3   7
BRANCH   5  10
ATOM     10  S   LIG    1        0.058  -3.004   2.569  0.00  0.00    +0.081 S 
ATOM     11  O   LIG    1       -1.187  -2.828   3.231  0.00  0.00    -0.151 OA
ATOM     12  O   LIG    1        1.303  -2.793   3.219  0.00  0.00    -0.151 OA
BRANCH  10  13
ATOM     13  N   LIG    1        0.077  -4.560   2.002  0.00  0.00    -0.202 NA
ATOM     14  H   LIG    1        0.091  -5.303   2.626  0.00  0.00    +0.144 HD
ATOM     15  H   LIG    1        0.074  -4.729   1.047  0.00  0.00    +0.144 HD
ENDBRANCH  10  13
ENDBRANCH   5  10
TORSDOF 3
