REMARK  Name = ZINC05218495
REMARK                            x       y       z     vdW  Elec       q    Type
REMARK                         _______ _______ _______ _____ _____    ______ ____
ROOT
ATOM      1  C   LIG    1       -5.331   2.054   1.442  0.00  0.00    +0.044 C 
ATOM      2  C   LIG    1       -4.461   1.165   0.592  0.00  0.00    -0.049 A 
ATOM      3  C   LIG    1       -4.881   0.799  -0.674  0.00  0.00    +0.005 A 
ATOM      4  C   LIG    1       -4.100  -0.034  -1.456  0.00  0.00    +0.025 A 
ATOM      5  C   LIG    1       -2.894  -0.497  -0.960  0.00  0.00    +0.052 A 
ATOM      6  C   LIG    1       -2.453  -0.099   0.293  0.00  0.00    +0.050 A 
ATOM      7  N   LIG    1       -1.174  -0.482   0.697  0.00  0.00    -0.331 N 
ATOM      8  H   LIG    1       -1.071  -1.078   1.456  0.00  0.00    +0.147 HD
ATOM      9  C   LIG    1        0.002  -0.004   0.002  0.00  0.00    +0.139 C 
ATOM     10  C   LIG    1        0.120  -0.473  -1.428  0.00  0.00    +0.037 C 
ATOM     11  C   LIG    1       -0.845  -1.080  -2.141  0.00  0.00    +0.017 C 
ATOM     12  C   LIG    1       -0.590  -1.509  -3.576  0.00  0.00    +0.058 C 
ATOM     13  C   LIG    1        0.394  -0.549  -4.242  0.00  0.00    -0.023 C 
ATOM     14  C   LIG    1        0.666  -0.999  -5.679  0.00  0.00    +0.011 C 
ATOM     15  C   LIG    1       -0.182   0.868  -4.241  0.00  0.00    +0.011 C 
ATOM     16  C   LIG    1        1.697  -0.581  -3.433  0.00  0.00    +0.086 C 
ATOM     17  C   LIG    1        1.383  -0.217  -2.012  0.00  0.00    +0.163 C 
ATOM     18  O   LIG    1        2.243   0.316  -1.339  0.00  0.00    -0.292 OA
ATOM     19  N   LIG    1       -2.083  -1.374  -1.671  0.00  0.00    -0.316 N 
ATOM     20  H   LIG    1       -2.429  -2.264  -1.844  0.00  0.00    +0.152 HD
ATOM     21  C   LIG    1       -3.246   0.718   1.083  0.00  0.00    +0.028 A 
ENDROOT
BRANCH   9  22
ATOM     22  C   LIG    1       -0.018   1.503   0.010  0.00  0.00    +0.012 A 
ATOM     23  C   LIG    1       -1.100   2.182  -0.518  0.00  0.00    +0.008 A 
ATOM     24  C   LIG    1       -1.121   3.564  -0.505  0.00  0.00    +0.001 A 
ATOM     25  C   LIG    1       -0.056   4.269   0.025  0.00  0.00    +0.003 A 
ATOM     26  C   LIG    1        1.028   3.591   0.548  0.00  0.00    +0.039 A 
ATOM     27  C   LIG    1        1.049   2.207   0.541  0.00  0.00    +0.129 A 
ATOM     28  F   LIG    1        2.109   1.544   1.053  0.00  0.00    -0.205 F 
ENDBRANCH   9  22
TORSDOF 1
