REMARK  Name = ZINC05011558
REMARK                            x       y       z     vdW  Elec       q    Type
REMARK                         _______ _______ _______ _____ _____    ______ ____
ROOT
ATOM      1  C   LIG    1        3.694  -0.687  -0.083  0.00  0.00    +0.232 C 
ATOM      2  N   LIG    1        4.858  -0.099  -0.077  0.00  0.00    -0.205 NA
ATOM      3  C   LIG    1        5.838  -1.049  -0.074  0.00  0.00    +0.152 C 
ATOM      4  C   LIG    1        5.130  -2.343  -0.080  0.00  0.00    +0.364 C 
ATOM      5  O   LIG    1        5.623  -3.455  -0.080  0.00  0.00    -0.243 OA
ATOM      6  C   LIG    1        7.200  -0.843  -0.068  0.00  0.00    +0.044 C 
ATOM      7  O   LIG    1        3.816  -2.029  -0.080  0.00  0.00    -0.402 OA
ENDROOT
BRANCH   1  11
ATOM      8  C   LIG    1       -0.019   1.371  -0.093  0.00  0.00    +0.000 A 
ATOM      9  C   LIG    1        1.165   2.087  -0.086  0.00  0.00    +0.001 A 
ATOM     10  C   LIG    1        2.375   1.425  -0.083  0.00  0.00    +0.013 A 
ATOM     11  C   LIG    1        2.403   0.029  -0.087  0.00  0.00    +0.037 A 
ATOM     12  C   LIG    1        1.204  -0.687  -0.094  0.00  0.00    +0.013 A 
ATOM     13  C   LIG    1        0.001  -0.012  -0.097  0.00  0.00    +0.001 A 
ENDBRANCH   1  11
BRANCH   6  14
ATOM     14  C   LIG    1        7.736   0.518  -0.178  0.00  0.00    -0.005 A 
ATOM     15  C   LIG    1        6.876   1.629  -0.168  0.00  0.00    +0.011 A 
ATOM     16  C   LIG    1        7.434   2.889  -0.274  0.00  0.00    +0.020 A 
ATOM     17  C   LIG    1        8.808   3.016  -0.386  0.00  0.00    +0.111 A 
ATOM     18  N   LIG    1        9.594   1.956  -0.394  0.00  0.00    -0.263 NA
ATOM     19  C   LIG    1        9.116   0.734  -0.290  0.00  0.00    +0.118 A 
ENDBRANCH   6  14
TORSDOF 2
