REMARK  Name = ZINC05781224
REMARK                            x       y       z     vdW  Elec       q    Type
REMARK                         _______ _______ _______ _____ _____    ______ ____
ROOT
ATOM      1  N   LIG    1       -2.443   1.706   0.058  0.00  0.00    -0.312 N 
ATOM      2  H   LIG    1       -2.073   2.027  -0.779  0.00  0.00    +0.152 HD
ENDROOT
BRANCH   1   9
ATOM      3  C   LIG    1       -4.739   5.990   0.808  0.00  0.00    +0.045 C 
ATOM      4  C   LIG    1       -4.194   4.683   1.323  0.00  0.00    -0.030 A 
ATOM      5  C   LIG    1       -4.310   4.368   2.665  0.00  0.00    +0.006 A 
ATOM      6  C   LIG    1       -3.812   3.170   3.142  0.00  0.00    +0.022 A 
ATOM      7  C   LIG    1       -3.195   2.283   2.280  0.00  0.00    +0.064 A 
ATOM      8 CL   LIG    1       -2.569   0.779   2.881  0.00  0.00    -0.082 Cl
ATOM      9  C   LIG    1       -3.072   2.599   0.932  0.00  0.00    +0.069 A 
ATOM     10  C   LIG    1       -3.579   3.801   0.455  0.00  0.00    +0.066 A 
ATOM     11 CL   LIG    1       -3.435   4.198  -1.229  0.00  0.00    -0.081 Cl
ENDBRANCH   1   9
BRANCH   1  12
ATOM     12  C   LIG    1       -2.349   0.361   0.388  0.00  0.00    +0.045 A 
ATOM     13  C   LIG    1       -1.121  -0.189   0.737  0.00  0.00    +0.024 A 
ATOM     14  C   LIG    1       -1.032  -1.525   1.070  0.00  0.00    +0.002 A 
ATOM     15  C   LIG    1       -2.159  -2.331   1.049  0.00  0.00    +0.001 A 
ATOM     16  C   LIG    1       -3.384  -1.806   0.700  0.00  0.00    +0.017 A 
ATOM     17  C   LIG    1       -3.493  -0.453   0.365  0.00  0.00    +0.080 A 
BRANCH  17  18
ATOM     18  C   LIG    1       -4.800   0.115  -0.009  0.00  0.00    +0.341 C 
ATOM     19  O   LIG    1       -4.874   1.262  -0.401  0.00  0.00    -0.245 OA
BRANCH  18  20
ATOM     20  O   LIG    1       -5.913  -0.639   0.085  0.00  0.00    -0.464 OA
ATOM     21  C   LIG    1       -7.166  -0.014  -0.301  0.00  0.00    +0.280 C 
ENDBRANCH  18  20
ENDBRANCH  17  18
ENDBRANCH   1  12
TORSDOF 4
