REMARK  Name = ZINC05687459
REMARK                            x       y       z     vdW  Elec       q    Type
REMARK                         _______ _______ _______ _____ _____    ______ ____
ROOT
ATOM      1  C   LIG    1       -0.017   1.375   0.010  0.00  0.00    +0.002 A 
ATOM      2  C   LIG    1        1.170   2.095   0.002  0.00  0.00    +0.002 A 
ATOM      3  C   LIG    1        2.375   1.452  -0.013  0.00  0.00    +0.030 A 
ATOM      4  C   LIG    1        2.419   0.054  -0.021  0.00  0.00    +0.090 A 
ATOM      5  C   LIG    1        1.217  -0.676  -0.013  0.00  0.00    +0.067 A 
ATOM      6  N   LIG    1        1.575  -2.010  -0.024  0.00  0.00    -0.337 N 
ATOM      7  C   LIG    1        2.942  -2.062  -0.038  0.00  0.00    +0.159 A 
ATOM      8  H   LIG    1        0.970  -2.768  -0.022  0.00  0.00    +0.167 HD
ATOM      9  N   LIG    1        3.433  -0.846  -0.036  0.00  0.00    -0.226 NA
ATOM     10  C   LIG    1        0.002  -0.004   0.002  0.00  0.00    +0.028 A 
ENDROOT
BRANCH   7  11
ATOM     11  C   LIG    1        3.746  -3.303  -0.052  0.00  0.00    +0.127 A 
ATOM     12  C   LIG    1        5.155  -3.380  -0.060  0.00  0.00    +0.052 A 
ATOM     13  C   LIG    1        5.497  -4.686  -0.072  0.00  0.00    +0.105 A 
ATOM     14  N   LIG    1        4.361  -5.416  -0.071  0.00  0.00    -0.284 N 
ATOM     15  H   LIG    1        4.308  -6.385  -0.079  0.00  0.00    +0.188 HD
ATOM     16  N   LIG    1        3.274  -4.534  -0.053  0.00  0.00    -0.171 NA
ENDBRANCH   7  11
TORSDOF 1
