REMARK  Name = ZINC05029557
REMARK                            x       y       z     vdW  Elec       q    Type
REMARK                         _______ _______ _______ _____ _____    ______ ____
ROOT
ATOM      1  C   LIG    1        0.234   1.565  -0.098  0.00  0.00    +0.012 C 
ATOM      2  C   LIG    1        0.119   0.040  -0.137  0.00  0.00    +0.013 C 
ATOM      3  C   LIG    1        0.873  -0.500  -1.353  0.00  0.00    +0.011 C 
ATOM      4  C   LIG    1        0.857  -2.031  -1.317  0.00  0.00    -0.003 C 
ATOM      5  C   LIG    1        1.653  -2.510  -0.094  0.00  0.00    +0.002 C 
ATOM      6  C   LIG    1        0.960  -2.028   1.186  0.00  0.00    -0.007 C 
ATOM      7  C   LIG    1       -0.414  -2.699   1.259  0.00  0.00    +0.016 C 
ATOM      8  C   LIG    1        1.768  -2.478   2.390  0.00  0.00    +0.019 C 
ATOM      9  C   LIG    1        1.379  -1.699   3.653  0.00  0.00    +0.080 C 
ATOM     10  C   LIG    1        1.605  -0.228   3.362  0.00  0.00    +0.156 C 
ATOM     11  O   LIG    1        2.230   0.484   4.119  0.00  0.00    -0.293 OA
ATOM     12  C   LIG    1        1.027   0.288   2.116  0.00  0.00    +0.046 C 
ATOM     13  C   LIG    1        1.760  -4.031  -0.048  0.00  0.00    +0.005 C 
ATOM     14  C   LIG    1        2.329  -4.601  -1.357  0.00  0.00    +0.011 C 
ATOM     15  C   LIG    1        1.419  -4.139  -2.478  0.00  0.00    +0.018 C 
ATOM     16  C   LIG    1       -0.026  -4.541  -2.174  0.00  0.00    +0.016 C 
ATOM     17  C   LIG    1        1.794  -4.587  -3.887  0.00  0.00    +0.176 C 
ATOM     18  C   LIG    1        1.353  -3.397  -4.827  0.00  0.00    +0.057 C 
ATOM     19  C   LIG    1        0.822  -2.279  -3.888  0.00  0.00    +0.009 C 
ATOM     20  C   LIG    1        1.529  -2.580  -2.562  0.00  0.00    +0.003 C 
ATOM     21  C   LIG    1        0.730  -0.548   1.122  0.00  0.00    -0.057 C 
ENDROOT
BRANCH  17  22
ATOM     22  C   LIG    1        1.045  -5.843  -4.252  0.00  0.00    +0.174 C 
ATOM     23  C   LIG    1        1.581  -7.188  -3.835  0.00  0.00    +0.090 C 
ATOM     24  O   LIG    1        0.015  -5.771  -4.880  0.00  0.00    -0.293 OA
ENDBRANCH  17  22
BRANCH  17  25
ATOM     25  O   LIG    1        3.203  -4.806  -3.978  0.00  0.00    -0.450 OA
BRANCH  25  26
ATOM     26  C   LIG    1        3.689  -5.154  -5.180  0.00  0.00    +0.305 C 
ATOM     27  C   LIG    1        5.149  -5.494  -5.333  0.00  0.00    +0.136 C 
ATOM     28  O   LIG    1        2.956  -5.195  -6.140  0.00  0.00    -0.251 OA
ENDBRANCH  25  26
ENDBRANCH  17  25
TORSDOF 3
