REMARK  Name = ZINC05121035
REMARK                            x       y       z     vdW  Elec       q    Type
REMARK                         _______ _______ _______ _____ _____    ______ ____
ROOT
ATOM      1  C   LIG    1        2.493  -4.625   1.005  0.00  0.00    +0.060 A 
ATOM      2  C   LIG    1        2.033  -4.641   2.316  0.00  0.00    +0.025 A 
ATOM      3  C   LIG    1        2.871  -4.269   3.347  0.00  0.00    +0.002 A 
ATOM      4  C   LIG    1        4.175  -3.877   3.085  0.00  0.00    +0.001 A 
ATOM      5  C   LIG    1        4.648  -3.854   1.791  0.00  0.00    +0.015 A 
ATOM      6  C   LIG    1        3.813  -4.233   0.737  0.00  0.00    +0.059 A 
ENDROOT
BRANCH   6   7
ATOM      7  C   LIG    1        4.315  -4.217  -0.649  0.00  0.00    +0.246 C 
ATOM      8  N   LIG    1        5.585  -3.841  -0.902  0.00  0.00    -0.307 N 
ATOM      9  H   LIG    1        6.168  -3.580  -0.172  0.00  0.00    +0.149 HD
ATOM     10  O   LIG    1        3.584  -4.544  -1.565  0.00  0.00    -0.270 OA
BRANCH   8  11
ATOM     11  C   LIG    1        6.083  -3.825  -2.280  0.00  0.00    +0.139 C 
BRANCH  11  12
ATOM     12  C   LIG    1        7.520  -3.369  -2.288  0.00  0.00    -0.030 A 
ATOM     13  C   LIG    1        7.818  -2.025  -2.404  0.00  0.00    +0.005 A 
ATOM     14  C   LIG    1        9.136  -1.607  -2.412  0.00  0.00    +0.000 A 
ATOM     15  C   LIG    1       10.155  -2.534  -2.304  0.00  0.00    +0.000 A 
ATOM     16  C   LIG    1        9.857  -3.879  -2.187  0.00  0.00    +0.000 A 
ATOM     17  C   LIG    1        8.539  -4.296  -2.175  0.00  0.00    +0.005 A 
ENDBRANCH  11  12
ENDBRANCH   8  11
ENDBRANCH   6   7
BRANCH   1  18
ATOM     18  N   LIG    1        1.651  -4.999  -0.034  0.00  0.00    -0.216 N 
ATOM     19  H   LIG    1        2.007  -5.479  -0.798  0.00  0.00    +0.174 HD
BRANCH  18  20
ATOM     20  S   LIG    1        0.038  -4.628   0.031  0.00  0.00    +0.072 S 
ATOM     21  O   LIG    1       -0.519  -5.017  -1.216  0.00  0.00    -0.150 OA
ATOM     22  O   LIG    1       -0.444  -5.128   1.270  0.00  0.00    -0.150 OA
BRANCH  20  27
ATOM     23  C   LIG    1       -0.400   1.383   0.314  0.00  0.00    +0.044 C 
ATOM     24  C   LIG    1       -0.290  -0.118   0.243  0.00  0.00    -0.050 A 
ATOM     25  C   LIG    1       -0.275  -0.753  -0.985  0.00  0.00    +0.005 A 
ATOM     26  C   LIG    1       -0.174  -2.130  -1.050  0.00  0.00    +0.029 A 
ATOM     27  C   LIG    1       -0.088  -2.872   0.114  0.00  0.00    +0.109 A 
ATOM     28  C   LIG    1       -0.103  -2.237   1.341  0.00  0.00    +0.029 A 
ATOM     29  C   LIG    1       -0.199  -0.860   1.406  0.00  0.00    +0.005 A 
ENDBRANCH  20  27
ENDBRANCH  18  20
ENDBRANCH   1  18
TORSDOF 6
