REMARK  Name = ZINC05344474
REMARK                            x       y       z     vdW  Elec       q    Type
REMARK                         _______ _______ _______ _____ _____    ______ ____
ROOT
ATOM      1  N   LIG    1        2.403   1.106  -0.015  0.00  0.00    -0.285 N 
ATOM      2  H   LIG    1        2.419   0.138   0.048  0.00  0.00    +0.155 HD
ATOM      3  C   LIG    1        3.556   1.794  -0.124  0.00  0.00    +0.224 C 
ATOM      4  O   LIG    1        3.542   3.006  -0.117  0.00  0.00    -0.275 OA
ENDROOT
BRANCH   1  11
ATOM      5  C   LIG    1        0.059   1.225  -0.586  0.00  0.00    +0.025 A 
ATOM      6  C   LIG    1       -1.145   1.902  -0.567  0.00  0.00    +0.022 A 
ATOM      7  C   LIG    1       -1.236   3.135   0.054  0.00  0.00    +0.041 A 
ATOM      8 CL   LIG    1       -2.752   3.981   0.083  0.00  0.00    -0.084 Cl
ATOM      9  C   LIG    1       -0.119   3.699   0.647  0.00  0.00    +0.022 A 
ATOM     10  C   LIG    1        1.088   3.028   0.626  0.00  0.00    +0.025 A 
ATOM     11  C   LIG    1        1.181   1.788   0.008  0.00  0.00    +0.033 A 
ENDBRANCH   1  11
BRANCH   3  12
ATOM     12  C   LIG    1        4.864   1.056  -0.253  0.00  0.00    +0.124 C 
ATOM     13  C   LIG    1        4.948   0.303  -1.618  0.00  0.00    +0.154 C 
ATOM     14  C   LIG    1        4.550   1.341  -2.670  0.00  0.00    +0.003 C 
ATOM     15  C   LIG    1        5.563   2.186  -2.765  0.00  0.00    +0.003 C 
ATOM     16  C   LIG    1        6.626   1.704  -1.775  0.00  0.00    +0.156 C 
ATOM     17  O   LIG    1        6.401   0.254  -1.823  0.00  0.00    -0.364 OA
ATOM     18  C   LIG    1        6.053   2.049  -0.364  0.00  0.00    +0.145 C 
BRANCH  18  19
ATOM     19  C   LIG    1        7.075   1.788   0.711  0.00  0.00    +0.311 C 
ATOM     20  O   LIG    1        6.899   0.897   1.509  0.00  0.00    -0.251 OA
BRANCH  19  21
ATOM     21  O   LIG    1        8.182   2.544   0.783  0.00  0.00    -0.480 OA
ATOM     22  H   LIG    1        8.318   3.235   0.165  0.00  0.00    +0.295 HD
ENDBRANCH  19  21
ENDBRANCH  18  19
ENDBRANCH   3  12
TORSDOF 4
