REMARK  Name = ZINC05819379
REMARK                            x       y       z     vdW  Elec       q    Type
REMARK                         _______ _______ _______ _____ _____    ______ ____
ROOT
ATOM      1  C   LIG    1        3.523   2.293  -0.019  0.00  0.00    +0.136 A 
ATOM      2  N   LIG    1        4.745   1.815  -0.034  0.00  0.00    -0.338 N 
ATOM      3  H   LIG    1        4.990   0.818  -0.042  0.00  0.00    +0.167 HD
ATOM      4  C   LIG    1        5.627   2.830  -0.037  0.00  0.00    +0.067 A 
ATOM      5  C   LIG    1        7.026   2.917  -0.050  0.00  0.00    +0.047 A 
ATOM      6  C   LIG    1        7.610   4.151  -0.049  0.00  0.00    +0.113 A 
ATOM      7  N   LIG    1        6.886   5.258  -0.036  0.00  0.00    -0.261 NA
ATOM      8  C   LIG    1        5.568   5.239  -0.023  0.00  0.00    +0.138 A 
ATOM      9  C   LIG    1        4.888   4.031  -0.023  0.00  0.00    +0.083 A 
ATOM     10  N   LIG    1        3.559   3.661  -0.018  0.00  0.00    -0.337 N 
ATOM     11  H   LIG    1        2.771   4.276  -0.014  0.00  0.00    +0.167 HD
ENDROOT
BRANCH   1  16
ATOM     12  C   LIG    1        1.220  -0.668  -0.013  0.00  0.00    +0.004 A 
ATOM     13  C   LIG    1        0.002  -0.004   0.002  0.00  0.00    +0.020 A 
ATOM     14  C   LIG    1       -0.017   1.380   0.010  0.00  0.00    +0.111 A 
ATOM     15  N   LIG    1        1.103   2.071   0.003  0.00  0.00    -0.252 NA
ATOM     16  C   LIG    1        2.289   1.475  -0.012  0.00  0.00    +0.104 A 
ATOM     17  C   LIG    1        2.383   0.084  -0.020  0.00  0.00    +0.031 A 
ENDBRANCH   1  16
TORSDOF 1
