REMARK  Name = ZINC05782223
REMARK                            x       y       z     vdW  Elec       q    Type
REMARK                         _______ _______ _______ _____ _____    ______ ____
ROOT
ATOM      1  C   LIG    1       -0.493  -2.236   3.530  0.00  0.00    +0.393 C 
ATOM      2  N   LIG    1       -0.866  -0.988   3.494  0.00  0.00    -0.129 NA
ATOM      3  H   LIG    1       -0.972  -0.489   4.319  0.00  0.00    +0.306 HD
ENDROOT
BRANCH   1   4
ATOM      4  N   LIG    1       -0.242  -2.914   2.359  0.00  0.00    -0.243 N 
ATOM      5  H   LIG    1       -0.070  -3.868   2.379  0.00  0.00    +0.265 HD
BRANCH   4  11
ATOM      6  C   LIG    1        0.763   1.166  -0.193  0.00  0.00    +0.044 C 
ATOM      7  C   LIG    1        0.246  -0.247  -0.125  0.00  0.00    -0.047 A 
ATOM      8  C   LIG    1       -0.224  -0.867  -1.269  0.00  0.00    +0.003 A 
ATOM      9  C   LIG    1       -0.700  -2.163  -1.211  0.00  0.00    +0.004 A 
ATOM     10  C   LIG    1       -0.707  -2.845  -0.009  0.00  0.00    +0.042 A 
ATOM     11  C   LIG    1       -0.235  -2.227   1.141  0.00  0.00    +0.100 A 
ATOM     12  C   LIG    1        0.247  -0.925   1.078  0.00  0.00    +0.045 A 
ENDBRANCH   4  11
ENDBRANCH   1   4
BRANCH   1  13
ATOM     13  N   LIG    1       -0.349  -2.877   4.743  0.00  0.00    -0.186 N 
ATOM     14  H   LIG    1       -0.614  -2.431   5.562  0.00  0.00    +0.271 HD
BRANCH  13  15
ATOM     15  C   LIG    1        0.171  -4.154   4.791  0.00  0.00    +0.385 C 
ATOM     16  N   LIG    1        0.651  -4.702   3.711  0.00  0.00    -0.129 NA
ATOM     17  H   LIG    1        1.017  -5.600   3.744  0.00  0.00    +0.306 HD
BRANCH  15  18
ATOM     18  N   LIG    1        0.183  -4.848   5.977  0.00  0.00    -0.289 N 
ATOM     19  H   LIG    1        0.549  -5.745   6.011  0.00  0.00    +0.255 HD
ATOM     20  H   LIG    1       -0.175  -4.439   6.781  0.00  0.00    +0.255 HD
ENDBRANCH  15  18
ENDBRANCH  13  15
ENDBRANCH   1  13
TORSDOF 5
