REMARK  Name = ZINC05819733
REMARK                            x       y       z     vdW  Elec       q    Type
REMARK                         _______ _______ _______ _____ _____    ______ ____
ROOT
ATOM      1  C   LIG    1        0.763  -2.041   1.233  0.00  0.00    +0.070 C 
ENDROOT
BRANCH   1   2
ATOM      2  C   LIG    1        1.612  -2.456   2.407  0.00  0.00    +0.087 A 
ATOM      3  C   LIG    1        2.896  -1.899   2.586  0.00  0.00    +0.200 A 
ATOM      4  C   LIG    1        3.674  -2.351   3.758  0.00  0.00    +0.064 A 
ATOM      5  C   LIG    1        4.950  -1.856   4.016  0.00  0.00    +0.015 A 
ATOM      6  C   LIG    1        5.643  -2.303   5.120  0.00  0.00    +0.001 A 
ATOM      7  C   LIG    1        5.074  -3.240   5.970  0.00  0.00    +0.004 A 
ATOM      8  C   LIG    1        3.811  -3.737   5.725  0.00  0.00    +0.047 A 
ATOM      9  C   LIG    1        3.097  -3.298   4.617  0.00  0.00    +0.143 A 
ATOM     10  O   LIG    1        1.859  -3.771   4.359  0.00  0.00    -0.425 OA
ATOM     11  O   LIG    1        3.346  -1.077   1.805  0.00  0.00    -0.287 OA
ATOM     12  C   LIG    1        1.144  -3.364   3.302  0.00  0.00    +0.292 A 
BRANCH  12  13
ATOM     13  O   LIG    1       -0.089  -3.881   3.117  0.00  0.00    -0.480 OA
ATOM     14  H   LIG    1       -0.605  -3.609   2.384  0.00  0.00    +0.295 HD
ENDBRANCH  12  13
ENDBRANCH   1   2
BRANCH   1  15
ATOM     15  C   LIG    1        1.450  -2.435  -0.049  0.00  0.00    +0.087 A 
ATOM     16  C   LIG    1        1.275  -3.731  -0.579  0.00  0.00    +0.200 A 
ATOM     17  C   LIG    1        1.978  -4.049  -1.838  0.00  0.00    +0.064 A 
ATOM     18  C   LIG    1        1.864  -5.303  -2.435  0.00  0.00    +0.015 A 
ATOM     19  C   LIG    1        2.536  -5.560  -3.611  0.00  0.00    +0.001 A 
ATOM     20  C   LIG    1        3.322  -4.578  -4.196  0.00  0.00    +0.004 A 
ATOM     21  C   LIG    1        3.443  -3.334  -3.614  0.00  0.00    +0.047 A 
ATOM     22  C   LIG    1        2.773  -3.055  -2.429  0.00  0.00    +0.143 A 
ATOM     23  O   LIG    1        2.876  -1.844  -1.843  0.00  0.00    -0.425 OA
ATOM     24  O   LIG    1        0.570  -4.555  -0.019  0.00  0.00    -0.287 OA
ATOM     25  C   LIG    1        2.239  -1.544  -0.704  0.00  0.00    +0.292 A 
BRANCH  25  26
ATOM     26  O   LIG    1        2.389  -0.307  -0.184  0.00  0.00    -0.480 OA
ATOM     27  H   LIG    1        1.951  -0.077   0.612  0.00  0.00    +0.295 HD
ENDBRANCH  25  26
ENDBRANCH   1  15
BRANCH   1  28
ATOM     28  C   LIG    1        0.563  -0.524   1.259  0.00  0.00    +0.013 C 
BRANCH  28  30
ATOM     29  C   LIG    1       -0.411   1.426   0.038  0.00  0.00    +0.004 C 
ATOM     30  C   LIG    1       -0.211  -0.090   0.012  0.00  0.00    -0.002 C 
ENDBRANCH  28  30
ENDBRANCH   1  28
TORSDOF 6
