REMARK  Name = ZINC05447704
REMARK                            x       y       z     vdW  Elec       q    Type
REMARK                         _______ _______ _______ _____ _____    ______ ____
ROOT
ATOM      1  C   LIG    1        0.296   2.135   0.157  0.00  0.00    +0.060 C 
ATOM      2  C   LIG    1        0.084   0.627   0.006  0.00  0.00    +0.124 C 
ATOM      3  C   LIG    1       -1.417   0.330  -0.024  0.00  0.00    +0.060 C 
ATOM      4  C   LIG    1        0.707   0.164  -1.284  0.00  0.00    +0.020 C 
ATOM      5  C   LIG    1        1.984  -0.214  -1.309  0.00  0.00    +0.015 C 
ATOM      6  C   LIG    1        2.744  -0.174  -0.042  0.00  0.00    +0.059 A 
ATOM      7  C   LIG    1        4.135  -0.220  -0.031  0.00  0.00    +0.142 A 
ATOM      8  C   LIG    1        4.807  -0.184   1.197  0.00  0.00    +0.107 A 
ATOM      9  C   LIG    1        6.279  -0.249   1.255  0.00  0.00    +0.204 A 
ATOM     10  C   LIG    1        6.862  -0.504   2.589  0.00  0.00    +0.069 A 
ATOM     11  C   LIG    1        8.207  -0.848   2.732  0.00  0.00    +0.019 A 
ATOM     12  C   LIG    1        8.719  -1.088   3.976  0.00  0.00    +0.050 A 
ATOM     13  C   LIG    1        7.904  -0.991   5.100  0.00  0.00    +0.162 A 
ATOM     14  C   LIG    1        6.565  -0.646   4.975  0.00  0.00    +0.202 A 
ATOM     15  C   LIG    1        6.029  -0.394   3.714  0.00  0.00    +0.184 A 
ATOM     16  O   LIG    1        4.733  -0.042   3.590  0.00  0.00    -0.450 OA
ATOM     17  O   LIG    1        6.972  -0.101   0.264  0.00  0.00    -0.286 OA
ATOM     18  C   LIG    1        4.090  -0.092   2.405  0.00  0.00    +0.150 A 
ATOM     19  C   LIG    1        2.702  -0.048   2.373  0.00  0.00    +0.047 A 
ATOM     20  C   LIG    1        2.030  -0.089   1.166  0.00  0.00    +0.140 A 
ATOM     21  O   LIG    1        0.675  -0.046   1.119  0.00  0.00    -0.481 OA
ENDROOT
BRANCH  19  22
ATOM     22  C   LIG    1        1.924   0.044   3.661  0.00  0.00    +0.015 C 
ATOM     23  C   LIG    1        2.337  -1.101   4.588  0.00  0.00    +0.020 C 
ATOM     24  C   LIG    1        0.427  -0.056   3.361  0.00  0.00    +0.020 C 
BRANCH  22  25
ATOM     25  C   LIG    1        2.215   1.363   4.330  0.00  0.00    -0.023 C 
ATOM     26  C   LIG    1        3.040   2.213   3.771  0.00  0.00    +0.005 C 
ENDBRANCH  22  25
ENDBRANCH  19  22
BRANCH   7  27
ATOM     27  O   LIG    1        4.830  -0.300  -1.192  0.00  0.00    -0.505 OA
ATOM     28  H   LIG    1        5.061   0.559  -1.572  0.00  0.00    +0.292 HD
ENDBRANCH   7  27
BRANCH  13  29
ATOM     29  O   LIG    1        8.423  -1.238   6.331  0.00  0.00    -0.503 OA
ATOM     30  H   LIG    1        8.786  -0.455   6.768  0.00  0.00    +0.292 HD
ENDBRANCH  13  29
BRANCH  14  31
ATOM     31  O   LIG    1        5.778  -0.555   6.081  0.00  0.00    -0.501 OA
ATOM     32  H   LIG    1        5.763   0.325   6.482  0.00  0.00    +0.292 HD
ENDBRANCH  14  31
TORSDOF 5
