REMARK  Name = ZINC05582846
REMARK                            x       y       z     vdW  Elec       q    Type
REMARK                         _______ _______ _______ _____ _____    ______ ____
ROOT
ATOM      1  N   LIG    1        1.238  -2.077  -0.021  0.00  0.00    -0.214 N 
ATOM      2  H   LIG    1        2.098  -2.556  -0.032  0.00  0.00    +0.174 HD
ENDROOT
BRANCH   1   7
ATOM      3  C   LIG    1       -0.017   1.377   0.010  0.00  0.00    +0.002 A 
ATOM      4  C   LIG    1        1.171   2.086   0.002  0.00  0.00    +0.002 A 
ATOM      5  C   LIG    1        2.380   1.416  -0.013  0.00  0.00    +0.030 A 
ATOM      6  C   LIG    1        2.406   0.035  -0.021  0.00  0.00    +0.127 A 
ATOM      7  C   LIG    1        1.215  -0.681  -0.013  0.00  0.00    +0.074 A 
ATOM      8  C   LIG    1        0.002  -0.004   0.002  0.00  0.00    +0.026 A 
BRANCH   6   9
ATOM      9  S   LIG    1        3.947  -0.818  -0.042  0.00  0.00    +0.058 S 
ATOM     10  O   LIG    1        4.962   0.176  -0.020  0.00  0.00    -0.153 OA
ATOM     11  O   LIG    1        3.858  -1.793  -1.071  0.00  0.00    -0.153 OA
BRANCH   9  12
ATOM     12  N   LIG    1        4.067  -1.648   1.387  0.00  0.00    -0.203 NA
ATOM     13  H   LIG    1        3.638  -1.303   2.185  0.00  0.00    +0.144 HD
ATOM     14  H   LIG    1        4.566  -2.479   1.425  0.00  0.00    +0.144 HD
ENDBRANCH   9  12
ENDBRANCH   6   9
ENDBRANCH   1   7
BRANCH   1  15
ATOM     15  S   LIG    1       -0.182  -2.928  -0.011  0.00  0.00    +0.078 S 
ATOM     16  O   LIG    1       -0.826  -2.658  -1.249  0.00  0.00    -0.150 OA
ATOM     17  O   LIG    1       -0.802  -2.671   1.242  0.00  0.00    -0.150 OA
BRANCH  15  18
ATOM     18  C   LIG    1        0.236  -4.640  -0.025  0.00  0.00    +0.184 A 
ATOM     19  C   LIG    1        0.394  -5.304  -1.229  0.00  0.00    +0.191 A 
ATOM     20  F   LIG    1        0.226  -4.640  -2.393  0.00  0.00    -0.200 F 
ATOM     21  C   LIG    1        0.722  -6.650  -1.240  0.00  0.00    +0.198 A 
ATOM     22  F   LIG    1        0.876  -7.299  -2.415  0.00  0.00    -0.199 F 
ATOM     23  C   LIG    1        0.893  -7.332  -0.045  0.00  0.00    +0.199 A 
ATOM     24  F   LIG    1        1.214  -8.644  -0.056  0.00  0.00    -0.199 F 
ATOM     25  C   LIG    1        0.735  -6.666   1.160  0.00  0.00    +0.198 A 
ATOM     26  F   LIG    1        0.901  -7.329   2.325  0.00  0.00    -0.199 F 
ATOM     27  C   LIG    1        0.412  -5.318   1.169  0.00  0.00    +0.191 A 
ATOM     28  F   LIG    1        0.263  -4.668   2.344  0.00  0.00    -0.200 F 
ENDBRANCH  15  18
ENDBRANCH   1  15
TORSDOF 5
