REMARK  Name = ZINC05732370
REMARK                            x       y       z     vdW  Elec       q    Type
REMARK                         _______ _______ _______ _____ _____    ______ ____
ROOT
ATOM      1  C   LIG    1       -0.787   2.890   1.346  0.00  0.00    +0.127 A 
ATOM      2  C   LIG    1       -0.254   3.743   0.386  0.00  0.00    +0.092 A 
ATOM      3  C   LIG    1       -0.358   5.113   0.543  0.00  0.00    +0.135 A 
ATOM      4  C   LIG    1       -1.003   5.632   1.675  0.00  0.00    +0.106 A 
ATOM      5  C   LIG    1       -1.541   4.769   2.644  0.00  0.00    +0.146 A 
ATOM      6  O   LIG    1       -2.163   5.255   3.738  0.00  0.00    -0.451 OA
ATOM      7  C   LIG    1       -2.316   6.573   3.983  0.00  0.00    +0.184 A 
ATOM      8  C   LIG    1       -2.973   6.994   5.139  0.00  0.00    +0.160 A 
ATOM      9  C   LIG    1       -3.133   8.343   5.396  0.00  0.00    +0.053 A 
ATOM     10  C   LIG    1       -2.645   9.294   4.515  0.00  0.00    +0.050 A 
ATOM     11  C   LIG    1       -1.989   8.900   3.361  0.00  0.00    +0.131 A 
ATOM     12  C   LIG    1       -1.823   7.537   3.091  0.00  0.00    +0.110 A 
ATOM     13  C   LIG    1       -1.128   7.087   1.870  0.00  0.00    +0.207 A 
ATOM     14  O   LIG    1       -0.680   7.880   1.062  0.00  0.00    -0.286 OA
ATOM     15  C   LIG    1       -1.431   3.397   2.464  0.00  0.00    +0.092 A 
ENDROOT
BRANCH   1  17
ATOM     16  C   LIG    1       -0.013   1.086   0.008  0.00  0.00    +0.277 C 
ATOM     17  O   LIG    1       -0.682   1.547   1.184  0.00  0.00    -0.495 OA
ENDBRANCH   1  17
BRANCH   3  18
ATOM     18  O   LIG    1        0.161   5.949  -0.391  0.00  0.00    -0.506 OA
ATOM     19  H   LIG    1        0.076   7.038  -0.262  0.00  0.00    +0.292 HD
ENDBRANCH   3  18
BRANCH   8  20
ATOM     20  O   LIG    1       -3.459   6.074   6.016  0.00  0.00    -0.503 OA
ATOM     21  H   LIG    1       -3.977   6.404   6.928  0.00  0.00    +0.292 HD
ENDBRANCH   8  20
BRANCH  11  22
ATOM     22  O   LIG    1       -1.510   9.831   2.497  0.00  0.00    -0.506 OA
ATOM     23  H   LIG    1       -0.989   9.515   1.581  0.00  0.00    +0.292 HD
ENDBRANCH  11  22
TORSDOF 4
