REMARK  Name = ZINC05665427
REMARK                            x       y       z     vdW  Elec       q    Type
REMARK                         _______ _______ _______ _____ _____    ______ ____
ROOT
ATOM      1  C   LIG    1        1.074  -4.070   2.421  0.00  0.00    +0.034 A 
ATOM      2  C   LIG    1        0.985  -4.663   3.673  0.00  0.00    +0.025 A 
ATOM      3  C   LIG    1        0.820  -6.030   3.779  0.00  0.00    +0.030 A 
ATOM      4  C   LIG    1        0.744  -6.809   2.639  0.00  0.00    +0.105 A 
ATOM      5  C   LIG    1        0.833  -6.221   1.390  0.00  0.00    +0.030 A 
ATOM      6  C   LIG    1        0.991  -4.854   1.277  0.00  0.00    +0.025 A 
ENDROOT
BRANCH   1   8
ATOM      7  C   LIG    1        0.655  -2.014   1.299  0.00  0.00    +0.220 C 
ATOM      8  N   LIG    1        1.241  -2.685   2.311  0.00  0.00    -0.285 N 
ATOM      9  H   LIG    1        1.778  -2.208   2.962  0.00  0.00    +0.155 HD
ATOM     10  O   LIG    1        0.054  -2.620   0.437  0.00  0.00    -0.275 OA
BRANCH   7  11
ATOM     11  C   LIG    1        0.748  -0.511   1.238  0.00  0.00    +0.072 C 
ATOM     12  C   LIG    1        2.218  -0.094   1.157  0.00  0.00    +0.017 C 
BRANCH  11  14
ATOM     13  C   LIG    1       -0.008   1.526   0.005  0.00  0.00    +0.004 C 
ATOM     14  C   LIG    1        0.005  -0.004   0.001  0.00  0.00    +0.009 C 
ENDBRANCH  11  14
ENDBRANCH   7  11
ENDBRANCH   1   8
BRANCH   4  15
ATOM     15  S   LIG    1        0.533  -8.552   2.777  0.00  0.00    +0.056 S 
ATOM     16  O   LIG    1        1.026  -8.920   4.059  0.00  0.00    -0.153 OA
ATOM     17  O   LIG    1        1.038  -9.119   1.576  0.00  0.00    -0.153 OA
BRANCH  15  18
ATOM     18  N   LIG    1       -1.095  -8.850   2.793  0.00  0.00    -0.204 NA
ATOM     19  H   LIG    1       -1.422  -9.760   2.864  0.00  0.00    +0.144 HD
ATOM     20  H   LIG    1       -1.724  -8.113   2.730  0.00  0.00    +0.144 HD
ENDBRANCH  15  18
ENDBRANCH   4  15
TORSDOF 5
