REMARK  Name = ZINC04882756
REMARK                            x       y       z     vdW  Elec       q    Type
REMARK                         _______ _______ _______ _____ _____    ______ ____
ROOT
ATOM      1  C   LIG    1        2.523   1.589  -0.014  0.00  0.00    +0.028 C 
ATOM      2  C   LIG    1        1.252   1.944  -0.331  0.00  0.00    +0.078 C 
ATOM      3  C   LIG    1        0.039   1.108  -0.438  0.00  0.00    +0.272 C 
ATOM      4  N   LIG    1       -1.079   1.728  -0.774  0.00  0.00    -0.189 N 
ATOM      5  C   LIG    1       -1.109   3.058  -0.996  0.00  0.00    +0.135 C 
ATOM      6  S   LIG    1       -2.447   4.033  -1.430  0.00  0.00    -0.026 S 
ATOM      7  O   LIG    1        0.069  -0.091  -0.234  0.00  0.00    -0.268 OA
ATOM      8  S   LIG    1        0.586   3.554  -0.733  0.00  0.00    -0.060 S 
ENDROOT
BRANCH   1  15
ATOM      9  C   LIG    1        3.378   3.810  -0.736  0.00  0.00    +0.011 A 
ATOM     10  C   LIG    1        4.401   4.727  -0.836  0.00  0.00    +0.039 A 
ATOM     11  C   LIG    1        5.662   4.420  -0.348  0.00  0.00    +0.123 A 
ATOM     12  F   LIG    1        6.662   5.322  -0.455  0.00  0.00    -0.205 F 
ATOM     13  C   LIG    1        5.902   3.191   0.249  0.00  0.00    +0.039 A 
ATOM     14  C   LIG    1        4.886   2.267   0.361  0.00  0.00    +0.011 A 
ATOM     15  C   LIG    1        3.611   2.570  -0.130  0.00  0.00    -0.024 A 
ENDBRANCH   1  15
BRANCH   4  16
ATOM     16  N   LIG    1       -2.232   1.005  -0.895  0.00  0.00    -0.246 NA
ATOM     17  H   LIG    1       -2.119   0.250  -1.554  0.00  0.00    +0.141 HD
ATOM     18  H   LIG    1       -3.006   1.599  -1.154  0.00  0.00    +0.141 HD
ENDBRANCH   4  16
TORSDOF 2
