REMARK  Name = ZINC05412091
REMARK                            x       y       z     vdW  Elec       q    Type
REMARK                         _______ _______ _______ _____ _____    ______ ____
ROOT
ATOM      1  C   LIG    1        0.814   1.238  -0.141  0.00  0.00    +0.068 C 
ATOM      2  C   LIG    1       -0.009  -0.015   0.009  0.00  0.00    +0.063 C 
ATOM      3  N   LIG    1       -0.387  -0.405   1.188  0.00  0.00    -0.185 NA
ENDROOT
BRANCH   2   4
ATOM      4  C   LIG    1       -0.386  -0.797  -1.183  0.00  0.00    -0.002 A 
ATOM      5  C   LIG    1       -1.655  -1.376  -1.268  0.00  0.00    +0.013 A 
ATOM      6  C   LIG    1       -2.003  -2.106  -2.384  0.00  0.00    +0.046 A 
ATOM      7  C   LIG    1       -1.095  -2.265  -3.423  0.00  0.00    +0.117 A 
ATOM      8  C   LIG    1        0.167  -1.692  -3.342  0.00  0.00    +0.046 A 
ATOM      9  C   LIG    1        0.522  -0.956  -2.233  0.00  0.00    +0.013 A 
BRANCH   7  10
ATOM     10  O   LIG    1       -1.443  -2.986  -4.521  0.00  0.00    -0.507 OA
ATOM     11  H   LIG    1       -1.852  -2.461  -5.223  0.00  0.00    +0.292 HD
ENDBRANCH   7  10
ENDBRANCH   2   4
BRANCH   3  12
ATOM     12  N   LIG    1       -1.026  -1.642   1.344  0.00  0.00    -0.218 N 
ATOM     13  H   LIG    1       -1.115  -2.242   0.587  0.00  0.00    +0.176 HD
BRANCH  12  14
ATOM     14  C   LIG    1       -1.518  -1.999   2.547  0.00  0.00    +0.147 C 
ATOM     15  S   LIG    1       -2.299  -3.511   2.739  0.00  0.00    -0.017 S 
BRANCH  14  16
ATOM     16  N   LIG    1       -1.394  -1.167   3.600  0.00  0.00    -0.339 N 
ATOM     17  H   LIG    1       -1.748  -1.423   4.465  0.00  0.00    +0.144 HD
ATOM     18  H   LIG    1       -0.952  -0.310   3.491  0.00  0.00    +0.144 HD
ENDBRANCH  14  16
ENDBRANCH  12  14
ENDBRANCH   3  12
TORSDOF 5
