REMARK  Name = ZINC05845906
REMARK                            x       y       z     vdW  Elec       q    Type
REMARK                         _______ _______ _______ _____ _____    ______ ____
ROOT
ATOM      1  C   LIG    1        5.632   3.559   0.723  0.00  0.00    +0.081 C 
ATOM      2  C   LIG    1        4.934   4.820   0.201  0.00  0.00    -0.065 C 
ATOM      3  N   LIG    1        3.541   4.816   0.690  0.00  0.00    +0.384 N 
ATOM      4  H   LIG    1        3.546   4.717   1.712  0.00  0.00    -0.085 HD
ATOM      5  H   LIG    1        3.094   5.704   0.435  0.00  0.00    -0.085 HD
ATOM      6  C   LIG    1        2.768   3.708   0.106  0.00  0.00    -0.036 C 
ATOM      7  C   LIG    1        1.465   3.541   0.901  0.00  0.00    +0.026 C 
ATOM      8  C   LIG    1        0.718   2.338   0.387  0.00  0.00    -0.023 A 
ATOM      9  C   LIG    1       -0.554   1.953   0.378  0.00  0.00    +0.087 A 
ATOM     10  N   LIG    1       -0.677   0.711  -0.225  0.00  0.00    -0.360 N 
ATOM     11  C   LIG    1        0.542   0.257  -0.630  0.00  0.00    +0.047 A 
ATOM     12  C   LIG    1        1.058  -0.872  -1.266  0.00  0.00    +0.026 A 
ATOM     13  C   LIG    1        2.429  -0.912  -1.490  0.00  0.00    +0.003 A 
ATOM     14  C   LIG    1        3.314   0.100  -1.125  0.00  0.00    +0.009 A 
ATOM     15  C   LIG    1        2.838   1.229  -0.497  0.00  0.00    -0.014 A 
ATOM     16  H   LIG    1       -1.512   0.232  -0.342  0.00  0.00    +0.165 HD
ATOM     17  C   LIG    1        1.447   1.257  -0.266  0.00  0.00    +0.010 A 
ATOM     18  C   LIG    1        3.562   2.434  -0.017  0.00  0.00    -0.057 C 
ATOM     19  C   LIG    1        4.851   2.359   0.260  0.00  0.00    -0.014 C 
ENDROOT
BRANCH   1  21
ATOM     20  N   LIG    1        8.001   2.865   0.879  0.00  0.00    -0.302 N 
ATOM     21  C   LIG    1        7.035   3.493   0.179  0.00  0.00    +0.221 C 
ATOM     22  O   LIG    1        7.296   4.004  -0.890  0.00  0.00    -0.275 OA
BRANCH  20  24
ATOM     23  C   LIG    1       10.115   4.091   0.963  0.00  0.00    +0.024 C 
ATOM     24  C   LIG    1        9.383   2.875   0.392  0.00  0.00    +0.104 C 
ENDBRANCH  20  24
BRANCH  20  25
ATOM     25  C   LIG    1        7.668   2.172   2.126  0.00  0.00    +0.104 C 
ATOM     26  C   LIG    1        7.422   0.690   1.837  0.00  0.00    +0.024 C 
ENDBRANCH  20  25
ENDBRANCH   1  21
TORSDOF 3
