REMARK  Name = ZINC05742707
REMARK                            x       y       z     vdW  Elec       q    Type
REMARK                         _______ _______ _______ _____ _____    ______ ____
ROOT
ATOM      1  C   LIG    1       -2.509   4.697   0.418  0.00  0.00    +0.001 A 
ATOM      2  C   LIG    1       -2.362   3.362   0.645  0.00  0.00    +0.008 A 
ATOM      3  C   LIG    1       -1.096   2.757   0.591  0.00  0.00    -0.017 A 
ATOM      4  C   LIG    1       -0.904   1.380   0.792  0.00  0.00    +0.008 A 
ATOM      5  C   LIG    1        0.357   0.865   0.734  0.00  0.00    +0.001 A 
ATOM      6  C   LIG    1        1.465   1.671   0.476  0.00  0.00    +0.009 A 
ATOM      7  C   LIG    1        1.318   3.010   0.276  0.00  0.00    +0.013 A 
ATOM      8  C   LIG    1        2.506   3.904   0.035  0.00  0.00    +0.189 C 
ATOM      9  O   LIG    1        2.115   5.074  -0.736  0.00  0.00    -0.440 OA
ATOM     10  C   LIG    1        1.047   5.779  -0.273  0.00  0.00    +0.341 C 
ATOM     11  O   LIG    1        1.082   6.987  -0.137  0.00  0.00    -0.245 OA
ATOM     12  C   LIG    1       -0.157   4.990   0.055  0.00  0.00    +0.067 A 
ATOM     13  C   LIG    1        0.031   3.562   0.315  0.00  0.00    +0.004 A 
ATOM     14  C   LIG    1       -1.427   5.522   0.120  0.00  0.00    +0.015 A 
ENDROOT
BRANCH   8  15
ATOM     15  C   LIG    1        3.559   3.138  -0.723  0.00  0.00    +0.005 A 
ATOM     16  C   LIG    1        4.426   2.302  -0.045  0.00  0.00    +0.012 A 
ATOM     17  C   LIG    1        5.389   1.594  -0.738  0.00  0.00    +0.046 A 
ATOM     18  C   LIG    1        5.492   1.732  -2.115  0.00  0.00    +0.117 A 
ATOM     19  C   LIG    1        4.624   2.575  -2.792  0.00  0.00    +0.046 A 
ATOM     20  C   LIG    1        3.659   3.276  -2.095  0.00  0.00    +0.012 A 
BRANCH  18  21
ATOM     21  O   LIG    1        6.443   1.042  -2.798  0.00  0.00    -0.507 OA
ATOM     22  H   LIG    1        7.283   1.512  -2.887  0.00  0.00    +0.292 HD
ENDBRANCH  18  21
ENDBRANCH   8  15
BRANCH   8  23
ATOM     23  C   LIG    1        3.071   4.348   1.359  0.00  0.00    +0.005 A 
ATOM     24  C   LIG    1        2.956   3.530   2.468  0.00  0.00    +0.012 A 
ATOM     25  C   LIG    1        3.478   3.932   3.682  0.00  0.00    +0.046 A 
ATOM     26  C   LIG    1        4.109   5.162   3.791  0.00  0.00    +0.117 A 
ATOM     27  C   LIG    1        4.219   5.984   2.678  0.00  0.00    +0.046 A 
ATOM     28  C   LIG    1        3.700   5.575   1.465  0.00  0.00    +0.012 A 
BRANCH  26  29
ATOM     29  O   LIG    1        4.619   5.563   4.986  0.00  0.00    -0.507 OA
ATOM     30  H   LIG    1        3.994   6.056   5.534  0.00  0.00    +0.292 HD
ENDBRANCH  26  29
ENDBRANCH   8  23
TORSDOF 4
