REMARK  Name = ZINC04992560
REMARK                            x       y       z     vdW  Elec       q    Type
REMARK                         _______ _______ _______ _____ _____    ______ ____
ROOT
ATOM      1  C   LIG    1       -1.219   2.192   0.020  0.00  0.00    +0.306 C 
ATOM      2  N   LIG    1       -1.165   3.489   0.026  0.00  0.00    -0.269 N 
ATOM      3  H   LIG    1       -0.301   4.044   0.024  0.00  0.00    +0.304 HD
ATOM      4  C   LIG    1       -2.528   4.045   0.035  0.00  0.00    +0.277 C 
ATOM      5  C   LIG    1       -3.444   2.805   0.033  0.00  0.00    +0.268 C 
ATOM      6  N   LIG    1       -2.494   1.681   0.018  0.00  0.00    -0.230 N 
ATOM      7  H   LIG    1       -2.728   0.739   0.011  0.00  0.00    +0.291 HD
ENDROOT
BRANCH   1  10
ATOM      8  C   LIG    1        2.091   0.641  -0.015  0.00  0.00    +0.042 A 
ATOM      9  C   LIG    1        1.273   1.784  -0.001  0.00  0.00    +0.057 A 
ATOM     10  C   LIG    1       -0.016   1.344   0.009  0.00  0.00    +0.213 A 
ATOM     11  O   LIG    1        0.002  -0.004   0.002  0.00  0.00    -0.456 OA
ATOM     12  C   LIG    1        1.272  -0.432  -0.012  0.00  0.00    +0.196 A 
ENDBRANCH   1  10
TORSDOF 1
