REMARK  Name = ZINC05750925
REMARK                            x       y       z     vdW  Elec       q    Type
REMARK                         _______ _______ _______ _____ _____    ______ ____
ROOT
ATOM      1  C   LIG    1       -0.018   1.503   0.010  0.00  0.00    +0.044 C 
ATOM      2  C   LIG    1        0.002  -0.004   0.002  0.00  0.00    -0.050 A 
ATOM      3  C   LIG    1        0.006  -0.689  -1.201  0.00  0.00    +0.005 A 
ATOM      4  C   LIG    1        0.024  -2.069  -1.224  0.00  0.00    +0.024 A 
ATOM      5  C   LIG    1        0.040  -2.788  -0.033  0.00  0.00    +0.046 A 
ATOM      6  C   LIG    1        0.036  -2.090   1.181  0.00  0.00    +0.030 A 
ATOM      7  C   LIG    1        0.056  -3.114   2.253  0.00  0.00    +0.173 C 
ATOM      8  C   LIG    1        0.070  -4.415   1.536  0.00  0.00    +0.273 C 
ATOM      9  O   LIG    1        0.087  -5.517   2.050  0.00  0.00    -0.268 OA
ATOM     10  N   LIG    1        0.059  -2.916   3.540  0.00  0.00    -0.082 NA
ATOM     11  N   LIG    1        0.059  -4.156   0.218  0.00  0.00    -0.261 N 
ATOM     12  C   LIG    1        0.023  -0.700   1.194  0.00  0.00    +0.015 A 
ENDROOT
BRANCH  10  13
ATOM     13  O   LIG    1        0.044  -1.597   4.054  0.00  0.00    -0.409 OA
ATOM     14  H   LIG    1        0.048  -1.551   5.020  0.00  0.00    +0.328 HD
ENDBRANCH  10  13
BRANCH  11  15
ATOM     15  C   LIG    1        0.068  -5.186  -0.825  0.00  0.00    +0.149 C 
BRANCH  15  16
ATOM     16  C   LIG    1        1.491  -5.519  -1.190  0.00  0.00    -0.029 A 
ATOM     17  C   LIG    1        2.130  -4.817  -2.195  0.00  0.00    +0.005 A 
ATOM     18  C   LIG    1        3.436  -5.123  -2.530  0.00  0.00    +0.001 A 
ATOM     19  C   LIG    1        4.103  -6.131  -1.859  0.00  0.00    +0.012 A 
ATOM     20  C   LIG    1        3.465  -6.833  -0.854  0.00  0.00    +0.055 A 
ATOM     21  C   LIG    1        2.160  -6.524  -0.516  0.00  0.00    +0.017 A 
BRANCH  20  22
ATOM     22  C   LIG    1        4.192  -7.933  -0.124  0.00  0.00    +0.417 C 
ATOM     23  F   LIG    1        3.506  -9.140  -0.296  0.00  0.00    -0.166 F 
ATOM     24  F   LIG    1        4.257  -7.624   1.239  0.00  0.00    -0.166 F 
ATOM     25  F   LIG    1        5.488  -8.055  -0.637  0.00  0.00    -0.166 F 
ENDBRANCH  20  22
ENDBRANCH  15  16
ENDBRANCH  11  15
TORSDOF 4
