REMARK  Name = ZINC05117356
REMARK                            x       y       z     vdW  Elec       q    Type
REMARK                         _______ _______ _______ _____ _____    ______ ____
ROOT
ATOM      1  C   LIG    1        2.915   0.809  -1.442  0.00  0.00    +0.114 A 
ATOM      2  N   LIG    1        4.110   1.193  -1.979  0.00  0.00    -0.326 N 
ATOM      3  C   LIG    1        4.119   0.795  -3.288  0.00  0.00    +0.167 A 
ATOM      4  C   LIG    1        2.886   0.172  -3.513  0.00  0.00    +0.172 A 
ATOM      5  C   LIG    1        2.611  -0.340  -4.802  0.00  0.00    +0.280 A 
ATOM      6  N   LIG    1        3.554  -0.204  -5.761  0.00  0.00    -0.293 N 
ATOM      7  C   LIG    1        4.736   0.413  -5.481  0.00  0.00    +0.195 A 
ATOM      8  H   LIG    1        3.383  -0.558  -6.681  0.00  0.00    +0.172 HD
ATOM      9  O   LIG    1        1.550  -0.891  -5.043  0.00  0.00    -0.265 OA
ATOM     10  N   LIG    1        5.003   0.893  -4.287  0.00  0.00    -0.197 NA
ATOM     11  H   LIG    1        4.845   1.676  -1.502  0.00  0.00    +0.169 HD
ATOM     12  N   LIG    1        2.196   0.213  -2.347  0.00  0.00    -0.225 NA
ENDROOT
BRANCH   7  13
ATOM     13  N   LIG    1        5.675   0.537  -6.474  0.00  0.00    -0.329 N 
ATOM     14  H   LIG    1        5.492   0.187  -7.361  0.00  0.00    +0.145 HD
ATOM     15  H   LIG    1        5.869   1.505  -6.632  0.00  0.00    +0.145 HD
ENDBRANCH   7  13
BRANCH   1  16
ATOM     16  C   LIG    1        2.490   1.048  -0.016  0.00  0.00    +0.109 C 
BRANCH  16  20
ATOM     17  C   LIG    1       -1.238   3.133   0.029  0.00  0.00    +0.000 A 
ATOM     18  C   LIG    1       -1.219   1.751   0.017  0.00  0.00    +0.000 A 
ATOM     19  C   LIG    1       -0.013   1.076   0.008  0.00  0.00    +0.004 A 
ATOM     20  C   LIG    1        1.175   1.783   0.000  0.00  0.00    -0.040 A 
ATOM     21  C   LIG    1        1.156   3.165   0.008  0.00  0.00    +0.004 A 
ATOM     22  C   LIG    1       -0.050   3.840   0.022  0.00  0.00    +0.000 A 
ENDBRANCH  16  20
ENDBRANCH   1  16
TORSDOF 3
