REMARK  Name = ZINC05115963
REMARK                            x       y       z     vdW  Elec       q    Type
REMARK                         _______ _______ _______ _____ _____    ______ ____
ROOT
ATOM      1  C   LIG    1        2.404   4.155   0.229  0.00  0.00    +0.120 C 
ATOM      2  C   LIG    1        3.590   3.469  -0.464  0.00  0.00    +0.126 C 
ATOM      3  N   LIG    1        3.686   2.087   0.017  0.00  0.00    -0.335 N 
ATOM      4  H   LIG    1        4.431   1.593  -0.451  0.00  0.00    +0.146 HD
ATOM      5  C   LIG    1        2.471   1.386  -0.092  0.00  0.00    +0.133 A 
ATOM      6  C   LIG    1        1.267   2.021  -0.152  0.00  0.00    +0.126 A 
ATOM      7  N   LIG    1        0.116   1.279  -0.240  0.00  0.00    -0.315 N 
ATOM      8  C   LIG    1        0.181  -0.080  -0.276  0.00  0.00    +0.195 A 
ATOM      9  N   LIG    1        1.337  -0.707  -0.226  0.00  0.00    -0.176 NA
ATOM     10  H   LIG    1       -0.772   1.737  -0.278  0.00  0.00    +0.170 HD
ATOM     11  C   LIG    1        2.490  -0.028  -0.135  0.00  0.00    +0.297 A 
ATOM     12  O   LIG    1        3.554  -0.630  -0.089  0.00  0.00    -0.264 OA
ATOM     13  N   LIG    1        1.192   3.402  -0.133  0.00  0.00    -0.322 N 
ATOM     14  H   LIG    1        0.365   3.860  -0.351  0.00  0.00    +0.148 HD
ENDROOT
BRANCH   8  15
ATOM     15  N   LIG    1       -0.977  -0.808  -0.366  0.00  0.00    -0.329 N 
ATOM     16  H   LIG    1       -0.941  -1.777  -0.393  0.00  0.00    +0.145 HD
ATOM     17  H   LIG    1       -1.834  -0.354  -0.404  0.00  0.00    +0.145 HD
ENDBRANCH   8  15
BRANCH   1  18
ATOM     18  C   LIG    1        2.283   5.601  -0.257  0.00  0.00    +0.164 C 
BRANCH  18  20
ATOM     19  C   LIG    1        3.348   7.860  -0.212  0.00  0.00    +0.040 C 
ATOM     20  C   LIG    1        3.513   6.394   0.190  0.00  0.00    +0.142 C 
BRANCH  20  21
ATOM     21  O   LIG    1        3.649   6.301   1.609  0.00  0.00    -0.389 OA
ATOM     22  H   LIG    1        4.410   6.782   1.963  0.00  0.00    +0.210 HD
ENDBRANCH  20  21
ENDBRANCH  18  20
BRANCH  18  23
ATOM     23  O   LIG    1        2.196   5.619  -1.683  0.00  0.00    -0.387 OA
ATOM     24  H   LIG    1        2.962   5.232  -2.128  0.00  0.00    +0.210 HD
ENDBRANCH  18  23
ENDBRANCH   1  18
TORSDOF 5
