REMARK  Name = ZINC05393942
REMARK                            x       y       z     vdW  Elec       q    Type
REMARK                         _______ _______ _______ _____ _____    ______ ____
ROOT
ATOM      1  C   LIG    1       -2.638   3.023  -5.102  0.00  0.00    +0.121 A 
ATOM      2  C   LIG    1       -3.693   3.290  -4.237  0.00  0.00    +0.047 A 
ATOM      3  C   LIG    1       -3.622   3.024  -2.882  0.00  0.00    +0.030 A 
ATOM      4  C   LIG    1       -2.436   2.469  -2.404  0.00  0.00    +0.049 A 
ATOM      5  C   LIG    1       -1.359   2.196  -3.285  0.00  0.00    +0.003 A 
ATOM      6  C   LIG    1       -0.297   1.632  -2.467  0.00  0.00    +0.029 A 
ATOM      7  C   LIG    1       -0.756   1.593  -1.206  0.00  0.00    +0.003 A 
ATOM      8  C   LIG    1       -0.013   1.086   0.008  0.00  0.00    -0.028 C 
ATOM      9  N   LIG    1       -0.709   1.572   1.219  0.00  0.00    +0.384 N 
ATOM     10  H   LIG    1       -0.580   2.587   1.299  0.00  0.00    -0.085 HD
ATOM     11  H   LIG    1       -0.313   1.110   2.046  0.00  0.00    -0.085 HD
ATOM     12  C   LIG    1       -2.152   1.269   1.136  0.00  0.00    -0.060 C 
ATOM     13  C   LIG    1       -2.815   2.177   0.094  0.00  0.00    +0.103 C 
ATOM     14  N   LIG    1       -2.041   2.092  -1.154  0.00  0.00    -0.347 N 
ATOM     15  C   LIG    1       -1.447   2.472  -4.653  0.00  0.00    +0.055 A 
ENDROOT
BRANCH   1  17
ATOM     16  C   LIG    1       -4.022   3.877  -6.837  0.00  0.00    +0.277 C 
ATOM     17  O   LIG    1       -2.777   3.310  -6.424  0.00  0.00    -0.495 OA
ENDBRANCH   1  17
TORSDOF 1
