REMARK  Name = ZINC05830973
REMARK                            x       y       z     vdW  Elec       q    Type
REMARK                         _______ _______ _______ _____ _____    ______ ____
ROOT
ATOM      1  C   LIG    1       -2.591   1.281  -0.057  0.00  0.00    +0.069 C 
ATOM      2  C   LIG    1       -1.319   2.082  -0.178  0.00  0.00    +0.083 C 
ATOM      3  N   LIG    1       -1.317   3.344   0.124  0.00  0.00    -0.184 NA
ENDROOT
BRANCH   2   4
ATOM      4  C   LIG    1       -0.080   1.431  -0.638  0.00  0.00    +0.104 A 
ATOM      5  C   LIG    1        0.615   1.944  -1.739  0.00  0.00    +0.140 A 
ATOM      6  N   LIG    1        1.721   1.354  -2.149  0.00  0.00    -0.260 NA
ATOM      7  C   LIG    1        2.173   0.280  -1.522  0.00  0.00    +0.130 A 
ATOM      8  C   LIG    1        1.489  -0.232  -0.433  0.00  0.00    +0.131 A 
ATOM      9  N   LIG    1        0.381   0.350  -0.012  0.00  0.00    -0.251 NA
ENDBRANCH   2   4
BRANCH   3  10
ATOM     10  N   LIG    1       -0.113   4.062   0.123  0.00  0.00    -0.218 N 
ATOM     11  H   LIG    1        0.839   3.539  -0.050  0.00  0.00    +0.176 HD
BRANCH  10  12
ATOM     12  C   LIG    1       -0.123   5.393   0.333  0.00  0.00    +0.147 C 
ATOM     13  S   LIG    1        1.347   6.271   0.331  0.00  0.00    -0.017 S 
BRANCH  12  14
ATOM     14  N   LIG    1       -1.289   6.034   0.544  0.00  0.00    -0.339 N 
ATOM     15  H   LIG    1       -2.234   5.471   0.545  0.00  0.00    +0.144 HD
ATOM     16  H   LIG    1       -1.297   7.121   0.716  0.00  0.00    +0.144 HD
ENDBRANCH  12  14
ENDBRANCH  10  12
ENDBRANCH   3  10
TORSDOF 4
