REMARK  Name = ZINC05115957
REMARK                            x       y       z     vdW  Elec       q    Type
REMARK                         _______ _______ _______ _____ _____    ______ ____
ROOT
ATOM      1  C   LIG    1       -0.089   1.244   0.106  0.00  0.00    +0.120 C 
ATOM      2  C   LIG    1       -0.820   1.919   1.276  0.00  0.00    +0.126 C 
ATOM      3  N   LIG    1       -0.148   1.556   2.528  0.00  0.00    -0.335 N 
ATOM      4  H   LIG    1       -0.577   2.017   3.316  0.00  0.00    +0.146 HD
ATOM      5  C   LIG    1        1.237   1.800   2.494  0.00  0.00    +0.133 A 
ATOM      6  C   LIG    1        1.933   1.887   1.325  0.00  0.00    +0.126 A 
ATOM      7  N   LIG    1        3.286   2.114   1.361  0.00  0.00    -0.315 N 
ATOM      8  C   LIG    1        3.922   2.259   2.554  0.00  0.00    +0.195 A 
ATOM      9  N   LIG    1        3.263   2.185   3.690  0.00  0.00    -0.176 NA
ATOM     10  H   LIG    1        3.805   2.173   0.508  0.00  0.00    +0.170 HD
ATOM     11  C   LIG    1        1.941   1.961   3.711  0.00  0.00    +0.297 A 
ATOM     12  O   LIG    1        1.345   1.897   4.777  0.00  0.00    -0.264 OA
ATOM     13  N   LIG    1        1.294   1.748   0.107  0.00  0.00    -0.322 N 
ATOM     14  H   LIG    1        1.743   1.977  -0.722  0.00  0.00    +0.148 HD
ENDROOT
BRANCH   8  15
ATOM     15  N   LIG    1        5.274   2.487   2.574  0.00  0.00    -0.329 N 
ATOM     16  H   LIG    1        5.769   2.544   1.741  0.00  0.00    +0.145 HD
ATOM     17  H   LIG    1        5.737   2.592   3.420  0.00  0.00    +0.145 HD
ENDBRANCH   8  15
BRANCH   1  18
ATOM     18  C   LIG    1       -0.774   1.603  -1.214  0.00  0.00    +0.164 C 
BRANCH  18  20
ATOM     19  C   LIG    1       -2.825   1.277  -2.602  0.00  0.00    +0.040 C 
ATOM     20  C   LIG    1       -2.161   0.959  -1.261  0.00  0.00    +0.142 C 
BRANCH  20  21
ATOM     21  O   LIG    1       -2.034  -0.457  -1.116  0.00  0.00    -0.389 OA
ATOM     22  H   LIG    1       -2.877  -0.931  -1.136  0.00  0.00    +0.210 HD
ENDBRANCH  20  21
ENDBRANCH  18  20
BRANCH  18  23
ATOM     23  O   LIG    1        0.013   1.119  -2.305  0.00  0.00    -0.387 OA
ATOM     24  H   LIG    1        0.142   0.161  -2.302  0.00  0.00    +0.210 HD
ENDBRANCH  18  23
ENDBRANCH   1  18
TORSDOF 5
