REMARK  Name = ZINC05060480
REMARK                            x       y       z     vdW  Elec       q    Type
REMARK                         _______ _______ _______ _____ _____    ______ ____
ROOT
ATOM      1  C   LIG    1       -0.014   1.208   0.009  0.00  0.00    +0.161 C 
ATOM      2  O   LIG    1        0.002  -0.004   0.002  0.00  0.00    -0.292 OA
ENDROOT
BRANCH   1   3
ATOM      3  C   LIG    1       -1.298   1.927   0.019  0.00  0.00    +0.019 A 
ATOM      4  C   LIG    1       -1.321   3.325   0.032  0.00  0.00    +0.013 A 
ATOM      5  C   LIG    1       -2.527   3.992   0.035  0.00  0.00    +0.022 A 
ATOM      6  C   LIG    1       -3.716   3.281   0.037  0.00  0.00    +0.059 A 
ATOM      7 CL   LIG    1       -5.230   4.129   0.048  0.00  0.00    -0.082 Cl
ATOM      8  C   LIG    1       -3.702   1.894   0.030  0.00  0.00    +0.060 A 
ATOM      9 CL   LIG    1       -5.197   1.013   0.032  0.00  0.00    -0.082 Cl
ATOM     10  C   LIG    1       -2.502   1.214   0.021  0.00  0.00    +0.032 A 
ENDBRANCH   1   3
BRANCH   1  11
ATOM     11  C   LIG    1        1.280   1.980   0.001  0.00  0.00    +0.061 C 
BRANCH  11  12
ATOM     12  C   LIG    1        2.457   1.001  -0.016  0.00  0.00    -0.072 C 
BRANCH  12  14
ATOM     13  C   LIG    1        3.898   2.494   1.232  0.00  0.00    -0.097 C 
ATOM     14  N   LIG    1        3.717   1.772  -0.045  0.00  0.00    +0.376 N 
ATOM     15  H   LIG    1        3.673   2.455  -0.811  0.00  0.00    -0.083 HD
ATOM     16  C   LIG    1        4.860   0.863  -0.278  0.00  0.00    -0.097 C 
ENDBRANCH  12  14
ENDBRANCH  11  12
ENDBRANCH   1  11
TORSDOF 4
