REMARK  Name = ZINC05009792
REMARK                            x       y       z     vdW  Elec       q    Type
REMARK                         _______ _______ _______ _____ _____    ______ ____
ROOT
ATOM      1  C   LIG    1       -1.428   1.848  -5.902  0.00  0.00    +0.059 A 
ATOM      2  C   LIG    1       -1.004   1.539  -7.200  0.00  0.00    +0.015 A 
ATOM      3  C   LIG    1        0.160   0.829  -7.391  0.00  0.00    +0.001 A 
ATOM      4  C   LIG    1        0.915   0.417  -6.303  0.00  0.00    +0.004 A 
ATOM      5  C   LIG    1        0.512   0.719  -5.018  0.00  0.00    +0.046 A 
ATOM      6  C   LIG    1       -0.660   1.429  -4.804  0.00  0.00    +0.131 A 
ENDROOT
BRANCH   1   7
ATOM      7  C   LIG    1       -2.668   2.605  -5.691  0.00  0.00    +0.167 C 
ATOM      8  O   LIG    1       -3.032   2.870  -4.565  0.00  0.00    -0.292 OA
BRANCH   7   9
ATOM      9  C   LIG    1       -3.489   3.052  -6.873  0.00  0.00    +0.084 C 
BRANCH   9  10
ATOM     10  C   LIG    1       -4.720   3.815  -6.380  0.00  0.00    +0.043 C 
BRANCH  10  14
ATOM     11  C   LIG    1       -7.046   5.083  -9.731  0.00  0.00    +0.000 A 
ATOM     12  C   LIG    1       -7.288   3.854  -9.147  0.00  0.00    +0.000 A 
ATOM     13  C   LIG    1       -6.535   3.443  -8.063  0.00  0.00    +0.003 A 
ATOM     14  C   LIG    1       -5.540   4.263  -7.562  0.00  0.00    -0.047 A 
ATOM     15  C   LIG    1       -5.302   5.494  -8.143  0.00  0.00    +0.003 A 
ATOM     16  C   LIG    1       -6.051   5.902  -9.231  0.00  0.00    +0.000 A 
ENDBRANCH  10  14
ENDBRANCH   9  10
ENDBRANCH   7   9
ENDBRANCH   1   7
BRANCH   6  17
ATOM     17  O   LIG    1       -1.060   1.721  -3.542  0.00  0.00    -0.489 OA
BRANCH  17  18
ATOM     18  C   LIG    1       -0.227   1.262  -2.475  0.00  0.00    +0.258 C 
BRANCH  18  19
ATOM     19  C   LIG    1       -0.835   1.683  -1.136  0.00  0.00    +0.135 C 
BRANCH  19  20
ATOM     20  O   LIG    1       -0.826   3.108  -1.036  0.00  0.00    -0.390 OA
ATOM     21  H   LIG    1        0.057   3.500  -1.084  0.00  0.00    +0.210 HD
ENDBRANCH  19  20
BRANCH  19  22
ATOM     22  C   LIG    1       -0.013   1.086   0.008  0.00  0.00    -0.044 C 
BRANCH  22  23
ATOM     23  N   LIG    1       -0.611   1.509   1.291  0.00  0.00    +0.381 N 
ATOM     24  H   LIG    1       -0.878   2.498   1.224  0.00  0.00    -0.082 HD
ATOM     25  C   LIG    1       -1.819   0.705   1.575  0.00  0.00    -0.079 C 
ATOM     26  C   LIG    1       -2.485   1.240   2.844  0.00  0.00    -0.019 C 
ATOM     27  C   LIG    1       -1.504   1.130   4.015  0.00  0.00    -0.004 C 
ATOM     28  C   LIG    1       -0.228   1.906   3.677  0.00  0.00    -0.019 C 
ATOM     29  C   LIG    1        0.373   1.351   2.383  0.00  0.00    -0.079 C 
ENDBRANCH  22  23
ENDBRANCH  19  22
ENDBRANCH  18  19
ENDBRANCH  17  18
ENDBRANCH   6  17
TORSDOF 10
