REMARK  Name = ZINC05579304
REMARK                            x       y       z     vdW  Elec       q    Type
REMARK                         _______ _______ _______ _____ _____    ______ ____
ROOT
ATOM      1  C   UNK A  0       -6.016  -1.573   2.702  0.00  0.00    +0.045 A 
ATOM      2  C   UNK A  0       -5.242  -1.497   3.863  0.00  0.00    +0.015 A 
ATOM      3  C   UNK A  0       -5.706  -0.800   4.955  0.00  0.00    +0.024 A 
ATOM      4  C   UNK A  0       -6.946  -0.167   4.911  0.00  0.00    +0.028 A 
ATOM      5  C   UNK A  0       -7.727  -0.234   3.764  0.00  0.00    +0.032 A 
ATOM      6  C   UNK A  0       -7.267  -0.929   2.653  0.00  0.00    -0.004 A 
ENDROOT
BRANCH   6   7
ATOM      7  C   UNK A  0       -8.093  -0.999   1.424  0.00  0.00    -0.017 A 
ATOM      8  C   UNK A  0       -7.600  -0.495   0.221  0.00  0.00    +0.008 A 
ATOM      9  C   UNK A  0       -8.373  -0.562  -0.920  0.00  0.00    +0.001 A 
ATOM     10  C   UNK A  0       -9.634  -1.129  -0.872  0.00  0.00    +0.000 A 
ATOM     11  C   UNK A  0      -10.128  -1.630   0.319  0.00  0.00    +0.001 A 
ATOM     12  C   UNK A  0       -9.362  -1.573   1.465  0.00  0.00    +0.008 A 
ENDBRANCH   6   7
BRANCH   1  15
ATOM     13  N   MET A  1       -4.271  -2.821   1.532  0.00  0.00    -0.298 N 
ATOM     14  H   MET A  1       -3.696  -2.692   2.303  0.00  0.00    +0.150 HD
ATOM     15  C   UNK A  0       -5.522  -2.319   1.532  0.00  0.00    +0.245 C 
ATOM     16  O   UNK A  0       -6.242  -2.482   0.566  0.00  0.00    -0.270 OA
BRANCH  13  17
ATOM     17  CA  MET A  1       -3.779  -3.563   0.368  0.00  0.00    +0.183 C 
BRANCH  17  18
ATOM     18  C   MET A  1       -4.203  -5.005   0.476  0.00  0.00    +0.325 C 
ATOM     19  O   MET A  1       -4.345  -5.519   1.573  0.00  0.00    -0.249 OA
BRANCH  18  20
ATOM     20  OXT MET A  1       -4.404  -5.659  -0.533  0.00  0.00    -0.479 OA
ATOM     21  HXT MET A  1       -4.295  -5.264  -1.376  0.00  0.00    +0.295 HD
ENDBRANCH  18  20
ENDBRANCH  17  18
BRANCH  17  22
ATOM     22  CB  MET A  1       -2.252  -3.483   0.320  0.00  0.00    +0.044 C 
BRANCH  22  23
ATOM     23  CG  MET A  1       -1.825  -2.033   0.086  0.00  0.00    +0.071 C 
BRANCH  23  25
ATOM     24  CE  MET A  1        0.324  -0.178  -0.252  0.00  0.00    +0.084 C 
ATOM     25  SD  MET A  1       -0.014  -1.938   0.029  0.00  0.00    -0.164 S 
ENDBRANCH  23  25
ENDBRANCH  22  23
ENDBRANCH  17  22
ENDBRANCH  13  17
ENDBRANCH   1  15
BRANCH   4  26
ATOM     26  N   UNK A  0       -7.406   0.535   6.021  0.00  0.00    -0.345 N 
ATOM     27  H   UNK A  0       -8.269   0.977   5.992  0.00  0.00    +0.146 HD
BRANCH  26  28
ATOM     28  C   UNK A  0       -6.585   0.608   7.233  0.00  0.00    +0.086 C 
BRANCH  28  29
ATOM     29  C   UNK A  0       -7.316   1.432   8.294  0.00  0.00    -0.048 C 
BRANCH  29  30
ATOM     30  N   UNK A  0       -8.651   0.863   8.524  0.00  0.00    +0.382 N 
ATOM     31  H   UNK A  0       -8.560  -0.090   8.842  0.00  0.00    -0.090 HD
ATOM     32  H   UNK A  0       -9.177   0.882   7.663  0.00  0.00    -0.090 HD
ATOM     33  H   UNK A  0       -9.133   1.407   9.224  0.00  0.00    -0.090 HD
ENDBRANCH  29  30
BRANCH  29  34
ATOM     34  C   UNK A  0       -6.519   1.404   9.600  0.00  0.00    +0.051 C 
BRANCH  34  35
ATOM     35  S   UNK A  0       -7.385   2.382  10.859  0.00  0.00    -0.180 S 
ATOM     36  H   UNK A  0       -6.598   2.283  11.945  0.00  0.00    +0.102 HD
ENDBRANCH  34  35
ENDBRANCH  29  34
ENDBRANCH  28  29
ENDBRANCH  26  28
ENDBRANCH   4  26
TORSDOF 14
