REMARK  Name = ZINC05674705
REMARK                            x       y       z     vdW  Elec       q    Type
REMARK                         _______ _______ _______ _____ _____    ______ ____
ROOT
ATOM      1  N   LIG    1       -1.199  -0.721   0.010  0.00  0.00    -0.281 N 
ATOM      2  H   LIG    1       -1.220  -1.627   0.357  0.00  0.00    +0.155 HD
ATOM      3  C   LIG    1       -2.324  -0.156  -0.469  0.00  0.00    +0.254 C 
ATOM      4  O   LIG    1       -2.279   0.941  -0.991  0.00  0.00    -0.270 OA
ENDROOT
BRANCH   3   5
ATOM      5  C   LIG    1       -3.610  -0.868  -0.360  0.00  0.00    +0.113 A 
ATOM      6  C   LIG    1       -4.423  -0.684   0.764  0.00  0.00    +0.176 A 
ATOM      7  F   LIG    1       -4.030   0.148   1.754  0.00  0.00    -0.201 F 
ATOM      8  C   LIG    1       -5.628  -1.354   0.860  0.00  0.00    +0.197 A 
ATOM      9  F   LIG    1       -6.414  -1.177   1.944  0.00  0.00    -0.199 F 
ATOM     10  C   LIG    1       -6.033  -2.209  -0.156  0.00  0.00    +0.199 A 
ATOM     11  F   LIG    1       -7.211  -2.862  -0.056  0.00  0.00    -0.199 F 
ATOM     12  C   LIG    1       -5.232  -2.396  -1.273  0.00  0.00    +0.197 A 
ATOM     13  F   LIG    1       -5.633  -3.230  -2.257  0.00  0.00    -0.199 F 
ATOM     14  C   LIG    1       -4.027  -1.727  -1.384  0.00  0.00    +0.176 A 
ATOM     15  F   LIG    1       -3.251  -1.907  -2.475  0.00  0.00    -0.201 F 
ENDBRANCH   3   5
BRANCH   1  21
ATOM     16  C   LIG    1       -0.013   1.374   0.193  0.00  0.00    +0.025 A 
ATOM     17  C   LIG    1        1.174   2.082   0.191  0.00  0.00    +0.030 A 
ATOM     18  C   LIG    1        2.374   1.421   0.003  0.00  0.00    +0.105 A 
ATOM     19  C   LIG    1        2.391   0.051  -0.183  0.00  0.00    +0.030 A 
ATOM     20  C   LIG    1        1.208  -0.662  -0.182  0.00  0.00    +0.025 A 
ATOM     21  C   LIG    1        0.001  -0.002   0.007  0.00  0.00    +0.034 A 
BRANCH  18  22
ATOM     22  S   LIG    1        3.885   2.327  -0.000  0.00  0.00    +0.056 S 
ATOM     23  O   LIG    1        3.556   3.664  -0.351  0.00  0.00    -0.153 OA
ATOM     24  O   LIG    1        4.821   1.554  -0.739  0.00  0.00    -0.153 OA
BRANCH  22  25
ATOM     25  N   LIG    1        4.434   2.369   1.562  0.00  0.00    -0.204 NA
ATOM     26  H   LIG    1        3.803   2.351   2.298  0.00  0.00    +0.144 HD
ATOM     27  H   LIG    1        5.386   2.411   1.740  0.00  0.00    +0.144 HD
ENDBRANCH  22  25
ENDBRANCH  18  22
ENDBRANCH   1  21
TORSDOF 4
