REMARK  Name = ZINC05269603
REMARK                            x       y       z     vdW  Elec       q    Type
REMARK                         _______ _______ _______ _____ _____    ______ ____
ROOT
ATOM      1  C   LIG    1        2.118   8.268  -0.172  0.00  0.00    +0.087 A 
ATOM      2  N   LIG    1        1.637   9.521  -0.227  0.00  0.00    -0.338 N 
ATOM      3  H   LIG    1        2.204  10.372  -0.311  0.00  0.00    +0.167 HD
ATOM      4  C   LIG    1        0.316   9.486  -0.156  0.00  0.00    +0.117 A 
ATOM      5  C   LIG    1       -0.656  10.509  -0.171  0.00  0.00    +0.045 A 
ATOM      6  C   LIG    1       -1.972  10.179  -0.082  0.00  0.00    +0.005 A 
ATOM      7  C   LIG    1       -2.348   8.829   0.023  0.00  0.00    +0.018 A 
ATOM      8  C   LIG    1       -1.411   7.860   0.037  0.00  0.00    +0.094 A 
ATOM      9  N   LIG    1       -0.083   8.174  -0.057  0.00  0.00    -0.289 N 
ATOM     10  C   LIG    1        1.048   7.404  -0.062  0.00  0.00    +0.135 A 
ENDROOT
BRANCH   1  14
ATOM     11  C   LIG    1        6.220   7.159  -0.315  0.00  0.00    +0.000 A 
ATOM     12  C   LIG    1        5.773   8.241  -1.051  0.00  0.00    +0.001 A 
ATOM     13  C   LIG    1        4.442   8.606  -1.009  0.00  0.00    +0.010 A 
ATOM     14  C   LIG    1        3.548   7.881  -0.222  0.00  0.00    +0.002 A 
ATOM     15  C   LIG    1        4.005   6.794   0.521  0.00  0.00    +0.010 A 
ATOM     16  C   LIG    1        5.337   6.435   0.467  0.00  0.00    +0.001 A 
ENDBRANCH   1  14
BRANCH  10  17
ATOM     17  N   LIG    1        1.107   6.013   0.023  0.00  0.00    -0.266 N 
ATOM     18  H   LIG    1        1.825   5.531  -0.417  0.00  0.00    +0.157 HD
ATOM     19  C   LIG    1        0.168   5.340   0.716  0.00  0.00    +0.249 C 
ATOM     20  O   LIG    1       -0.664   5.948   1.361  0.00  0.00    -0.270 OA
BRANCH  19  21
ATOM     21  C   LIG    1        0.150   3.862   0.693  0.00  0.00    +0.038 A 
ATOM     22  C   LIG    1        1.106   3.162  -0.048  0.00  0.00    +0.013 A 
ATOM     23  C   LIG    1        1.090   1.782  -0.072  0.00  0.00    +0.002 A 
ATOM     24  C   LIG    1        0.131   1.083   0.635  0.00  0.00    +0.019 A 
ATOM     25  C   LIG    1       -0.834   1.771   1.376  0.00  0.00    +0.052 A 
ATOM     26  C   LIG    1       -0.820   3.164   1.409  0.00  0.00    +0.032 A 
BRANCH  25  27
ATOM     27  C   LIG    1       -1.831   1.046   2.103  0.00  0.00    +0.099 C 
ATOM     28  N   LIG    1       -2.623   0.470   2.681  0.00  0.00    -0.191 NA
ENDBRANCH  25  27
ENDBRANCH  19  21
ENDBRANCH  10  17
TORSDOF 4
