REMARK  Name = ZINC04970400
REMARK                            x       y       z     vdW  Elec       q    Type
REMARK                         _______ _______ _______ _____ _____    ______ ____
ROOT
ATOM      1  S   LIG    1        0.065  -4.534  -0.011  0.00  0.00    +0.076 S 
ATOM      2  O   LIG    1        0.050  -4.944   1.350  0.00  0.00    -0.150 OA
ATOM      3  O   LIG    1        1.091  -4.924  -0.913  0.00  0.00    -0.150 OA
ENDROOT
BRANCH   1   8
ATOM      4  C   LIG    1       -0.018   1.503   0.010  0.00  0.00    +0.044 C 
ATOM      5  C   LIG    1        0.002  -0.004   0.002  0.00  0.00    -0.044 A 
ATOM      6  C   LIG    1        0.006  -0.688  -1.199  0.00  0.00    +0.051 A 
ATOM      7  C   LIG    1        0.025  -2.075  -1.206  0.00  0.00    +0.147 A 
ATOM      8  C   LIG    1        0.041  -2.772  -0.006  0.00  0.00    +0.150 A 
ATOM      9  C   LIG    1        0.037  -2.084   1.192  0.00  0.00    +0.036 A 
ATOM     10  C   LIG    1        0.023  -0.701   1.196  0.00  0.00    -0.045 A 
ATOM     11  C   LIG    1        0.025   0.047   2.504  0.00  0.00    +0.044 C 
BRANCH   7  12
ATOM     12  O   LIG    1        0.028  -2.749  -2.385  0.00  0.00    -0.493 OA
ATOM     13  C   LIG    1        0.011  -1.966  -3.580  0.00  0.00    +0.277 C 
ENDBRANCH   7  12
ENDBRANCH   1   8
BRANCH   1  14
ATOM     14  N   LIG    1       -1.366  -5.041  -0.673  0.00  0.00    -0.215 N 
ATOM     15  H   LIG    1       -2.003  -5.534  -0.133  0.00  0.00    +0.174 HD
BRANCH  14  16
ATOM     16  C   LIG    1       -1.655  -4.760  -2.011  0.00  0.00    +0.066 A 
ATOM     17  C   LIG    1       -2.911  -4.282  -2.377  0.00  0.00    +0.027 A 
ATOM     18  C   LIG    1       -3.150  -4.017  -3.716  0.00  0.00    +0.022 A 
ATOM     19  C   LIG    1       -2.142  -4.234  -4.637  0.00  0.00    +0.111 A 
ATOM     20  N   LIG    1       -0.963  -4.688  -4.258  0.00  0.00    -0.261 NA
ATOM     21  C   LIG    1       -0.692  -4.947  -2.994  0.00  0.00    +0.135 A 
ENDBRANCH  14  16
ENDBRANCH   1  14
TORSDOF 4
