REMARK  Name = ZINC05618792
REMARK                            x       y       z     vdW  Elec       q    Type
REMARK                         _______ _______ _______ _____ _____    ______ ____
ROOT
ATOM      1  C   LIG    1        1.216  -2.187  -0.011  0.00  0.00    +0.144 C 
ENDROOT
BRANCH   1   5
ATOM      2  C   LIG    1        0.939   2.071  -0.229  0.00  0.00    +0.000 A 
ATOM      3  C   LIG    1       -0.160   1.290  -0.536  0.00  0.00    +0.000 A 
ATOM      4  C   LIG    1       -0.070  -0.088  -0.466  0.00  0.00    +0.007 A 
ATOM      5  C   LIG    1        1.118  -0.685  -0.088  0.00  0.00    -0.007 A 
ATOM      6  C   LIG    1        2.216   0.096   0.220  0.00  0.00    +0.007 A 
ATOM      7  C   LIG    1        2.127   1.474   0.149  0.00  0.00    +0.000 A 
ENDBRANCH   1   5
BRANCH   1   8
ATOM      8  C   LIG    1        1.109  -2.624   1.427  0.00  0.00    -0.007 A 
ATOM      9  C   LIG    1        1.729  -1.889   2.421  0.00  0.00    +0.007 A 
ATOM     10  C   LIG    1        1.627  -2.288   3.740  0.00  0.00    +0.000 A 
ATOM     11  C   LIG    1        0.915  -3.427   4.065  0.00  0.00    +0.000 A 
ATOM     12  C   LIG    1        0.299  -4.164   3.071  0.00  0.00    +0.000 A 
ATOM     13  C   LIG    1        0.397  -3.763   1.752  0.00  0.00    +0.007 A 
ENDBRANCH   1   8
BRANCH   1  14
ATOM     14  C   LIG    1        2.540  -2.633  -0.575  0.00  0.00    -0.007 A 
ATOM     15  C   LIG    1        3.126  -1.924  -1.607  0.00  0.00    +0.007 A 
ATOM     16  C   LIG    1        4.343  -2.331  -2.121  0.00  0.00    +0.000 A 
ATOM     17  C   LIG    1        4.969  -3.453  -1.611  0.00  0.00    +0.000 A 
ATOM     18  C   LIG    1        4.380  -4.165  -0.583  0.00  0.00    +0.000 A 
ATOM     19  C   LIG    1        3.165  -3.756  -0.065  0.00  0.00    +0.007 A 
ENDBRANCH   1  14
BRANCH   1  20
ATOM     20  O   LIG    1        0.154  -2.772  -0.767  0.00  0.00    -0.357 OA
BRANCH  20  21
ATOM     21  C   LIG    1        0.226  -2.510  -2.170  0.00  0.00    +0.196 C 
BRANCH  21  22
ATOM     22  C   LIG    1       -1.022  -3.067  -2.857  0.00  0.00    +0.175 C 
ATOM     23  C   LIG    1       -0.909  -2.907  -4.390  0.00  0.00    +0.150 C 
ATOM     24  C   LIG    1       -2.347  -2.564  -4.839  0.00  0.00    +0.088 C 
ATOM     25  C   LIG    1       -3.159  -2.558  -3.524  0.00  0.00    +0.226 C 
ATOM     26  O   LIG    1       -2.186  -2.294  -2.490  0.00  0.00    -0.348 OA
BRANCH  25  27
ATOM     27  N   LIG    1       -4.172  -1.500  -3.556  0.00  0.00    -0.274 N 
ATOM     28  C   LIG    1       -3.782  -0.189  -3.591  0.00  0.00    +0.098 A 
ATOM     29  C   LIG    1       -4.716   0.786  -3.625  0.00  0.00    +0.088 A 
ATOM     30  C   LIG    1       -6.086   0.429  -3.611  0.00  0.00    +0.254 A 
ATOM     31  N   LIG    1       -6.429  -0.875  -3.571  0.00  0.00    -0.275 N 
ATOM     32  H   LIG    1       -7.394  -1.135  -3.561  0.00  0.00    +0.173 HD
ATOM     33  O   LIG    1       -6.946   1.290  -3.635  0.00  0.00    -0.268 OA
ATOM     34  C   LIG    1       -5.477  -1.826  -3.543  0.00  0.00    +0.331 A 
ATOM     35  O   LIG    1       -5.802  -2.997  -3.507  0.00  0.00    -0.246 OA
ENDBRANCH  25  27
BRANCH  23  36
ATOM     36  O   LIG    1       -0.475  -4.129  -4.990  0.00  0.00    -0.389 OA
ATOM     37  H   LIG    1       -0.387  -4.084  -5.952  0.00  0.00    +0.210 HD
ENDBRANCH  23  36
ENDBRANCH  21  22
ENDBRANCH  20  21
ENDBRANCH   1  20
TORSDOF 8
