REMARK  Name = ZINC05138115
REMARK                            x       y       z     vdW  Elec       q    Type
REMARK                         _______ _______ _______ _____ _____    ______ ____
ROOT
ATOM      1  C   LIG    1       -2.164   1.050   1.278  0.00  0.00    -0.005 C 
ATOM      2  C   LIG    1       -0.729   1.579   1.267  0.00  0.00    +0.007 C 
ATOM      3  C   LIG    1       -0.013   1.086   0.008  0.00  0.00    +0.045 C 
ATOM      4  C   LIG    1       -0.753   1.593  -1.232  0.00  0.00    +0.176 C 
ATOM      5  C   LIG    1       -2.188   1.063  -1.221  0.00  0.00    +0.045 C 
ATOM      6  C   LIG    1       -2.904   1.556   0.038  0.00  0.00    +0.007 C 
ENDROOT
BRANCH   1   8
ATOM      7  C   LIG    1       -4.316   1.014   2.547  0.00  0.00    +0.011 C 
ATOM      8  C   LIG    1       -2.880   1.543   2.537  0.00  0.00    -0.035 C 
ATOM      9  C   LIG    1       -2.901   3.073   2.545  0.00  0.00    +0.011 C 
ATOM     10  C   LIG    1       -2.140   1.036   3.776  0.00  0.00    +0.011 C 
ENDBRANCH   1   8
BRANCH   4  11
ATOM     11  O   LIG    1       -0.073   1.124  -2.426  0.00  0.00    -0.461 OA
BRANCH  11  12
ATOM     12  C   LIG    1       -0.152   1.903  -3.517  0.00  0.00    +0.312 C 
ATOM     13  O   LIG    1       -0.768   2.941  -3.475  0.00  0.00    -0.250 OA
BRANCH  12  14
ATOM     14  C   LIG    1        0.528   1.482  -4.794  0.00  0.00    +0.155 C 
BRANCH  14  15
ATOM     15  C   LIG    1        0.288   2.522  -5.857  0.00  0.00    -0.034 A 
ATOM     16  C   LIG    1       -0.810   2.436  -6.700  0.00  0.00    +0.024 A 
ATOM     17  C   LIG    1       -1.000   3.410  -7.661  0.00  0.00    +0.111 A 
ATOM     18  N   LIG    1       -0.146   4.408  -7.788  0.00  0.00    -0.263 NA
ATOM     19  C   LIG    1        0.911   4.519  -7.007  0.00  0.00    +0.111 A 
ATOM     20  C   LIG    1        1.163   3.585  -6.021  0.00  0.00    +0.024 A 
ENDBRANCH  14  15
ENDBRANCH  12  14
ENDBRANCH  11  12
ENDBRANCH   4  11
TORSDOF 5
