REMARK  Name = ZINC04842179
REMARK                            x       y       z     vdW  Elec       q    Type
REMARK                         _______ _______ _______ _____ _____    ______ ____
ROOT
ATOM      1  C   LIG    1       -0.056   4.249   0.025  0.00  0.00    +0.121 A 
ATOM      2  C   LIG    1        1.157   3.573   0.010  0.00  0.00    +0.046 A 
ATOM      3  C   LIG    1        1.179   2.194   0.003  0.00  0.00    +0.012 A 
ATOM      4  C   LIG    1       -0.018   1.479   0.010  0.00  0.00    -0.018 A 
ATOM      5  C   LIG    1       -1.234   2.161   0.020  0.00  0.00    +0.012 A 
ATOM      6  C   LIG    1       -1.249   3.540   0.033  0.00  0.00    +0.046 A 
ENDROOT
BRANCH   4   7
ATOM      7  C   LIG    1        0.002  -0.004   0.002  0.00  0.00    -0.018 A 
ATOM      8  C   LIG    1        1.217  -0.687  -0.019  0.00  0.00    +0.008 A 
ATOM      9  C   LIG    1        1.230  -2.067  -0.021  0.00  0.00    +0.001 A 
ATOM     10  C   LIG    1        0.040  -2.772  -0.013  0.00  0.00    +0.000 A 
ATOM     11  C   LIG    1       -1.169  -2.100   0.002  0.00  0.00    +0.001 A 
ATOM     12  C   LIG    1       -1.194  -0.720   0.010  0.00  0.00    +0.008 A 
ENDBRANCH   4   7
BRANCH   1  13
ATOM     13  O   LIG    1       -0.074   5.608   0.033  0.00  0.00    -0.492 OA
BRANCH  13  14
ATOM     14  C   LIG    1       -1.356   6.239   0.049  0.00  0.00    +0.227 C 
BRANCH  14  15
ATOM     15  C   LIG    1       -1.176   7.758   0.055  0.00  0.00    +0.022 C 
BRANCH  15  16
ATOM     16  C   LIG    1       -2.549   8.434   0.072  0.00  0.00    -0.076 C 
BRANCH  16  18
ATOM     17  C   LIG    1       -1.773  10.357  -1.178  0.00  0.00    -0.097 C 
ATOM     18  N   LIG    1       -2.358   9.900   0.100  0.00  0.00    +0.376 N 
ATOM     19  H   LIG    1       -1.716  10.138   0.865  0.00  0.00    -0.083 HD
ATOM     20  C   LIG    1       -3.653  10.573   0.332  0.00  0.00    -0.097 C 
ENDBRANCH  16  18
ENDBRANCH  15  16
ENDBRANCH  14  15
ENDBRANCH  13  14
ENDBRANCH   1  13
TORSDOF 6
