REMARK  Name = ZINC04976875
REMARK                            x       y       z     vdW  Elec       q    Type
REMARK                         _______ _______ _______ _____ _____    ______ ____
ROOT
ATOM      1  C   LIG    1       -1.264  -0.763   0.011  0.00  0.00    +0.136 A 
ATOM      2  C   LIG    1       -1.375  -2.124   0.010  0.00  0.00    +0.050 A 
ATOM      3  C   LIG    1       -2.740  -2.426   0.020  0.00  0.00    +0.050 A 
ATOM      4  C   LIG    1       -3.415  -1.218   0.027  0.00  0.00    +0.130 A 
ATOM      5  O   LIG    1       -2.498  -0.228   0.026  0.00  0.00    -0.455 OA
ENDROOT
BRANCH   4   6
ATOM      6  C   LIG    1       -4.817  -1.051   0.038  0.00  0.00    +0.066 C 
ATOM      7  C   LIG    1       -5.355   0.203   0.044  0.00  0.00    +0.081 C 
ATOM      8  C   LIG    1       -6.768   0.612   0.061  0.00  0.00    +0.257 C 
ATOM      9  N   LIG    1       -7.019   1.910   0.064  0.00  0.00    -0.261 N 
ATOM     10  H   LIG    1       -7.938   2.222   0.075  0.00  0.00    +0.157 HD
ATOM     11  C   LIG    1       -5.986   2.824   0.051  0.00  0.00    +0.158 C 
ATOM     12  N   LIG    1       -6.054   4.127   0.052  0.00  0.00    -0.279 NA
ATOM     13  H   LIG    1       -5.241   4.656   0.042  0.00  0.00    +0.189 HD
ATOM     14  O   LIG    1       -7.667  -0.210   0.073  0.00  0.00    -0.269 OA
ATOM     15  S   LIG    1       -4.531   1.788   0.041  0.00  0.00    -0.049 S 
ENDBRANCH   4   6
BRANCH   1  21
ATOM     16  C   LIG    1       -0.017   1.393   0.010  0.00  0.00    +0.013 A 
ATOM     17  C   LIG    1        1.170   2.095   0.002  0.00  0.00    +0.029 A 
ATOM     18  C   LIG    1        2.378   1.420  -0.013  0.00  0.00    +0.105 A 
ATOM     19  C   LIG    1        2.404   0.036  -0.021  0.00  0.00    +0.029 A 
ATOM     20  C   LIG    1        1.225  -0.679  -0.014  0.00  0.00    +0.013 A 
ATOM     21  C   LIG    1        0.002  -0.004   0.002  0.00  0.00    +0.017 A 
BRANCH  18  22
ATOM     22  S   LIG    1        3.889   2.326  -0.023  0.00  0.00    +0.056 S 
ATOM     23  O   LIG    1        3.592   3.605  -0.565  0.00  0.00    -0.153 OA
ATOM     24  O   LIG    1        4.872   1.469  -0.588  0.00  0.00    -0.153 OA
BRANCH  22  25
ATOM     25  N   LIG    1        4.324   2.569   1.556  0.00  0.00    -0.204 NA
ATOM     26  H   LIG    1        5.138   3.054   1.765  0.00  0.00    +0.144 HD
ATOM     27  H   LIG    1        3.766   2.227   2.271  0.00  0.00    +0.144 HD
ENDBRANCH  22  25
ENDBRANCH  18  22
ENDBRANCH   1  21
TORSDOF 4
