REMARK  Name = ZINC05833076
REMARK                            x       y       z     vdW  Elec       q    Type
REMARK                         _______ _______ _______ _____ _____    ______ ____
ROOT
ATOM      1  C   LIG    1        1.655   2.310  -0.204  0.00  0.00    -0.064 C 
ATOM      2  C   LIG    1        0.263   1.721  -0.460  0.00  0.00    -0.010 C 
ATOM      3  C   LIG    1        0.409   0.215  -0.672  0.00  0.00    +0.037 C 
ATOM      4  C   LIG    1        1.463  -0.074  -1.707  0.00  0.00    +0.001 A 
ATOM      5  C   LIG    1        2.407   0.855  -2.085  0.00  0.00    -0.042 A 
ATOM      6  C   LIG    1        3.358   0.524  -3.041  0.00  0.00    +0.007 A 
ATOM      7  C   LIG    1        3.367  -0.728  -3.622  0.00  0.00    +0.049 A 
ATOM      8  C   LIG    1        2.418  -1.666  -3.250  0.00  0.00    +0.159 A 
ATOM      9  C   LIG    1        1.467  -1.337  -2.292  0.00  0.00    +0.162 A 
ATOM     10  C   LIG    1        2.453   2.245  -1.504  0.00  0.00    +0.020 C 
ENDROOT
BRANCH   1  11
ATOM     11  N   LIG    1        1.554   3.720   0.228  0.00  0.00    +0.382 N 
ATOM     12  H   LIG    1        2.487   4.148   0.191  0.00  0.00    -0.081 HD
BRANCH  11  13
ATOM     13  C   LIG    1        0.650   4.462  -0.675  0.00  0.00    -0.079 C 
BRANCH  13  15
ATOM     14  C   LIG    1       -0.178   6.739  -1.287  0.00  0.00    +0.002 C 
ATOM     15  C   LIG    1        0.737   5.953  -0.345  0.00  0.00    -0.022 C 
ENDBRANCH  13  15
ENDBRANCH  11  13
BRANCH  11  16
ATOM     16  C   LIG    1        1.050   3.788   1.616  0.00  0.00    -0.079 C 
BRANCH  16  17
ATOM     17  C   LIG    1        2.196   3.446   2.571  0.00  0.00    -0.022 C 
ATOM     18  C   LIG    1        1.735   3.653   4.015  0.00  0.00    +0.002 C 
ENDBRANCH  16  17
ENDBRANCH  11  16
ENDBRANCH   1  11
BRANCH   8  19
ATOM     19  O   LIG    1        2.416  -2.900  -3.820  0.00  0.00    -0.503 OA
ATOM     20  H   LIG    1        1.877  -2.964  -4.620  0.00  0.00    +0.292 HD
ENDBRANCH   8  19
BRANCH   9  21
ATOM     21  O   LIG    1        0.534  -2.255  -1.924  0.00  0.00    -0.503 OA
ATOM     22  H   LIG    1       -0.275  -2.228  -2.453  0.00  0.00    +0.292 HD
ENDBRANCH   9  21
TORSDOF 7
