REMARK  Name = ZINC05794229
REMARK                            x       y       z     vdW  Elec       q    Type
REMARK                         _______ _______ _______ _____ _____    ______ ____
ROOT
ATOM      1  C   LIG    1       -2.978   2.892   1.263  0.00  0.00    +0.075 A 
ATOM      2  C   LIG    1       -1.757   2.221   1.093  0.00  0.00    -0.010 A 
ATOM      3  C   LIG    1       -0.945   1.805   2.293  0.00  0.00    +0.047 C 
ATOM      4  C   LIG    1       -1.304   1.945  -0.189  0.00  0.00    +0.073 A 
ATOM      5  C   LIG    1       -2.141   2.384  -1.306  0.00  0.00    +0.015 A 
ATOM      6  C   LIG    1       -1.772   2.144  -2.635  0.00  0.00    +0.011 A 
ATOM      7  C   LIG    1       -2.585   2.564  -3.645  0.00  0.00    +0.001 A 
ATOM      8  C   LIG    1       -3.782   3.224  -3.372  0.00  0.00    +0.002 A 
ATOM      9  C   LIG    1       -4.173   3.467  -2.091  0.00  0.00    +0.028 A 
ATOM     10  C   LIG    1       -3.360   3.049  -1.022  0.00  0.00    +0.072 A 
ATOM     11  N   LIG    1       -3.718   3.273   0.244  0.00  0.00    -0.246 NA
ENDROOT
BRANCH   1  15
ATOM     12  C   LIG    1       -4.333   3.722   5.206  0.00  0.00    -0.047 A 
ATOM     13  C   LIG    1       -3.009   3.942   4.872  0.00  0.00    +0.004 A 
ATOM     14  C   LIG    1       -2.563   3.674   3.594  0.00  0.00    +0.010 A 
ATOM     15  C   LIG    1       -3.450   3.181   2.638  0.00  0.00    +0.001 A 
ATOM     16  C   LIG    1       -4.785   2.966   2.979  0.00  0.00    +0.010 A 
ATOM     17  C   LIG    1       -5.218   3.233   4.262  0.00  0.00    +0.004 A 
BRANCH  12  18
ATOM     18  C   LIG    1       -4.814   4.017   6.604  0.00  0.00    +0.035 C 
BRANCH  18  20
ATOM     19  C   LIG    1       -5.788   5.765   8.100  0.00  0.00    +0.004 C 
ATOM     20  C   LIG    1       -5.300   5.465   6.681  0.00  0.00    +0.001 C 
ENDBRANCH  18  20
ENDBRANCH  12  18
ENDBRANCH   1  15
BRANCH   4  21
ATOM     21  C   LIG    1       -0.024   1.241  -0.418  0.00  0.00    +0.338 C 
ATOM     22  O   LIG    1       -0.003   0.029  -0.490  0.00  0.00    -0.245 OA
BRANCH  21  23
ATOM     23  O   LIG    1        1.117   1.944  -0.551  0.00  0.00    -0.477 OA
ATOM     24  H   LIG    1        1.100   2.879  -0.495  0.00  0.00    +0.295 HD
ENDBRANCH  21  23
ENDBRANCH   4  21
TORSDOF 5
