REMARK  Name = ZINC05765083
REMARK                            x       y       z     vdW  Elec       q    Type
REMARK                         _______ _______ _______ _____ _____    ______ ____
ROOT
ATOM      1  C   LIG    1       -0.018   1.503   0.010  0.00  0.00    +0.045 C 
ATOM      2  C   LIG    1        0.002  -0.004   0.002  0.00  0.00    -0.029 A 
ATOM      3  C   LIG    1        0.006  -0.688  -1.196  0.00  0.00    +0.050 A 
ATOM      4  C   LIG    1        0.018  -2.076  -1.217  0.00  0.00    +0.131 A 
ATOM      5  C   LIG    1       -0.002  -2.803  -0.011  0.00  0.00    +0.099 A 
ATOM      6  C   LIG    1       -0.014  -2.108   1.204  0.00  0.00    +0.157 A 
ATOM      7  O   LIG    1       -0.101  -2.738   2.389  0.00  0.00    -0.450 OA
ATOM      8  C   LIG    1        0.886  -2.667   3.325  0.00  0.00    +0.181 A 
ATOM      9  C   LIG    1        1.267  -3.873   3.894  0.00  0.00    +0.083 A 
ATOM     10  C   LIG    1        0.801  -5.291   3.684  0.00  0.00    +0.345 C 
ATOM     11  O   LIG    1        1.574  -6.110   4.567  0.00  0.00    -0.427 OA
ATOM     12  C   LIG    1        2.428  -5.337   5.261  0.00  0.00    +0.346 C 
ATOM     13  O   LIG    1        3.217  -5.743   6.091  0.00  0.00    -0.245 OA
ATOM     14  C   LIG    1        2.266  -3.931   4.869  0.00  0.00    +0.113 A 
ATOM     15  C   LIG    1        2.894  -2.746   5.275  0.00  0.00    +0.140 A 
ATOM     16  C   LIG    1        2.510  -1.548   4.705  0.00  0.00    +0.066 A 
ATOM     17  C   LIG    1        1.509  -1.497   3.731  0.00  0.00    +0.183 A 
ATOM     18  O   LIG    1        1.230  -0.252   3.258  0.00  0.00    -0.418 OA
ATOM     19  C   LIG    1        0.150  -0.015   2.498  0.00  0.00    +0.348 C 
ATOM     20  O   LIG    1       -0.709   0.760   2.870  0.00  0.00    -0.244 OA
ATOM     21  C   LIG    1        0.023  -0.709   1.207  0.00  0.00    +0.105 A 
ENDROOT
BRANCH   4  22
ATOM     22  O   LIG    1        0.050  -2.733  -2.401  0.00  0.00    -0.506 OA
ATOM     23  H   LIG    1        0.943  -2.916  -2.726  0.00  0.00    +0.292 HD
ENDBRANCH   4  22
BRANCH   5  24
ATOM     24  C   LIG    1       -0.011  -4.267  -0.027  0.00  0.00    +0.266 C 
ATOM     25  O   LIG    1       -0.001  -4.862  -1.085  0.00  0.00    -0.295 OA
ENDBRANCH   5  24
BRANCH  10  26
ATOM     26  O   LIG    1       -0.588  -5.403   4.000  0.00  0.00    -0.354 OA
ATOM     27  H   LIG    1       -0.947  -6.293   3.885  0.00  0.00    +0.214 HD
ENDBRANCH  10  26
BRANCH  15  28
ATOM     28  O   LIG    1        3.868  -2.775   6.219  0.00  0.00    -0.505 OA
ATOM     29  H   LIG    1        3.542  -2.678   7.124  0.00  0.00    +0.292 HD
ENDBRANCH  15  28
BRANCH  16  30
ATOM     30  C   LIG    1        3.184  -0.273   5.141  0.00  0.00    +0.198 C 
BRANCH  30  31
ATOM     31  O   LIG    1        2.469   0.292   6.242  0.00  0.00    -0.390 OA
ATOM     32  H   LIG    1        2.848   1.117   6.575  0.00  0.00    +0.210 HD
ENDBRANCH  30  31
ENDBRANCH  16  30
TORSDOF 6
