REMARK  Name = ZINC05458899
REMARK                            x       y       z     vdW  Elec       q    Type
REMARK                         _______ _______ _______ _____ _____    ______ ____
ROOT
ATOM      1  C   LIG    1        2.935   1.448  -0.457  0.00  0.00    +0.081 C 
ATOM      2  C   LIG    1        2.832   0.741   0.897  0.00  0.00    +0.004 C 
ATOM      3  C   LIG    1        3.947  -0.301   1.010  0.00  0.00    -0.077 C 
ATOM      4  N   LIG    1        3.796  -1.287  -0.082  0.00  0.00    +0.382 N 
ATOM      5  H   LIG    1        2.854  -1.694  -0.035  0.00  0.00    -0.082 HD
ATOM      6  C   LIG    1        3.967  -0.625  -1.392  0.00  0.00    -0.074 C 
ATOM      7  C   LIG    1        2.852   0.407  -1.577  0.00  0.00    -0.010 C 
ATOM      8  C   LIG    1        3.016   1.099  -2.931  0.00  0.00    +0.007 C 
ENDROOT
BRANCH   1  10
ATOM      9  C   LIG    1        0.559   1.984  -0.490  0.00  0.00    +0.220 C 
ATOM     10  N   LIG    1        1.835   2.405  -0.595  0.00  0.00    -0.268 N 
ATOM     11  O   LIG    1        0.317   0.800  -0.384  0.00  0.00    -0.275 OA
BRANCH  10  12
ATOM     12  C   LIG    1        2.108   3.756  -0.836  0.00  0.00    +0.037 A 
ATOM     13  C   LIG    1        1.681   4.353  -2.015  0.00  0.00    +0.023 A 
ATOM     14  C   LIG    1        1.947   5.688  -2.247  0.00  0.00    +0.002 A 
ATOM     15  C   LIG    1        2.648   6.427  -1.312  0.00  0.00    +0.000 A 
ATOM     16  C   LIG    1        3.080   5.834  -0.140  0.00  0.00    +0.002 A 
ATOM     17  C   LIG    1        2.812   4.501   0.101  0.00  0.00    +0.023 A 
ENDBRANCH  10  12
BRANCH   9  19
ATOM     18  C   LIG    1       -1.891   2.266  -0.233  0.00  0.00    +0.013 C 
ATOM     19  C   LIG    1       -0.569   2.983  -0.511  0.00  0.00    +0.093 C 
ENDBRANCH   9  19
ENDBRANCH   1  10
BRANCH   4  20
ATOM     20  C   LIG    1        4.793  -2.367   0.072  0.00  0.00    -0.042 C 
BRANCH  20  21
ATOM     21  C   LIG    1        4.571  -3.407  -1.028  0.00  0.00    +0.128 C 
BRANCH  21  22
ATOM     22  C   LIG    1        5.648  -4.457  -0.952  0.00  0.00    -0.021 A 
ATOM     23  C   LIG    1        5.510  -5.528  -0.088  0.00  0.00    +0.006 A 
ATOM     24  C   LIG    1        6.497  -6.494  -0.022  0.00  0.00    +0.000 A 
ATOM     25  C   LIG    1        7.626  -6.384  -0.811  0.00  0.00    +0.000 A 
ATOM     26  C   LIG    1        7.767  -5.311  -1.671  0.00  0.00    +0.000 A 
ATOM     27  C   LIG    1        6.778  -4.347  -1.741  0.00  0.00    +0.006 A 
ENDBRANCH  21  22
BRANCH  21  28
ATOM     28  O   LIG    1        3.293  -4.021  -0.851  0.00  0.00    -0.389 OA
ATOM     29  H   LIG    1        3.189  -4.476  -0.004  0.00  0.00    +0.210 HD
ENDBRANCH  21  28
ENDBRANCH  20  21
ENDBRANCH   4  20
TORSDOF 7
