REMARK  Name = ZINC05515702
REMARK                            x       y       z     vdW  Elec       q    Type
REMARK                         _______ _______ _______ _____ _____    ______ ____
ROOT
ATOM      1  N   LIG    1       -1.372  -0.511   0.012  0.00  0.00    -0.304 N 
ATOM      2  H   LIG    1       -1.794  -0.752   0.852  0.00  0.00    +0.150 HD
ATOM      3  C   LIG    1       -2.051  -0.643  -1.145  0.00  0.00    +0.261 C 
ATOM      4  O   LIG    1       -1.522  -0.340  -2.198  0.00  0.00    -0.269 OA
ENDROOT
BRANCH   3   5
ATOM      5  C   LIG    1       -3.427  -1.150  -1.134  0.00  0.00    +0.102 A 
ATOM      6  C   LIG    1       -4.238  -1.330  -2.235  0.00  0.00    +0.032 A 
ATOM      7  C   LIG    1       -5.457  -1.833  -1.770  0.00  0.00    +0.020 A 
ATOM      8  C   LIG    1       -5.375  -1.940  -0.422  0.00  0.00    +0.083 A 
ATOM      9  N   LIG    1       -4.146  -1.529  -0.023  0.00  0.00    -0.357 N 
ATOM     10  H   LIG    1       -3.827  -1.505   0.892  0.00  0.00    +0.165 HD
ENDBRANCH   3   5
BRANCH   1  12
ATOM     11  C   LIG    1       -0.019   1.526   0.010  0.00  0.00    +0.033 C 
ATOM     12  C   LIG    1        0.002  -0.004   0.002  0.00  0.00    +0.100 C 
BRANCH  12  13
ATOM     13  C   LIG    1        0.731  -0.503   1.223  0.00  0.00    -0.027 A 
ATOM     14  C   LIG    1        0.084  -0.548   2.444  0.00  0.00    +0.005 A 
ATOM     15  C   LIG    1        0.751  -1.010   3.563  0.00  0.00    +0.000 A 
ATOM     16  C   LIG    1        2.068  -1.419   3.463  0.00  0.00    +0.000 A 
ATOM     17  C   LIG    1        2.716  -1.369   2.243  0.00  0.00    +0.000 A 
ATOM     18  C   LIG    1        2.048  -0.911   1.123  0.00  0.00    +0.005 A 
ENDBRANCH  12  13
ENDBRANCH   1  12
TORSDOF 3
