REMARK  Name = ZINC05019451
REMARK                            x       y       z     vdW  Elec       q    Type
REMARK                         _______ _______ _______ _____ _____    ______ ____
ROOT
ATOM      1  C   LIG    1        0.002  -0.004   0.002  0.00  0.00    +0.248 C 
ATOM      2  N   LIG    1       -0.016   1.344   0.009  0.00  0.00    -0.306 N 
ATOM      3  H   LIG    1       -0.863   1.817   0.016  0.00  0.00    +0.149 HD
ATOM      4  O   LIG    1        1.063  -0.598  -0.011  0.00  0.00    -0.270 OA
ENDROOT
BRANCH   2   5
ATOM      5  C   LIG    1        1.242   2.093   0.001  0.00  0.00    +0.098 C 
ATOM      6  C   LIG    1        1.731   2.257  -1.440  0.00  0.00    +0.006 C 
ATOM      7  C   LIG    1        3.013   3.093  -1.447  0.00  0.00    -0.081 C 
ATOM      8  N   LIG    1        2.747   4.418  -0.855  0.00  0.00    +0.381 N 
ATOM      9  H   LIG    1        3.602   4.984  -0.894  0.00  0.00    -0.086 HD
ATOM     10  H   LIG    1        2.003   4.884  -1.389  0.00  0.00    -0.086 HD
ATOM     11  C   LIG    1        2.320   4.277   0.550  0.00  0.00    -0.049 C 
ATOM     12  C   LIG    1        1.018   3.477   0.618  0.00  0.00    +0.121 C 
BRANCH  12  13
ATOM     13  O   LIG    1        0.616   3.332   1.982  0.00  0.00    -0.380 OA
ATOM     14  C   LIG    1       -0.236   4.378   2.451  0.00  0.00    +0.194 C 
ENDBRANCH  12  13
ENDBRANCH   2   5
BRANCH   1  21
ATOM     15  C   LIG    1       -1.246  -2.161   0.002  0.00  0.00    +0.134 A 
ATOM     16  C   LIG    1       -2.441  -2.860   0.010  0.00  0.00    +0.070 A 
ATOM     17  C   LIG    1       -3.647  -2.171   0.025  0.00  0.00    +0.047 A 
ATOM     18  C   LIG    1       -3.658  -0.776   0.032  0.00  0.00    +0.062 A 
ATOM     19 CL   LIG    1       -5.171   0.075   0.051  0.00  0.00    -0.082 Cl
ATOM     20  C   LIG    1       -2.485  -0.077   0.031  0.00  0.00    +0.038 A 
ATOM     21  C   LIG    1       -1.263  -0.757   0.010  0.00  0.00    +0.080 A 
BRANCH  17  22
ATOM     22  N   LIG    1       -4.847  -2.874   0.033  0.00  0.00    -0.357 N 
ATOM     23  H   LIG    1       -5.690  -2.394   0.043  0.00  0.00    +0.142 HD
ATOM     24  H   LIG    1       -4.841  -3.844   0.028  0.00  0.00    +0.142 HD
ENDBRANCH  17  22
BRANCH  15  26
ATOM     25  C   LIG    1       -0.128  -4.256  -0.019  0.00  0.00    +0.277 C 
ATOM     26  O   LIG    1       -0.066  -2.829  -0.012  0.00  0.00    -0.494 OA
ENDBRANCH  15  26
ENDBRANCH   1  21
TORSDOF 5
