REMARK  Name = ZINC05649654
REMARK                            x       y       z     vdW  Elec       q    Type
REMARK                         _______ _______ _______ _____ _____    ______ ____
ROOT
ATOM      1  C   LIG    1       -1.924   3.941   0.035  0.00  0.00    +0.073 C 
ATOM      2  C   LIG    1       -2.553   3.945  -1.359  0.00  0.00    +0.024 C 
ATOM      3  C   LIG    1       -2.969   2.887  -0.335  0.00  0.00    -0.008 C 
ENDROOT
BRANCH   1   4
ATOM      4  C   LIG    1       -0.491   3.489   0.151  0.00  0.00    -0.032 A 
ATOM      5  C   LIG    1        0.335   3.519  -0.958  0.00  0.00    +0.004 A 
ATOM      6  C   LIG    1        1.647   3.099  -0.853  0.00  0.00    +0.000 A 
ATOM      7  C   LIG    1        2.138   2.660   0.362  0.00  0.00    +0.000 A 
ATOM      8  C   LIG    1        1.314   2.636   1.472  0.00  0.00    +0.000 A 
ATOM      9  C   LIG    1       -0.000   3.051   1.366  0.00  0.00    +0.004 A 
ENDBRANCH   1   4
BRANCH   1  11
ATOM     10  N   LIG    1       -1.827   6.269   0.865  0.00  0.00    -0.301 N 
ATOM     11  C   LIG    1       -2.341   5.030   0.990  0.00  0.00    +0.226 C 
ATOM     12  O   LIG    1       -3.139   4.791   1.871  0.00  0.00    -0.275 OA
BRANCH  10  14
ATOM     13  C   LIG    1       -1.766   7.216  -1.389  0.00  0.00    +0.024 C 
ATOM     14  C   LIG    1       -0.946   6.587  -0.261  0.00  0.00    +0.104 C 
ENDBRANCH  10  14
BRANCH  10  15
ATOM     15  C   LIG    1       -2.149   7.299   1.856  0.00  0.00    +0.104 C 
ATOM     16  C   LIG    1       -1.116   7.262   2.984  0.00  0.00    +0.024 C 
ENDBRANCH  10  15
ENDBRANCH   1  11
BRANCH   3  17
ATOM     17  C   LIG    1       -2.480   1.455  -0.559  0.00  0.00    -0.082 C 
BRANCH  17  18
ATOM     18  N   LIG    1       -3.643   0.580  -0.789  0.00  0.00    +0.378 N 
ATOM     19  H   LIG    1       -4.244   0.592   0.044  0.00  0.00    -0.090 HD
ATOM     20  H   LIG    1       -3.334  -0.374  -0.962  0.00  0.00    -0.090 HD
ATOM     21  H   LIG    1       -4.178   0.914  -1.589  0.00  0.00    -0.090 HD
ENDBRANCH  17  18
ENDBRANCH   3  17
TORSDOF 6
