REMARK  Name = ZINC04886883
REMARK                            x       y       z     vdW  Elec       q    Type
REMARK                         _______ _______ _______ _____ _____    ______ ____
ROOT
ATOM      1  O   LIG    1        1.121   5.475  -0.747  0.00  0.00    -0.357 OA
ENDROOT
BRANCH   1   2
ATOM      2  C   LIG    1        1.101   4.731  -1.967  0.00  0.00    +0.196 C 
BRANCH   2   6
ATOM      3  C   LIG    1        3.172   6.359  -4.430  0.00  0.00    +0.226 C 
ATOM      4  C   LIG    1        3.454   4.906  -4.872  0.00  0.00    +0.088 C 
ATOM      5  C   LIG    1        2.441   4.099  -4.015  0.00  0.00    +0.150 C 
ATOM      6  C   LIG    1        2.420   4.941  -2.714  0.00  0.00    +0.175 C 
ATOM      7  O   LIG    1        2.535   6.305  -3.149  0.00  0.00    -0.348 OA
BRANCH   3  11
ATOM      8  C   LIG    1        6.106  10.002  -5.988  0.00  0.00    +0.051 C 
ATOM      9  C   LIG    1        5.829   8.838  -5.073  0.00  0.00    +0.030 A 
ATOM     10  C   LIG    1        4.670   8.152  -5.170  0.00  0.00    +0.101 A 
ATOM     11  N   LIG    1        4.432   7.100  -4.328  0.00  0.00    -0.274 N 
ATOM     12  C   LIG    1        5.346   6.736  -3.410  0.00  0.00    +0.331 A 
ATOM     13  N   LIG    1        6.512   7.400  -3.295  0.00  0.00    -0.275 N 
ATOM     14  H   LIG    1        7.180   7.116  -2.607  0.00  0.00    +0.173 HD
ATOM     15  O   LIG    1        5.117   5.796  -2.675  0.00  0.00    -0.246 OA
ATOM     16  C   LIG    1        6.782   8.445  -4.103  0.00  0.00    +0.257 A 
ATOM     17  O   LIG    1        7.836   9.046  -3.999  0.00  0.00    -0.267 OA
ENDBRANCH   3  11
BRANCH   5  18
ATOM     18  O   LIG    1        1.152   4.071  -4.631  0.00  0.00    -0.389 OA
ATOM     19  H   LIG    1        1.118   3.555  -5.448  0.00  0.00    +0.210 HD
ENDBRANCH   5  18
ENDBRANCH   2   6
ENDBRANCH   1   2
BRANCH   1  20
ATOM     20  C   LIG    1       -0.070   5.347   0.031  0.00  0.00    +0.144 C 
BRANCH  20  21
ATOM     21  C   LIG    1        0.060   6.168   1.288  0.00  0.00    -0.007 A 
ATOM     22  C   LIG    1       -0.598   5.779   2.440  0.00  0.00    +0.007 A 
ATOM     23  C   LIG    1       -0.474   6.530   3.594  0.00  0.00    +0.000 A 
ATOM     24  C   LIG    1        0.298   7.676   3.593  0.00  0.00    +0.000 A 
ATOM     25  C   LIG    1        0.952   8.069   2.440  0.00  0.00    +0.000 A 
ATOM     26  C   LIG    1        0.832   7.315   1.287  0.00  0.00    +0.007 A 
ENDBRANCH  20  21
BRANCH  20  27
ATOM     27  C   LIG    1       -1.249   5.838  -0.770  0.00  0.00    -0.007 A 
ATOM     28  C   LIG    1       -1.784   5.046  -1.769  0.00  0.00    +0.007 A 
ATOM     29  C   LIG    1       -2.868   5.494  -2.500  0.00  0.00    +0.000 A 
ATOM     30  C   LIG    1       -3.410   6.739  -2.240  0.00  0.00    +0.000 A 
ATOM     31  C   LIG    1       -2.872   7.533  -1.245  0.00  0.00    +0.000 A 
ATOM     32  C   LIG    1       -1.791   7.083  -0.510  0.00  0.00    +0.007 A 
ENDBRANCH  20  27
BRANCH  20  33
ATOM     33  C   LIG    1       -0.279   3.900   0.396  0.00  0.00    -0.007 A 
ATOM     34  C   LIG    1        0.807   3.054   0.515  0.00  0.00    +0.007 A 
ATOM     35  C   LIG    1        0.616   1.726   0.850  0.00  0.00    +0.000 A 
ATOM     36  C   LIG    1       -0.662   1.245   1.067  0.00  0.00    +0.000 A 
ATOM     37  C   LIG    1       -1.749   2.090   0.943  0.00  0.00    +0.000 A 
ATOM     38  C   LIG    1       -1.557   3.419   0.612  0.00  0.00    +0.007 A 
ENDBRANCH  20  33
ENDBRANCH   1  20
TORSDOF 8
