REMARK  Name = ZINC05494877
REMARK                            x       y       z     vdW  Elec       q    Type
REMARK                         _______ _______ _______ _____ _____    ______ ____
ROOT
ATOM      1  C   LIG    1       -1.339   6.410   4.691  0.00  0.00    +0.002 C 
ATOM      2  C   LIG    1       -2.465   5.536   5.234  0.00  0.00    +0.008 C 
ATOM      3  C   LIG    1       -1.881   4.453   6.146  0.00  0.00    +0.076 C 
ATOM      4  C   LIG    1       -1.518   3.251   5.312  0.00  0.00    +0.133 A 
ATOM      5  N   LIG    1       -1.790   2.003   5.569  0.00  0.00    -0.134 NA
ATOM      6  N   LIG    1       -1.306   1.257   4.638  0.00  0.00    -0.134 NA
ATOM      7  C   LIG    1       -0.700   1.998   3.749  0.00  0.00    +0.140 A 
ATOM      8  N   LIG    1       -0.830   3.283   4.147  0.00  0.00    -0.314 N 
ATOM      9  C   LIG    1       -0.339   4.477   3.458  0.00  0.00    +0.125 C 
ATOM     10  C   LIG    1       -0.071   5.582   4.484  0.00  0.00    +0.022 C 
ENDROOT
BRANCH   7  11
ATOM     11  C   LIG    1        0.005   1.512   2.509  0.00  0.00    +0.031 C 
ATOM     12  C   LIG    1       -0.557   2.237   1.285  0.00  0.00    +0.018 C 
ATOM     13  C   LIG    1        0.159   1.744   0.026  0.00  0.00    -0.010 C 
ATOM     14  C   LIG    1        1.657   2.032   0.145  0.00  0.00    +0.007 C 
ATOM     15  C   LIG    1        2.219   1.307   1.369  0.00  0.00    -0.010 C 
ATOM     16  C   LIG    1        2.000  -0.200   1.215  0.00  0.00    +0.007 C 
ATOM     17  C   LIG    1        0.502  -0.487   1.096  0.00  0.00    -0.010 C 
ATOM     18  C   LIG    1       -0.060   0.237  -0.128  0.00  0.00    +0.007 C 
ATOM     19  C   LIG    1       -0.214   0.006   2.355  0.00  0.00    +0.018 C 
ATOM     20  C   LIG    1        1.503   1.800   2.628  0.00  0.00    +0.018 C 
ENDBRANCH   7  11
TORSDOF 1
