REMARK  Name = ZINC05587573
REMARK                            x       y       z     vdW  Elec       q    Type
REMARK                         _______ _______ _______ _____ _____    ______ ____
ROOT
ATOM      1  C   LIG    1        0.005  -0.005  -0.046  0.00  0.00    +0.232 C 
ATOM      2  N   LIG    1       -0.014   1.299  -0.024  0.00  0.00    -0.205 NA
ATOM      3  C   LIG    1        1.269   1.764  -0.018  0.00  0.00    +0.152 C 
ATOM      4  C   LIG    1        2.123   0.560  -0.039  0.00  0.00    +0.364 C 
ATOM      5  O   LIG    1        3.338   0.517  -0.042  0.00  0.00    -0.243 OA
ATOM      6  C   LIG    1        1.680   3.078   0.003  0.00  0.00    +0.044 C 
ATOM      7  O   LIG    1        1.265  -0.483  -0.055  0.00  0.00    -0.402 OA
ENDROOT
BRANCH   1  11
ATOM      8  C   LIG    1       -2.090  -4.532  -0.117  0.00  0.00    +0.045 C 
ATOM      9  C   LIG    1       -2.217  -3.031  -0.092  0.00  0.00    -0.036 A 
ATOM     10  C   LIG    1       -1.084  -2.244  -0.081  0.00  0.00    +0.017 A 
ATOM     11  C   LIG    1       -1.203  -0.853  -0.058  0.00  0.00    +0.037 A 
ATOM     12  C   LIG    1       -2.471  -0.267  -0.041  0.00  0.00    +0.014 A 
ATOM     13  C   LIG    1       -3.596  -1.064  -0.058  0.00  0.00    +0.016 A 
ATOM     14  C   LIG    1       -3.471  -2.443  -0.080  0.00  0.00    +0.021 A 
ATOM     15 BR   LIG    1       -5.019  -3.529  -0.095  0.00  0.00    -0.050 Br
ENDBRANCH   1  11
BRANCH   6  16
ATOM     16  C   LIG    1        0.691   4.157  -0.092  0.00  0.00    -0.005 A 
ATOM     17  C   LIG    1       -0.685   3.870  -0.082  0.00  0.00    +0.011 A 
ATOM     18  C   LIG    1       -1.573   4.925  -0.173  0.00  0.00    +0.020 A 
ATOM     19  C   LIG    1       -1.086   6.217  -0.272  0.00  0.00    +0.111 A 
ATOM     20  N   LIG    1        0.211   6.459  -0.280  0.00  0.00    -0.263 NA
ATOM     21  C   LIG    1        1.100   5.493  -0.189  0.00  0.00    +0.118 A 
ENDBRANCH   6  16
TORSDOF 2
