REMARK  Name = ZINC05614811
REMARK                            x       y       z     vdW  Elec       q    Type
REMARK                         _______ _______ _______ _____ _____    ______ ____
ROOT
ATOM      1  C   LIG    1        4.806  -2.577  -0.060  0.00  0.00    +0.251 A 
ATOM      2  N   LIG    1        5.992  -2.012  -0.063  0.00  0.00    -0.195 NA
ATOM      3  C   LIG    1        6.939  -2.966  -0.080  0.00  0.00    +0.203 A 
ATOM      4  C   LIG    1        6.296  -4.200  -0.087  0.00  0.00    +0.230 A 
ATOM      5  N   LIG    1        4.960  -3.942  -0.069  0.00  0.00    -0.292 N 
ATOM      6  H   LIG    1        4.248  -4.601  -0.064  0.00  0.00    +0.172 HD
ENDROOT
BRANCH   1   8
ATOM      7  N   LIG    1        3.598  -0.628  -0.037  0.00  0.00    -0.146 NA
ATOM      8  N   LIG    1        3.619  -1.918  -0.044  0.00  0.00    -0.110 NA
BRANCH   7  12
ATOM      9  C   LIG    1       -0.017   1.380   0.010  0.00  0.00    +0.000 A 
ATOM     10  C   LIG    1        1.168   2.095   0.002  0.00  0.00    +0.002 A 
ATOM     11  C   LIG    1        2.377   1.433  -0.013  0.00  0.00    +0.029 A 
ATOM     12  C   LIG    1        2.405   0.035  -0.021  0.00  0.00    +0.086 A 
ATOM     13  C   LIG    1        1.203  -0.681  -0.013  0.00  0.00    +0.029 A 
ATOM     14  C   LIG    1        0.002  -0.004   0.002  0.00  0.00    +0.002 A 
ENDBRANCH   7  12
ENDBRANCH   1   8
BRANCH   3  15
ATOM     15  C   LIG    1        8.355  -2.752  -0.089  0.00  0.00    +0.125 C 
ATOM     16  N   LIG    1        9.478  -2.582  -0.097  0.00  0.00    -0.189 NA
ENDBRANCH   3  15
BRANCH   4  17
ATOM     17  O   LIG    1        6.884  -5.418  -0.104  0.00  0.00    -0.492 OA
ATOM     18  H   LIG    1        7.818  -5.487  -0.117  0.00  0.00    +0.294 HD
ENDBRANCH   4  17
TORSDOF 4
