REMARK  Name = ZINC05030581
REMARK                            x       y       z     vdW  Elec       q    Type
REMARK                         _______ _______ _______ _____ _____    ______ ____
ROOT
ATOM      1  N   LIG    1       -6.425   6.584  -0.220  0.00  0.00    -0.249 N 
ATOM      2  C   LIG    1       -5.085   6.450  -0.135  0.00  0.00    +0.257 C 
ATOM      3  C   LIG    1       -4.526   5.091  -0.034  0.00  0.00    +0.100 C 
ATOM      4  C   LIG    1       -5.482   3.970  -0.040  0.00  0.00    +0.257 C 
ATOM      5  N   LIG    1       -6.798   4.254  -0.126  0.00  0.00    -0.249 N 
ATOM      6  O   LIG    1       -5.096   2.818   0.036  0.00  0.00    -0.269 OA
ATOM      7  C   LIG    1       -3.158   4.876   0.057  0.00  0.00    +0.028 C 
ATOM      8  O   LIG    1       -4.359   7.426  -0.140  0.00  0.00    -0.269 OA
ATOM      9  C   LIG    1       -7.237   5.518  -0.215  0.00  0.00    +0.149 C 
ATOM     10  S   LIG    1       -8.925   5.783  -0.327  0.00  0.00    -0.018 S 
ENDROOT
BRANCH   7  11
ATOM     11  C   LIG    1       -2.664   3.586   0.345  0.00  0.00    +0.001 A 
ATOM     12  C   LIG    1       -3.131   2.714   1.313  0.00  0.00    +0.094 A 
ATOM     13  N   LIG    1       -2.408   1.580   1.283  0.00  0.00    -0.349 N 
ATOM     14  C   LIG    1       -2.616   0.437   2.175  0.00  0.00    +0.149 C 
ATOM     15  C   LIG    1       -1.444   1.639   0.296  0.00  0.00    +0.049 A 
ATOM     16  C   LIG    1       -0.466   0.746  -0.130  0.00  0.00    +0.026 A 
ATOM     17  C   LIG    1        0.371   1.087  -1.170  0.00  0.00    +0.002 A 
ATOM     18  C   LIG    1        0.255   2.318  -1.797  0.00  0.00    +0.001 A 
ATOM     19  C   LIG    1       -0.705   3.219  -1.385  0.00  0.00    +0.010 A 
ATOM     20  C   LIG    1       -1.556   2.887  -0.337  0.00  0.00    +0.007 A 
ENDBRANCH   7  11
BRANCH   1  22
ATOM     21  C   LIG    1       -7.123   8.320  -1.794  0.00  0.00    +0.025 C 
ATOM     22  C   LIG    1       -7.006   7.925  -0.321  0.00  0.00    +0.112 C 
ENDBRANCH   1  22
BRANCH   5  23
ATOM     23  C   LIG    1       -7.769   3.157  -0.128  0.00  0.00    +0.112 C 
ATOM     24  C   LIG    1       -8.022   2.704  -1.568  0.00  0.00    +0.025 C 
ENDBRANCH   5  23
TORSDOF 3
