REMARK  Name = ZINC05248543
REMARK                            x       y       z     vdW  Elec       q    Type
REMARK                         _______ _______ _______ _____ _____    ______ ____
ROOT
ATOM      1  C   LIG    1       -4.312  -7.290   0.017  0.00  0.00    +0.087 A 
ATOM      2  C   LIG    1       -3.873  -8.585   0.020  0.00  0.00    +0.027 A 
ATOM      3  C   LIG    1       -4.822  -9.638   0.023  0.00  0.00    +0.003 A 
ATOM      4  C   LIG    1       -4.395 -10.974   0.027  0.00  0.00    +0.055 A 
ATOM      5  C   LIG    1       -5.328 -11.990   0.029  0.00  0.00    +0.121 A 
ATOM      6  C   LIG    1       -6.689 -11.694   0.028  0.00  0.00    +0.047 A 
ATOM      7  C   LIG    1       -7.122 -10.387   0.023  0.00  0.00    +0.030 A 
ATOM      8  C   LIG    1       -6.199  -9.346   0.021  0.00  0.00    +0.049 A 
ATOM      9  N   LIG    1       -6.634  -8.035   0.017  0.00  0.00    -0.322 N 
ATOM     10  H   LIG    1       -7.585  -7.845   0.016  0.00  0.00    +0.169 HD
ATOM     11  C   LIG    1       -5.752  -7.018   0.021  0.00  0.00    +0.260 A 
ATOM     12  O   LIG    1       -6.152  -5.867   0.023  0.00  0.00    -0.267 OA
ENDROOT
BRANCH   1  15
ATOM     13  C   LIG    1       -2.555  -4.144   0.015  0.00  0.00    +0.259 A 
ATOM     14  N   LIG    1       -3.652  -4.865   0.017  0.00  0.00    -0.187 NA
ATOM     15  C   LIG    1       -3.340  -6.172   0.015  0.00  0.00    +0.208 A 
ATOM     16  N   LIG    1       -2.034  -6.295   0.012  0.00  0.00    -0.055 NA
ATOM     17  O   LIG    1       -1.502  -4.979   0.006  0.00  0.00    -0.332 OA
BRANCH  13  22
ATOM     18  C   LIG    1       -1.200  -0.637   0.010  0.00  0.00    +0.121 A 
ATOM     19  C   LIG    1       -2.375   0.103   0.019  0.00  0.00    +0.045 A 
ATOM     20  C   LIG    1       -3.601  -0.536   0.027  0.00  0.00    +0.004 A 
ATOM     21  C   LIG    1       -3.665  -1.914   0.026  0.00  0.00    +0.013 A 
ATOM     22  C   LIG    1       -2.490  -2.667   0.016  0.00  0.00    +0.043 A 
ATOM     23  C   LIG    1       -1.254  -2.021   0.003  0.00  0.00    +0.059 A 
BRANCH  18  25
ATOM     24  C   LIG    1       -0.017   1.425   0.010  0.00  0.00    +0.277 C 
ATOM     25  O   LIG    1        0.002  -0.004   0.002  0.00  0.00    -0.495 OA
ENDBRANCH  18  25
ENDBRANCH  13  22
ENDBRANCH   1  15
BRANCH   5  26
ATOM     26  O   LIG    1       -4.917 -13.286   0.033  0.00  0.00    -0.495 OA
ATOM     27  C   LIG    1       -5.934 -14.289   0.035  0.00  0.00    +0.277 C 
ENDBRANCH   5  26
TORSDOF 4
