REMARK  Name = ZINC04886882
REMARK                            x       y       z     vdW  Elec       q    Type
REMARK                         _______ _______ _______ _____ _____    ______ ____
ROOT
ATOM      1  O   LIG    1       -2.067   4.972  -0.720  0.00  0.00    -0.357 OA
ENDROOT
BRANCH   1   2
ATOM      2  C   LIG    1       -1.433   4.595  -1.944  0.00  0.00    +0.196 C 
BRANCH   2   6
ATOM      3  C   LIG    1       -1.720   7.233  -4.370  0.00  0.00    +0.226 C 
ATOM      4  C   LIG    1       -0.931   6.117  -5.101  0.00  0.00    +0.088 C 
ATOM      5  C   LIG    1       -0.160   5.449  -3.936  0.00  0.00    +0.150 C 
ATOM      6  C   LIG    1       -0.955   5.849  -2.678  0.00  0.00    +0.175 C 
ATOM      7  O   LIG    1       -2.087   6.621  -3.115  0.00  0.00    -0.348 OA
BRANCH   3  11
ATOM      8  C   LIG    1       -6.624   7.655  -4.657  0.00  0.00    +0.051 C 
ATOM      9  C   LIG    1       -5.253   7.805  -5.266  0.00  0.00    +0.030 A 
ATOM     10  C   LIG    1       -4.152   7.463  -4.564  0.00  0.00    +0.101 A 
ATOM     11  N   LIG    1       -2.915   7.604  -5.132  0.00  0.00    -0.274 N 
ATOM     12  C   LIG    1       -2.786   8.086  -6.381  0.00  0.00    +0.331 A 
ATOM     13  N   LIG    1       -3.867   8.430  -7.106  0.00  0.00    -0.275 N 
ATOM     14  H   LIG    1       -3.753   8.779  -8.036  0.00  0.00    +0.173 HD
ATOM     15  O   LIG    1       -1.677   8.208  -6.865  0.00  0.00    -0.246 OA
ATOM     16  C   LIG    1       -5.103   8.305  -6.582  0.00  0.00    +0.257 A 
ATOM     17  O   LIG    1       -6.082   8.620  -7.235  0.00  0.00    -0.267 OA
ENDBRANCH   3  11
BRANCH   5  18
ATOM     18  O   LIG    1       -0.151   4.029  -4.092  0.00  0.00    -0.389 OA
ATOM     19  H   LIG    1        0.335   3.721  -4.868  0.00  0.00    +0.210 HD
ENDBRANCH   5  18
ENDBRANCH   2   6
ENDBRANCH   1   2
BRANCH   1  20
ATOM     20  C   LIG    1       -2.553   3.869   0.047  0.00  0.00    +0.144 C 
BRANCH  20  21
ATOM     21  C   LIG    1       -3.199   4.380   1.309  0.00  0.00    -0.007 A 
ATOM     22  C   LIG    1       -3.191   3.603   2.453  0.00  0.00    +0.007 A 
ATOM     23  C   LIG    1       -3.780   4.074   3.611  0.00  0.00    +0.000 A 
ATOM     24  C   LIG    1       -4.385   5.316   3.624  0.00  0.00    +0.000 A 
ATOM     25  C   LIG    1       -4.397   6.091   2.478  0.00  0.00    +0.000 A 
ATOM     26  C   LIG    1       -3.805   5.622   1.321  0.00  0.00    +0.007 A 
ENDBRANCH  20  21
BRANCH  20  27
ATOM     27  C   LIG    1       -3.567   3.102  -0.762  0.00  0.00    -0.007 A 
ATOM     28  C   LIG    1       -3.149   2.253  -1.770  0.00  0.00    +0.007 A 
ATOM     29  C   LIG    1       -4.080   1.547  -2.509  0.00  0.00    +0.000 A 
ATOM     30  C   LIG    1       -5.428   1.697  -2.247  0.00  0.00    +0.000 A 
ATOM     31  C   LIG    1       -5.847   2.549  -1.242  0.00  0.00    +0.000 A 
ATOM     32  C   LIG    1       -4.916   3.252  -0.500  0.00  0.00    +0.007 A 
ENDBRANCH  20  27
BRANCH  20  33
ATOM     33  C   LIG    1       -1.404   2.960   0.403  0.00  0.00    -0.007 A 
ATOM     34  C   LIG    1       -1.627   1.610   0.602  0.00  0.00    +0.007 A 
ATOM     35  C   LIG    1       -0.574   0.778   0.934  0.00  0.00    +0.000 A 
ATOM     36  C   LIG    1        0.703   1.294   1.056  0.00  0.00    +0.000 A 
ATOM     37  C   LIG    1        0.926   2.642   0.851  0.00  0.00    +0.000 A 
ATOM     38  C   LIG    1       -0.127   3.476   0.524  0.00  0.00    +0.007 A 
ENDBRANCH  20  33
ENDBRANCH   1  20
TORSDOF 8
