REMARK  Name = ZINC05785242
REMARK                            x       y       z     vdW  Elec       q    Type
REMARK                         _______ _______ _______ _____ _____    ______ ____
ROOT
ATOM      1  N   LIG    1        3.580   2.120  -0.145  0.00  0.00    -0.243 N 
ATOM      2  H   LIG    1        4.417   1.642  -0.261  0.00  0.00    +0.265 HD
ENDROOT
BRANCH   1   5
ATOM      3  C   LIG    1        1.007  -0.482  -0.497  0.00  0.00    +0.006 A 
ATOM      4  C   LIG    1        2.186   0.217  -0.663  0.00  0.00    +0.042 A 
ATOM      5  C   LIG    1        2.387   1.409   0.020  0.00  0.00    +0.102 A 
ATOM      6  C   LIG    1        1.400   1.894   0.868  0.00  0.00    +0.074 A 
ATOM      7  C   LIG    1        0.223   1.190   1.030  0.00  0.00    +0.125 A 
ATOM      8  C   LIG    1        0.026   0.003   0.348  0.00  0.00    +0.033 A 
BRANCH   7   9
ATOM      9  N   LIG    1       -0.830   1.707   1.934  0.00  0.00    +0.006 N 
ATOM     10  O   LIG    1       -0.658   2.744   2.530  0.00  0.00    -0.130 OA
BRANCH   9  11
ATOM     11  O   LIG    1       -1.860   1.091   2.076  0.00  0.00    -0.396 OA
ATOM     12  H   LIG    1       -1.993   0.287   1.613  0.00  0.00    +0.329 HD
ENDBRANCH   9  11
ENDBRANCH   7   9
ENDBRANCH   1   5
BRANCH   1  13
ATOM     13  C   LIG    1        3.567   3.496  -0.145  0.00  0.00    +0.393 C 
ATOM     14  N   LIG    1        4.689   4.157  -0.181  0.00  0.00    -0.129 NA
ATOM     15  H   LIG    1        5.529   3.683  -0.282  0.00  0.00    +0.306 HD
BRANCH  13  16
ATOM     16  N   LIG    1        2.367   4.175  -0.105  0.00  0.00    -0.186 N 
ATOM     17  H   LIG    1        1.532   3.682  -0.083  0.00  0.00    +0.271 HD
BRANCH  16  18
ATOM     18  C   LIG    1        2.354   5.554  -0.098  0.00  0.00    +0.385 C 
ATOM     19  N   LIG    1        3.471   6.216  -0.202  0.00  0.00    -0.129 NA
ATOM     20  H   LIG    1        3.462   7.186  -0.197  0.00  0.00    +0.306 HD
BRANCH  18  21
ATOM     21  N   LIG    1        1.163   6.230   0.020  0.00  0.00    -0.289 N 
ATOM     22  H   LIG    1        1.146   7.197  -0.049  0.00  0.00    +0.255 HD
ATOM     23  H   LIG    1        0.340   5.739   0.171  0.00  0.00    +0.255 HD
ENDBRANCH  18  21
ENDBRANCH  16  18
ENDBRANCH  13  16
ENDBRANCH   1  13
TORSDOF 7
