REMARK  Name = ZINC05538110
REMARK                            x       y       z     vdW  Elec       q    Type
REMARK                         _______ _______ _______ _____ _____    ______ ____
ROOT
ATOM      1  C   LIG    1        2.509  -3.987  -0.255  0.00  0.00    -0.033 A 
ATOM      2  C   LIG    1        3.290  -3.775  -1.375  0.00  0.00    +0.007 A 
ATOM      3  C   LIG    1        4.668  -3.766  -1.265  0.00  0.00    +0.029 A 
ATOM      4  C   LIG    1        5.265  -3.968  -0.035  0.00  0.00    +0.105 A 
ATOM      5  C   LIG    1        4.483  -4.180   1.086  0.00  0.00    +0.029 A 
ATOM      6  C   LIG    1        3.105  -4.185   0.977  0.00  0.00    +0.007 A 
ENDROOT
BRANCH   4   7
ATOM      7  S   LIG    1        7.021  -3.958   0.105  0.00  0.00    +0.056 S 
ATOM      8  O   LIG    1        7.533  -4.283  -1.180  0.00  0.00    -0.153 OA
ATOM      9  O   LIG    1        7.340  -4.713   1.266  0.00  0.00    -0.153 OA
BRANCH   7  10
ATOM     10  N   LIG    1        7.478  -2.397   0.416  0.00  0.00    -0.204 NA
ATOM     11  H   LIG    1        8.417  -2.179   0.528  0.00  0.00    +0.144 HD
ATOM     12  H   LIG    1        6.807  -1.700   0.486  0.00  0.00    +0.144 HD
ENDBRANCH   7  10
ENDBRANCH   4   7
BRANCH   1  13
ATOM     13  C   LIG    1        1.007  -3.997  -0.375  0.00  0.00    +0.120 C 
BRANCH  13  19
ATOM     14  C   LIG    1       -0.999   1.291   0.376  0.00  0.00    +0.007 C 
ATOM     15  C   LIG    1       -0.469  -0.106   0.177  0.00  0.00    -0.011 C 
ATOM     16  C   LIG    1       -0.130  -0.564  -1.087  0.00  0.00    +0.022 C 
ATOM     17  C   LIG    1        0.353  -1.851  -1.230  0.00  0.00    +0.054 C 
ATOM     18  C   LIG    1        0.725  -2.359  -2.599  0.00  0.00    +0.024 C 
ATOM     19  N   LIG    1        0.492  -2.639  -0.182  0.00  0.00    -0.293 NA
ATOM     20  C   LIG    1        0.180  -2.238   1.034  0.00  0.00    +0.054 C 
ATOM     21  C   LIG    1        0.357  -3.179   2.198  0.00  0.00    +0.024 C 
ATOM     22  C   LIG    1       -0.303  -0.962   1.256  0.00  0.00    +0.022 C 
ENDBRANCH  13  19
ENDBRANCH   1  13
TORSDOF 4
