REMARK  Name = ZINC05833419
REMARK                            x       y       z     vdW  Elec       q    Type
REMARK                         _______ _______ _______ _____ _____    ______ ____
ROOT
ATOM      1  N   LIG    1        3.694   2.891  -4.945  0.00  0.00    +0.382 N 
ATOM      2  H   LIG    1        4.270   2.044  -4.885  0.00  0.00    -0.081 HD
ENDROOT
BRANCH   1   3
ATOM      3  C   LIG    1        2.735   2.900  -3.820  0.00  0.00    -0.064 C 
ATOM      4  C   LIG    1        1.857   1.646  -3.898  0.00  0.00    -0.010 C 
ATOM      5  C   LIG    1        0.739   1.775  -2.865  0.00  0.00    +0.037 C 
ATOM      6  C   LIG    1        1.305   2.119  -1.512  0.00  0.00    -0.003 A 
ATOM      7  C   LIG    1        2.572   2.628  -1.347  0.00  0.00    -0.042 A 
ATOM      8  C   LIG    1        3.029   2.938  -0.072  0.00  0.00    +0.004 A 
ATOM      9  C   LIG    1        2.225   2.738   1.032  0.00  0.00    +0.004 A 
ATOM     10  C   LIG    1        0.951   2.227   0.871  0.00  0.00    +0.046 A 
ATOM     11  C   LIG    1        0.493   1.913  -0.398  0.00  0.00    +0.120 A 
ATOM     12  C   LIG    1        3.508   2.866  -2.503  0.00  0.00    +0.020 C 
BRANCH  11  13
ATOM     13  O   LIG    1       -0.757   1.407  -0.558  0.00  0.00    -0.506 OA
ATOM     14  H   LIG    1       -0.798   0.441  -0.521  0.00  0.00    +0.292 HD
ENDBRANCH  11  13
ENDBRANCH   1   3
BRANCH   1  15
ATOM     15  C   LIG    1        2.964   2.885  -6.231  0.00  0.00    -0.079 C 
BRANCH  15  17
ATOM     16  C   LIG    1        1.299   4.073  -7.665  0.00  0.00    +0.002 C 
ATOM     17  C   LIG    1        1.987   4.060  -6.298  0.00  0.00    -0.022 C 
ENDBRANCH  15  17
ENDBRANCH   1  15
BRANCH   1  18
ATOM     18  C   LIG    1        4.573   4.077  -4.869  0.00  0.00    -0.074 C 
BRANCH  18  19
ATOM     19  C   LIG    1        5.641   3.972  -5.960  0.00  0.00    +0.017 C 
BRANCH  19  20
ATOM     20  C   LIG    1        6.634   5.093  -5.800  0.00  0.00    -0.042 A 
ATOM     21  C   LIG    1        7.758   4.928  -5.012  0.00  0.00    +0.011 A 
ATOM     22  C   LIG    1        8.632   5.957  -4.889  0.00  0.00    +0.045 A 
ATOM     23  S   LIG    1        7.870   7.212  -5.906  0.00  0.00    -0.105 S 
ATOM     24  C   LIG    1        6.442   6.278  -6.431  0.00  0.00    +0.048 A 
ENDBRANCH  19  20
ENDBRANCH  18  19
ENDBRANCH   1  18
TORSDOF 7
