REMARK  Name = ZINC05647675
REMARK                            x       y       z     vdW  Elec       q    Type
REMARK                         _______ _______ _______ _____ _____    ______ ____
ROOT
ATOM      1  C   LIG    1       -0.219  -0.033  -2.409  0.00  0.00    -0.026 C 
ATOM      2  C   LIG    1       -1.635  -0.605  -2.303  0.00  0.00    +0.027 C 
ATOM      3  C   LIG    1       -2.364  -0.402  -3.608  0.00  0.00    -0.003 A 
ATOM      4  C   LIG    1       -3.747  -0.503  -3.621  0.00  0.00    +0.007 A 
ATOM      5  C   LIG    1       -4.449  -0.331  -4.797  0.00  0.00    +0.004 A 
ATOM      6  C   LIG    1       -3.773  -0.056  -5.972  0.00  0.00    +0.049 A 
ATOM      7  C   LIG    1       -2.393   0.048  -5.967  0.00  0.00    +0.159 A 
ATOM      8  C   LIG    1       -1.683  -0.124  -4.778  0.00  0.00    +0.165 A 
ATOM      9  O   LIG    1       -0.329  -0.011  -4.809  0.00  0.00    -0.490 OA
ATOM     10  C   LIG    1        0.412  -0.544  -3.710  0.00  0.00    +0.214 C 
ENDROOT
BRANCH   1  11
ATOM     11  N   LIG    1        0.609  -0.471  -1.266  0.00  0.00    +0.384 N 
ATOM     12  H   LIG    1        1.581  -0.184  -1.429  0.00  0.00    -0.081 HD
BRANCH  11  13
ATOM     13  C   LIG    1        0.125   0.160  -0.020  0.00  0.00    -0.079 C 
BRANCH  13  15
ATOM     14  C   LIG    1        0.138   2.280   1.301  0.00  0.00    +0.002 C 
ATOM     15  C   LIG    1        0.498   1.643  -0.043  0.00  0.00    -0.022 C 
ENDBRANCH  13  15
ENDBRANCH  11  13
BRANCH  11  16
ATOM     16  C   LIG    1        0.558  -1.943  -1.140  0.00  0.00    -0.079 C 
BRANCH  16  17
ATOM     17  C   LIG    1        1.591  -2.385  -0.101  0.00  0.00    -0.022 C 
ATOM     18  C   LIG    1        1.566  -3.909   0.025  0.00  0.00    +0.002 C 
ENDBRANCH  16  17
ENDBRANCH  11  16
ENDBRANCH   1  11
BRANCH   7  19
ATOM     19  O   LIG    1       -1.728   0.318  -7.122  0.00  0.00    -0.503 OA
ATOM     20  H   LIG    1       -1.470  -0.469  -7.620  0.00  0.00    +0.292 HD
ENDBRANCH   7  19
TORSDOF 6
