REMARK  Name = ZINC05796043
REMARK                            x       y       z     vdW  Elec       q    Type
REMARK                         _______ _______ _______ _____ _____    ______ ____
ROOT
ATOM      1  C   LIG    1        1.059   7.389   0.239  0.00  0.00    +0.190 A 
ATOM      2  C   LIG    1        2.159   8.212   0.347  0.00  0.00    +0.055 A 
ATOM      3  C   LIG    1        1.677   9.522   0.431  0.00  0.00    +0.050 A 
ATOM      4  C   LIG    1        0.314   9.452   0.381  0.00  0.00    +0.136 A 
ATOM      5  O   LIG    1       -0.047   8.163   0.265  0.00  0.00    -0.450 OA
ENDROOT
BRANCH   4   6
ATOM      6  C   LIG    1       -0.610  10.602   0.444  0.00  0.00    +0.017 A 
ATOM      7  C   LIG    1       -0.108  11.899   0.572  0.00  0.00    +0.013 A 
ATOM      8  C   LIG    1       -0.976  12.969   0.625  0.00  0.00    +0.021 A 
ATOM      9  C   LIG    1       -2.343  12.759   0.563  0.00  0.00    +0.041 A 
ATOM     10 CL   LIG    1       -3.429  14.111   0.637  0.00  0.00    -0.084 Cl
ATOM     11  C   LIG    1       -2.848  11.475   0.443  0.00  0.00    +0.021 A 
ATOM     12  C   LIG    1       -1.990  10.397   0.383  0.00  0.00    +0.013 A 
ENDBRANCH   4   6
BRANCH   1  15
ATOM     13  N   LIG    1       -0.069   5.240   0.028  0.00  0.00    -0.279 N 
ATOM     14  H   LIG    1       -0.913   5.714  -0.039  0.00  0.00    +0.155 HD
ATOM     15  C   LIG    1        1.085   5.930   0.122  0.00  0.00    +0.284 C 
ATOM     16  O   LIG    1        2.150   5.339   0.109  0.00  0.00    -0.266 OA
BRANCH  13  22
ATOM     17  C   LIG    1        1.953   1.035   1.575  0.00  0.00    +0.044 C 
ATOM     18  C   LIG    1        0.918   1.778   0.769  0.00  0.00    -0.049 A 
ATOM     19  C   LIG    1       -0.015   1.076   0.028  0.00  0.00    +0.003 A 
ATOM     20  C   LIG    1       -0.969   1.753  -0.709  0.00  0.00    +0.002 A 
ATOM     21  C   LIG    1       -0.990   3.134  -0.711  0.00  0.00    +0.023 A 
ATOM     22  C   LIG    1       -0.051   3.842   0.028  0.00  0.00    +0.034 A 
ATOM     23  C   LIG    1        0.907   3.159   0.766  0.00  0.00    +0.026 A 
ENDBRANCH  13  22
ENDBRANCH   1  15
TORSDOF 3
