REMARK  Name = ZINC04993591
REMARK                            x       y       z     vdW  Elec       q    Type
REMARK                         _______ _______ _______ _____ _____    ______ ____
ROOT
ATOM      1  C   LIG    1       -4.840   0.010   0.165  0.00  0.00    +0.034 A 
ATOM      2  C   LIG    1       -4.820   1.399   0.171  0.00  0.00    +0.023 A 
ATOM      3  C   LIG    1       -6.002   2.104   0.279  0.00  0.00    +0.003 A 
ATOM      4  C   LIG    1       -7.204   1.430   0.392  0.00  0.00    -0.064 A 
ATOM      5  C   LIG    1       -7.227   0.047   0.392  0.00  0.00    +0.003 A 
ATOM      6  C   LIG    1       -6.049  -0.665   0.279  0.00  0.00    +0.023 A 
ENDROOT
BRANCH   1   8
ATOM      7  C   LIG    1       -2.631  -0.215  -0.686  0.00  0.00    +0.252 C 
ATOM      8  N   LIG    1       -3.645  -0.708   0.051  0.00  0.00    -0.281 N 
ATOM      9  H   LIG    1       -3.547  -1.561   0.503  0.00  0.00    +0.155 HD
ATOM     10  O   LIG    1       -2.787   0.805  -1.330  0.00  0.00    -0.270 OA
BRANCH   7  17
ATOM     11  C   LIG    1       -0.274  -0.403  -1.478  0.00  0.00    +0.132 A 
ATOM     12  C   LIG    1        0.946  -1.063  -1.491  0.00  0.00    +0.047 A 
ATOM     13  C   LIG    1        1.115  -2.220  -0.757  0.00  0.00    +0.019 A 
ATOM     14  C   LIG    1        0.070  -2.731  -0.003  0.00  0.00    +0.019 A 
ATOM     15 BR   LIG    1        0.317  -4.316   0.997  0.00  0.00    -0.050 Br
ATOM     16  C   LIG    1       -1.149  -2.087   0.020  0.00  0.00    +0.032 A 
ATOM     17  C   LIG    1       -1.331  -0.912  -0.713  0.00  0.00    +0.080 A 
BRANCH  11  19
ATOM     18  C   LIG    1        0.684   1.197  -2.950  0.00  0.00    +0.277 C 
ATOM     19  O   LIG    1       -0.440   0.734  -2.199  0.00  0.00    -0.494 OA
ENDBRANCH  11  19
ENDBRANCH   7  17
ENDBRANCH   1   8
BRANCH   4  20
ATOM     20  C   LIG    1       -8.492   2.203   0.515  0.00  0.00    -0.043 C 
BRANCH  20  21
ATOM     21  N   LIG    1       -8.754   2.465   1.946  0.00  0.00    +0.382 N 
ATOM     22  H   LIG    1       -7.919   2.889   2.366  0.00  0.00    -0.081 HD
ATOM     23  C   LIG    1       -9.890   3.400   2.088  0.00  0.00    -0.078 C 
ATOM     24  C   LIG    1      -10.065   3.746   3.568  0.00  0.00    -0.019 C 
ATOM     25  C   LIG    1      -10.349   2.465   4.357  0.00  0.00    -0.004 C 
ATOM     26  C   LIG    1       -9.200   1.477   4.142  0.00  0.00    -0.019 C 
ATOM     27  C   LIG    1       -9.050   1.196   2.645  0.00  0.00    -0.078 C 
ENDBRANCH  20  21
ENDBRANCH   4  20
TORSDOF 5
