REMARK  Name = ZINC05212444
REMARK                            x       y       z     vdW  Elec       q    Type
REMARK                         _______ _______ _______ _____ _____    ______ ____
ROOT
ATOM      1  N   LIG    1        2.360   1.158  -0.005  0.00  0.00    -0.280 N 
ATOM      2  H   LIG    1        3.195   1.649  -0.062  0.00  0.00    +0.155 HD
ATOM      3  C   LIG    1        2.374  -0.188   0.077  0.00  0.00    +0.252 C 
ATOM      4  O   LIG    1        1.329  -0.808   0.068  0.00  0.00    -0.270 OA
ENDROOT
BRANCH   1   9
ATOM      5  C   LIG    1       -2.579   3.946  -0.018  0.00  0.00    +0.044 C 
ATOM      6  C   LIG    1       -1.267   3.205  -0.015  0.00  0.00    -0.048 A 
ATOM      7  C   LIG    1       -1.166   1.978  -0.644  0.00  0.00    +0.005 A 
ATOM      8  C   LIG    1        0.034   1.294  -0.638  0.00  0.00    +0.026 A 
ATOM      9  C   LIG    1        1.143   1.845  -0.009  0.00  0.00    +0.064 A 
ATOM     10  C   LIG    1        1.039   3.081   0.617  0.00  0.00    +0.143 A 
ATOM     11  C   LIG    1       -0.165   3.757   0.613  0.00  0.00    +0.037 A 
BRANCH  10  12
ATOM     12  N   LIG    1        2.218   3.671   1.289  0.00  0.00    +0.008 N 
ATOM     13  O   LIG    1        2.106   4.711   1.914  0.00  0.00    -0.130 OA
BRANCH  12  14
ATOM     14  O   LIG    1        3.301   3.118   1.218  0.00  0.00    -0.396 OA
ATOM     15  H   LIG    1        3.388   2.318   0.737  0.00  0.00    +0.329 HD
ENDBRANCH  12  14
ENDBRANCH  10  12
ENDBRANCH   1   9
BRANCH   3  16
ATOM     16  C   LIG    1        3.658  -0.907   0.179  0.00  0.00    +0.078 A 
ATOM     17  C   LIG    1        4.862  -0.198   0.185  0.00  0.00    +0.017 A 
ATOM     18  C   LIG    1        6.058  -0.876   0.285  0.00  0.00    +0.001 A 
ATOM     19  C   LIG    1        6.072  -2.258   0.370  0.00  0.00    +0.004 A 
ATOM     20  C   LIG    1        4.890  -2.971   0.361  0.00  0.00    +0.046 A 
ATOM     21  C   LIG    1        3.677  -2.306   0.266  0.00  0.00    +0.129 A 
BRANCH  21  22
ATOM     22  O   LIG    1        2.515  -3.005   0.255  0.00  0.00    -0.506 OA
ATOM     23  H   LIG    1        2.218  -3.261  -0.628  0.00  0.00    +0.292 HD
ENDBRANCH  21  22
ENDBRANCH   3  16
TORSDOF 5
