REMARK  Name = ZINC05528435
REMARK                            x       y       z     vdW  Elec       q    Type
REMARK                         _______ _______ _______ _____ _____    ______ ____
ROOT
ATOM      1  C   LIG    1       -0.016   1.357   0.009  0.00  0.00    +0.001 A 
ATOM      2  C   LIG    1        1.169   2.090   0.002  0.00  0.00    +0.001 A 
ATOM      3  C   LIG    1        2.378   1.465  -0.013  0.00  0.00    +0.010 A 
ATOM      4  C   LIG    1        2.437   0.062  -0.021  0.00  0.00    +0.007 A 
ATOM      5  C   LIG    1        1.232  -0.684  -0.013  0.00  0.00    -0.016 A 
ATOM      6  C   LIG    1        1.285  -2.089  -0.022  0.00  0.00    +0.010 A 
ATOM      7  C   LIG    1        2.485  -2.728  -0.037  0.00  0.00    +0.028 A 
ATOM      8  C   LIG    1        3.683  -2.006  -0.045  0.00  0.00    +0.065 A 
ATOM      9  N   LIG    1        5.021  -2.396  -0.060  0.00  0.00    -0.334 N 
ATOM     10  H   LIG    1        5.346  -3.309  -0.069  0.00  0.00    +0.168 HD
ATOM     11  C   LIG    1        5.784  -1.287  -0.061  0.00  0.00    +0.156 A 
ATOM     12  S   LIG    1        7.496  -1.264  -0.076  0.00  0.00    -0.013 S 
ATOM     13  N   LIG    1        4.992  -0.198  -0.047  0.00  0.00    -0.333 N 
ATOM     14  H   LIG    1        5.295   0.724  -0.044  0.00  0.00    +0.168 HD
ATOM     15  C   LIG    1        3.669  -0.620  -0.037  0.00  0.00    +0.073 A 
ATOM     16  C   LIG    1        0.002  -0.004   0.002  0.00  0.00    +0.008 A 
ENDROOT
TORSDOF 0
