REMARK  Name = ZINC05214039
REMARK                            x       y       z     vdW  Elec       q    Type
REMARK                         _______ _______ _______ _____ _____    ______ ____
ROOT
ATOM      1  C   LIG    1       -1.295   2.117   0.020  0.00  0.00    +0.032 C 
ATOM      2  C   LIG    1       -2.462   1.431  -0.081  0.00  0.00    +0.079 C 
ATOM      3  C   LIG    1       -3.845   1.938  -0.186  0.00  0.00    +0.272 C 
ATOM      4  N   LIG    1       -4.803   1.030  -0.276  0.00  0.00    -0.189 N 
ATOM      5  C   LIG    1       -4.527  -0.290  -0.261  0.00  0.00    +0.135 C 
ATOM      6  S   LIG    1       -5.619  -1.605  -0.359  0.00  0.00    -0.026 S 
ATOM      7  O   LIG    1       -4.091   3.130  -0.193  0.00  0.00    -0.268 OA
ATOM      8  S   LIG    1       -2.748  -0.333  -0.115  0.00  0.00    -0.060 S 
ENDROOT
BRANCH   1  13
ATOM      9  C   LIG    1        1.109  -0.571   1.040  0.00  0.00    +0.001 A 
ATOM     10  C   LIG    1        2.325   0.036   0.770  0.00  0.00    +0.004 A 
ATOM     11  C   LIG    1        2.369   1.319   0.258  0.00  0.00    +0.046 A 
ATOM     12  C   LIG    1        1.193   2.010   0.011  0.00  0.00    +0.124 A 
ATOM     13  C   LIG    1       -0.042   1.399   0.283  0.00  0.00    +0.018 A 
ATOM     14  C   LIG    1       -0.071   0.099   0.801  0.00  0.00    +0.011 A 
BRANCH  12  15
ATOM     15  O   LIG    1        1.235   3.269  -0.492  0.00  0.00    -0.506 OA
ATOM     16  H   LIG    1        1.266   3.961   0.183  0.00  0.00    +0.292 HD
ENDBRANCH  12  15
ENDBRANCH   1  13
BRANCH   4  17
ATOM     17  N   LIG    1       -6.103   1.440  -0.381  0.00  0.00    -0.246 NA
ATOM     18  H   LIG    1       -6.354   2.045   0.386  0.00  0.00    +0.141 HD
ATOM     19  H   LIG    1       -6.727   0.649  -0.438  0.00  0.00    +0.141 HD
ENDBRANCH   4  17
TORSDOF 3
