REMARK  Name = ZINC04977928
REMARK                            x       y       z     vdW  Elec       q    Type
REMARK                         _______ _______ _______ _____ _____    ______ ____
ROOT
ATOM      1  C   LIG    1       -2.344   2.191  10.756  0.00  0.00    +0.060 A 
ATOM      2  C   LIG    1       -2.832   2.651   9.536  0.00  0.00    +0.026 A 
ATOM      3  C   LIG    1       -2.179   2.334   8.367  0.00  0.00    +0.015 A 
ATOM      4  C   LIG    1       -1.029   1.538   8.405  0.00  0.00    +0.039 A 
ATOM      5  C   LIG    1       -0.542   1.077   9.632  0.00  0.00    +0.047 A 
ATOM      6  C   LIG    1       -1.197   1.403  10.797  0.00  0.00    +0.143 A 
ENDROOT
BRANCH   1  12
ATOM      7  C   LIG    1       -5.763   4.058  14.739  0.00  0.00    -0.096 C 
ATOM      8  N   LIG    1       -5.080   3.724  13.471  0.00  0.00    +0.380 N 
ATOM      9  H   LIG    1       -5.609   4.127  12.690  0.00  0.00    -0.082 HD
ATOM     10  C   LIG    1       -5.018   2.256  13.303  0.00  0.00    -0.060 C 
ATOM     11  C   LIG    1       -4.356   1.942  11.959  0.00  0.00    +0.086 C 
ATOM     12  N   LIG    1       -3.004   2.518  11.935  0.00  0.00    -0.332 N 
ATOM     13  C   LIG    1       -3.052   3.974  12.126  0.00  0.00    +0.086 C 
ATOM     14  C   LIG    1       -3.714   4.289  13.469  0.00  0.00    -0.060 C 
ENDBRANCH   1  12
BRANCH   4  15
ATOM     15  C   LIG    1       -0.330   1.190   7.154  0.00  0.00    +0.248 C 
ATOM     16  N   LIG    1       -0.801   1.635   5.973  0.00  0.00    -0.281 N 
ATOM     17  H   LIG    1       -1.554   2.246   5.950  0.00  0.00    +0.155 HD
ATOM     18  O   LIG    1        0.672   0.502   7.189  0.00  0.00    -0.270 OA
BRANCH  16  19
ATOM     19  C   LIG    1       -0.204   1.216   4.779  0.00  0.00    +0.037 A 
ATOM     20  C   LIG    1       -0.148   2.077   3.690  0.00  0.00    +0.023 A 
ATOM     21  C   LIG    1        0.441   1.663   2.511  0.00  0.00    +0.005 A 
ATOM     22  C   LIG    1        0.976   0.392   2.412  0.00  0.00    +0.046 A 
ATOM     23  C   LIG    1        0.921  -0.472   3.496  0.00  0.00    +0.122 A 
ATOM     24  C   LIG    1        0.326  -0.063   4.679  0.00  0.00    +0.069 A 
BRANCH  23  25
ATOM     25  O   LIG    1        1.447  -1.722   3.397  0.00  0.00    -0.495 OA
ATOM     26  C   LIG    1        2.040  -2.079   2.147  0.00  0.00    +0.277 C 
ENDBRANCH  23  25
ENDBRANCH  16  19
ENDBRANCH   4  15
BRANCH   6  27
ATOM     27  N   LIG    1       -0.681   0.916  12.096  0.00  0.00    +0.008 N 
ATOM     28  O   LIG    1        0.322   0.227  12.133  0.00  0.00    -0.130 OA
BRANCH  27  29
ATOM     29  O   LIG    1       -1.260   1.204  13.128  0.00  0.00    -0.396 OA
ATOM     30  H   LIG    1       -2.033   1.735  13.100  0.00  0.00    +0.329 HD
ENDBRANCH  27  29
ENDBRANCH   6  27
TORSDOF 6
