REMARK  Name = ZINC05163034
REMARK                            x       y       z     vdW  Elec       q    Type
REMARK                         _______ _______ _______ _____ _____    ______ ____
ROOT
ATOM      1  C   LIG    1        3.591   3.752  -0.011  0.00  0.00    +0.254 C 
ATOM      2  C   LIG    1        4.104   3.595  -1.465  0.00  0.00    +0.196 C 
ATOM      3  C   LIG    1        5.597   3.979  -1.325  0.00  0.00    +0.187 C 
ATOM      4  C   LIG    1        5.656   4.800  -0.023  0.00  0.00    +0.260 C 
ATOM      5  O   LIG    1        4.312   4.901   0.483  0.00  0.00    -0.337 OA
ENDROOT
BRANCH   1  11
ATOM      6  C   LIG    1       -0.013   1.076   0.008  0.00  0.00    +0.225 A 
ATOM      7  N   LIG    1       -1.179   1.696   0.017  0.00  0.00    -0.219 NA
ATOM      8  C   LIG    1       -1.253   3.022   0.029  0.00  0.00    +0.147 A 
ATOM      9  C   LIG    1       -0.057   3.760   0.022  0.00  0.00    +0.147 A 
ATOM     10  C   LIG    1        1.158   3.054   0.007  0.00  0.00    +0.167 A 
ATOM     11  N   LIG    1        2.148   4.004   0.003  0.00  0.00    -0.285 N 
ATOM     12  C   LIG    1        1.542   5.225   0.015  0.00  0.00    +0.203 A 
ATOM     13  N   LIG    1        0.249   5.080   0.026  0.00  0.00    -0.231 NA
ATOM     14  N   LIG    1        1.132   1.725   0.001  0.00  0.00    -0.216 NA
BRANCH   8  15
ATOM     15  N   LIG    1       -2.479   3.663   0.043  0.00  0.00    -0.341 N 
ATOM     16  H   LIG    1       -3.298   3.143   0.048  0.00  0.00    +0.144 HD
ATOM     17  H   LIG    1       -2.549   4.231   0.864  0.00  0.00    +0.144 HD
ENDBRANCH   8  15
ENDBRANCH   1  11
BRANCH   2  18
ATOM     18  O   LIG    1        3.964   2.245  -1.912  0.00  0.00    -0.385 OA
ATOM     19  H   LIG    1        4.271   2.097  -2.817  0.00  0.00    +0.210 HD
ENDBRANCH   2  18
BRANCH   3  20
ATOM     20  O   LIG    1        6.407   2.806  -1.217  0.00  0.00    -0.386 OA
ATOM     21  H   LIG    1        7.352   2.988  -1.127  0.00  0.00    +0.210 HD
ENDBRANCH   3  20
BRANCH   4  22
ATOM     22  C   LIG    1        6.206   6.174  -0.307  0.00  0.00    +0.337 C 
ATOM     23  O   LIG    1        5.508   7.148  -0.155  0.00  0.00    -0.248 OA
BRANCH  22  24
ATOM     24  O   LIG    1        7.472   6.315  -0.730  0.00  0.00    -0.479 OA
ATOM     25  H   LIG    1        8.014   5.560  -0.848  0.00  0.00    +0.295 HD
ENDBRANCH  22  24
ENDBRANCH   4  22
TORSDOF 6
