REMARK  Name = ZINC05162062
REMARK                            x       y       z     vdW  Elec       q    Type
REMARK                         _______ _______ _______ _____ _____    ______ ____
ROOT
ATOM      1  C   LIG    1        3.382   2.536  -0.017  0.00  0.00    +0.040 A 
ATOM      2  C   LIG    1        2.475   1.499  -0.013  0.00  0.00    +0.029 A 
ATOM      3  C   LIG    1        1.110   1.770   0.001  0.00  0.00    +0.047 A 
ATOM      4  C   LIG    1        0.672   3.104   0.012  0.00  0.00    +0.010 A 
ATOM      5  C   LIG    1       -0.801   3.048   0.025  0.00  0.00    +0.000 A 
ATOM      6  C   LIG    1       -1.139   1.729   0.016  0.00  0.00    +0.091 A 
ATOM      7  C   LIG    1        1.599   4.144   0.008  0.00  0.00    +0.049 A 
ATOM      8  N   LIG    1       -0.011   0.966   0.007  0.00  0.00    -0.360 N 
ATOM      9  H   LIG    1        0.002  -0.004   0.002  0.00  0.00    +0.165 HD
ATOM     10  C   LIG    1        2.948   3.856  -0.006  0.00  0.00    +0.124 A 
ATOM     11  F   LIG    1        3.851   4.861  -0.010  0.00  0.00    -0.205 F 
ENDROOT
BRANCH   5  12
ATOM     12  C   LIG    1       -1.724   4.192   0.040  0.00  0.00    +0.010 C 
ATOM     13  C   LIG    1       -3.053   3.984   0.051  0.00  0.00    +0.008 C 
BRANCH  13  14
ATOM     14  C   LIG    1       -3.977   5.129   0.065  0.00  0.00    -0.022 A 
ATOM     15  C   LIG    1       -3.494   6.446   0.073  0.00  0.00    +0.027 A 
ATOM     16  C   LIG    1       -4.396   7.487   0.083  0.00  0.00    +0.111 A 
ATOM     17  N   LIG    1       -5.696   7.259   0.093  0.00  0.00    -0.263 NA
ATOM     18  C   LIG    1       -6.194   6.037   0.091  0.00  0.00    +0.111 A 
ATOM     19  C   LIG    1       -5.367   4.935   0.077  0.00  0.00    +0.027 A 
ENDBRANCH  13  14
ENDBRANCH   5  12
TORSDOF 2
