REMARK  Name = ZINC05328341
REMARK                            x       y       z     vdW  Elec       q    Type
REMARK                         _______ _______ _______ _____ _____    ______ ____
ROOT
ATOM      1  C   LIG    1        1.192   3.127  -0.329  0.00  0.00    +0.033 A 
ATOM      2  C   LIG    1        0.799   2.542  -1.524  0.00  0.00    +0.017 A 
ATOM      3  C   LIG    1       -0.377   1.817  -1.585  0.00  0.00    +0.013 A 
ATOM      4  C   LIG    1       -1.161   1.668  -0.455  0.00  0.00    +0.057 A 
ATOM      5  C   LIG    1       -0.780   2.252   0.739  0.00  0.00    +0.036 A 
ATOM      6  C   LIG    1        0.398   2.981   0.809  0.00  0.00    +0.039 A 
ENDROOT
BRANCH   4   7
ATOM      7  C   LIG    1       -2.438   0.872  -0.528  0.00  0.00    +0.417 C 
ATOM      8  F   LIG    1       -2.695   0.288   0.717  0.00  0.00    -0.166 F 
ATOM      9  F   LIG    1       -2.309  -0.131  -1.495  0.00  0.00    -0.166 F 
ATOM     10  F   LIG    1       -3.497   1.719  -0.873  0.00  0.00    -0.166 F 
ENDBRANCH   4   7
BRANCH   6  11
ATOM     11  N   LIG    1        0.789   3.568   2.018  0.00  0.00    -0.357 N 
ATOM     12  H   LIG    1        1.613   4.078   2.066  0.00  0.00    +0.142 HD
ATOM     13  H   LIG    1        0.235   3.466   2.808  0.00  0.00    +0.142 HD
ENDBRANCH   6  11
BRANCH   1  14
ATOM     14  S   LIG    1        2.690   4.051  -0.248  0.00  0.00    -0.087 S 
BRANCH  14  20
ATOM     15  C   LIG    1        3.090   6.758  -0.285  0.00  0.00    -0.050 A 
ATOM     16  C   LIG    1        2.668   8.073  -0.289  0.00  0.00    +0.003 A 
ATOM     17  C   LIG    1        1.317   8.367  -0.262  0.00  0.00    +0.000 A 
ATOM     18  C   LIG    1        0.384   7.346  -0.230  0.00  0.00    +0.001 A 
ATOM     19  C   LIG    1        0.799   6.029  -0.231  0.00  0.00    +0.015 A 
ATOM     20  C   LIG    1        2.156   5.730  -0.253  0.00  0.00    +0.014 A 
BRANCH  15  21
ATOM     21  C   LIG    1        4.563   6.439  -0.315  0.00  0.00    -0.043 C 
BRANCH  21  23
ATOM     22  C   LIG    1        6.299   5.321   0.950  0.00  0.00    -0.096 C 
ATOM     23  N   LIG    1        4.974   5.973   1.026  0.00  0.00    +0.379 N 
ATOM     24  H   LIG    1        4.287   5.292   1.369  0.00  0.00    -0.082 HD
ATOM     25  C   LIG    1        5.027   7.115   1.964  0.00  0.00    -0.096 C 
ENDBRANCH  21  23
ENDBRANCH  15  21
ENDBRANCH  14  20
ENDBRANCH   1  14
TORSDOF 6
