REMARK  Name = ZINC05525672
REMARK                            x       y       z     vdW  Elec       q    Type
REMARK                         _______ _______ _______ _____ _____    ______ ____
ROOT
ATOM      1  C   LIG    1        3.796   7.213  -2.917  0.00  0.00    -0.096 C 
ATOM      2  N   LIG    1        3.708   6.254  -1.769  0.00  0.00    +0.379 N 
ATOM      3  H   LIG    1        4.185   5.380  -2.022  0.00  0.00    -0.082 HD
ATOM      4  C   LIG    1        2.303   5.981  -1.435  0.00  0.00    -0.067 C 
ATOM      5  C   LIG    1        2.380   5.439   0.008  0.00  0.00    +0.049 C 
ATOM      6  C   LIG    1        3.702   5.994   0.578  0.00  0.00    +0.011 C 
ATOM      7  C   LIG    1        4.316   6.825  -0.570  0.00  0.00    -0.070 C 
ENDROOT
BRANCH   6   8
ATOM      8  C   LIG    1        3.430   6.871   1.772  0.00  0.00    -0.045 A 
ATOM      9  C   LIG    1        2.645   8.001   1.635  0.00  0.00    +0.005 A 
ATOM     10  C   LIG    1        2.390   8.803   2.731  0.00  0.00    +0.020 A 
ATOM     11  C   LIG    1        2.931   8.481   3.964  0.00  0.00    +0.041 A 
ATOM     12 CL   LIG    1        2.618   9.492   5.340  0.00  0.00    -0.084 Cl
ATOM     13  C   LIG    1        3.721   7.353   4.099  0.00  0.00    +0.020 A 
ATOM     14  C   LIG    1        3.970   6.549   3.003  0.00  0.00    +0.005 A 
ENDBRANCH   6   8
BRANCH   5  15
ATOM     15  C   LIG    1        2.405   3.932   0.000  0.00  0.00    +0.165 C 
ATOM     16  O   LIG    1        3.466   3.343  -0.012  0.00  0.00    -0.292 OA
BRANCH  15  17
ATOM     17  C   LIG    1        1.146   3.176   0.008  0.00  0.00    +0.018 A 
ATOM     18  C   LIG    1        1.166   1.776   0.001  0.00  0.00    +0.015 A 
ATOM     19  C   LIG    1       -0.013   1.076   0.008  0.00  0.00    +0.046 A 
ATOM     20  C   LIG    1       -1.227   1.754   0.017  0.00  0.00    +0.120 A 
ATOM     21  C   LIG    1       -1.253   3.144   0.030  0.00  0.00    +0.046 A 
ATOM     22  C   LIG    1       -0.080   3.854   0.023  0.00  0.00    +0.015 A 
BRANCH  20  23
ATOM     23  O   LIG    1       -2.390   1.056   0.019  0.00  0.00    -0.495 OA
ATOM     24  C   LIG    1       -3.602   1.814   0.029  0.00  0.00    +0.277 C 
ENDBRANCH  20  23
ENDBRANCH  15  17
ENDBRANCH   5  15
TORSDOF 4
