REMARK  Name = ZINC05600741
REMARK                            x       y       z     vdW  Elec       q    Type
REMARK                         _______ _______ _______ _____ _____    ______ ____
ROOT
ATOM      1  C   LIG    1       -1.029  -0.901  -3.627  0.00  0.00    -0.048 C 
ATOM      2  N   LIG    1       -0.229  -0.468  -2.466  0.00  0.00    +0.386 N 
ATOM      3  H   LIG    1       -0.693  -0.763  -1.599  0.00  0.00    -0.085 HD
ATOM      4  H   LIG    1        0.706  -0.889  -2.514  0.00  0.00    -0.085 HD
ATOM      5  C   LIG    1       -0.111   0.998  -2.487  0.00  0.00    -0.009 C 
ATOM      6  C   LIG    1       -0.856   1.497  -3.743  0.00  0.00    +0.130 C 
ATOM      7  C   LIG    1       -0.869   0.242  -4.660  0.00  0.00    +0.125 C 
ENDROOT
BRANCH   6   8
ATOM      8  O   LIG    1       -2.188   1.896  -3.416  0.00  0.00    -0.391 OA
ATOM      9  H   LIG    1       -2.699   2.218  -4.171  0.00  0.00    +0.210 HD
ENDBRANCH   6   8
BRANCH   7  10
ATOM     10  O   LIG    1       -1.978   0.276  -5.560  0.00  0.00    -0.391 OA
ATOM     11  H   LIG    1       -2.082  -0.528  -6.087  0.00  0.00    +0.210 HD
ENDBRANCH   7  10
BRANCH   5  12
ATOM     12  C   LIG    1       -0.753   1.593  -1.232  0.00  0.00    +0.128 C 
BRANCH  12  13
ATOM     13  O   LIG    1       -0.672   3.018  -1.285  0.00  0.00    -0.391 OA
ATOM     14  H   LIG    1        0.232   3.360  -1.333  0.00  0.00    +0.210 HD
ENDBRANCH  12  13
BRANCH  12  15
ATOM     15  C   LIG    1       -0.013   1.086   0.008  0.00  0.00    +0.185 C 
BRANCH  15  16
ATOM     16  O   LIG    1       -0.682   1.547   1.184  0.00  0.00    -0.393 OA
ATOM     17  H   LIG    1       -0.266   1.262   2.009  0.00  0.00    +0.210 HD
ENDBRANCH  15  16
ENDBRANCH  12  15
ENDBRANCH   5  12
TORSDOF 6
