REMARK  Name = ZINC05331681
REMARK                            x       y       z     vdW  Elec       q    Type
REMARK                         _______ _______ _______ _____ _____    ______ ____
ROOT
ATOM      1  N   LIG    1        2.387   3.727  -0.007  0.00  0.00    -0.251 N 
ATOM      2  H   LIG    1        2.415   4.697  -0.009  0.00  0.00    +0.158 HD
ATOM      3  C   LIG    1        3.534   3.019  -0.015  0.00  0.00    +0.309 C 
ATOM      4  N   LIG    1        4.721   3.659  -0.025  0.00  0.00    -0.269 N 
ATOM      5  H   LIG    1        4.750   4.626  -0.094  0.00  0.00    +0.156 HD
ATOM      6  O   LIG    1        3.499   1.804  -0.012  0.00  0.00    -0.252 OA
ENDROOT
BRANCH   1  12
ATOM      7  C   LIG    1       -0.025   3.802   0.011  0.00  0.00    +0.161 A 
ATOM      8  C   LIG    1       -1.238   3.128   0.021  0.00  0.00    +0.051 A 
ATOM      9  C   LIG    1       -1.223   1.740   0.017  0.00  0.00    +0.023 A 
ATOM     10  C   LIG    1       -0.013   1.076   0.015  0.00  0.00    +0.113 A 
ATOM     11  N   LIG    1        1.127   1.742   0.006  0.00  0.00    -0.237 NA
ATOM     12  C   LIG    1        1.159   3.064   0.004  0.00  0.00    +0.168 A 
BRANCH   7  13
ATOM     13  O   LIG    1        0.009   5.162   0.007  0.00  0.00    -0.484 OA
BRANCH  13  14
ATOM     14  C   LIG    1       -1.247   5.842   0.015  0.00  0.00    +0.264 C 
BRANCH  14  18
ATOM     15  C   LIG    1       -0.582  10.062   0.002  0.00  0.00    +0.000 A 
ATOM     16  C   LIG    1       -0.698   9.377  -1.193  0.00  0.00    +0.000 A 
ATOM     17  C   LIG    1       -0.913   8.011  -1.189  0.00  0.00    +0.007 A 
ATOM     18  C   LIG    1       -1.012   7.331   0.011  0.00  0.00    -0.010 A 
ATOM     19  C   LIG    1       -0.901   8.017   1.205  0.00  0.00    +0.007 A 
ATOM     20  C   LIG    1       -0.680   9.382   1.201  0.00  0.00    +0.000 A 
ENDBRANCH  14  18
ENDBRANCH  13  14
ENDBRANCH   7  13
ENDBRANCH   1  12
BRANCH   4  21
ATOM     21  C   LIG    1        5.910   2.928   0.065  0.00  0.00    +0.035 A 
ATOM     22  C   LIG    1        6.999   3.453   0.749  0.00  0.00    +0.025 A 
ATOM     23  C   LIG    1        8.171   2.726   0.841  0.00  0.00    +0.034 A 
ATOM     24  C   LIG    1        8.263   1.483   0.243  0.00  0.00    +0.122 A 
ATOM     25  C   LIG    1        7.182   0.960  -0.443  0.00  0.00    +0.034 A 
ATOM     26  C   LIG    1        6.007   1.679  -0.534  0.00  0.00    +0.025 A 
BRANCH  24  27
ATOM     27  N   LIG    1        9.522   0.709   0.339  0.00  0.00    +0.006 N 
ATOM     28  O   LIG    1        9.604  -0.386  -0.187  0.00  0.00    -0.130 OA
BRANCH  27  29
ATOM     29  O   LIG    1       10.474   1.169   0.943  0.00  0.00    -0.396 OA
ATOM     30  H   LIG    1       10.411   2.011   1.347  0.00  0.00    +0.329 HD
ENDBRANCH  27  29
ENDBRANCH  24  27
ENDBRANCH   4  21
TORSDOF 7
