REMARK  Name = ZINC05729787
REMARK                            x       y       z     vdW  Elec       q    Type
REMARK                         _______ _______ _______ _____ _____    ______ ____
ROOT
ATOM      1  C   LIG    1       -5.510  -2.749  -1.373  0.00  0.00    +0.237 C 
ATOM      2  N   LIG    1       -6.568  -3.545  -1.626  0.00  0.00    -0.206 N 
ATOM      3  H   LIG    1       -7.007  -4.013  -0.899  0.00  0.00    +0.177 HD
ATOM      4  O   LIG    1       -4.960  -2.163  -2.282  0.00  0.00    -0.274 OA
ENDROOT
BRANCH   2   5
ATOM      5  N   LIG    1       -7.033  -3.695  -2.939  0.00  0.00    -0.175 NA
ATOM      6  C   LIG    1       -8.125  -4.381  -3.173  0.00  0.00    +0.152 C 
ATOM      7  C   LIG    1       -9.090  -4.907  -2.180  0.00  0.00    +0.028 A 
ATOM      8  C   LIG    1       -9.153  -4.853  -0.792  0.00  0.00    +0.012 A 
ATOM      9  C   LIG    1      -10.204  -5.454  -0.130  0.00  0.00    +0.001 A 
ATOM     10  C   LIG    1      -11.192  -6.108  -0.846  0.00  0.00    +0.002 A 
ATOM     11  C   LIG    1      -11.139  -6.168  -2.224  0.00  0.00    +0.024 A 
ATOM     12  C   LIG    1      -10.087  -5.568  -2.909  0.00  0.00    +0.043 A 
ATOM     13  N   LIG    1       -9.799  -5.481  -4.266  0.00  0.00    -0.280 N 
ATOM     14  H   LIG    1      -10.348  -5.866  -4.967  0.00  0.00    +0.155 HD
ATOM     15  C   LIG    1       -8.665  -4.793  -4.485  0.00  0.00    +0.269 C 
ATOM     16  O   LIG    1       -8.170  -4.554  -5.570  0.00  0.00    -0.268 OA
ENDBRANCH   2   5
BRANCH   1  17
ATOM     17  C   LIG    1       -5.009  -2.587   0.039  0.00  0.00    +0.132 C 
BRANCH  17  21
ATOM     18  C   LIG    1       -1.657   0.063   0.068  0.00  0.00    +0.120 A 
ATOM     19  C   LIG    1       -2.941   0.565   0.218  0.00  0.00    +0.046 A 
ATOM     20  C   LIG    1       -4.023  -0.293   0.208  0.00  0.00    +0.007 A 
ATOM     21  C   LIG    1       -3.827  -1.653   0.049  0.00  0.00    -0.038 A 
ATOM     22  C   LIG    1       -2.548  -2.156  -0.101  0.00  0.00    +0.007 A 
ATOM     23  C   LIG    1       -1.463  -1.301  -0.097  0.00  0.00    +0.046 A 
BRANCH  18  25
ATOM     24  C   LIG    1       -0.865   2.297   0.252  0.00  0.00    +0.277 C 
ATOM     25  O   LIG    1       -0.591   0.905   0.077  0.00  0.00    -0.495 OA
ENDBRANCH  18  25
ENDBRANCH  17  21
ENDBRANCH   1  17
TORSDOF 4
