REMARK  Name = ZINC05699410
REMARK                            x       y       z     vdW  Elec       q    Type
REMARK                         _______ _______ _______ _____ _____    ______ ____
ROOT
ATOM      1  C   LIG    1       -2.228   4.609   0.229  0.00  0.00    +0.162 A 
ATOM      2  C   LIG    1       -1.155   5.498   0.150  0.00  0.00    +0.054 A 
ATOM      3  C   LIG    1        0.129   5.047   0.110  0.00  0.00    -0.024 A 
ATOM      4  C   LIG    1        0.389   3.667   0.146  0.00  0.00    -0.010 A 
ATOM      5  C   LIG    1        1.704   3.173   0.105  0.00  0.00    +0.009 A 
ATOM      6  C   LIG    1        1.922   1.830   0.143  0.00  0.00    +0.001 A 
ATOM      7  C   LIG    1        0.858   0.933   0.222  0.00  0.00    +0.001 A 
ATOM      8  C   LIG    1       -0.429   1.374   0.258  0.00  0.00    +0.012 A 
ATOM      9  C   LIG    1       -0.692   2.753   0.226  0.00  0.00    +0.028 A 
ATOM     10  C   LIG    1       -2.011   3.246   0.268  0.00  0.00    +0.166 A 
ENDROOT
BRANCH   1  12
ATOM     11  C   LIG    1       -3.658   6.509   0.226  0.00  0.00    +0.277 C 
ATOM     12  O   LIG    1       -3.499   5.090   0.268  0.00  0.00    -0.491 OA
ENDBRANCH   1  12
BRANCH  10  13
ATOM     13  O   LIG    1       -3.062   2.387   0.344  0.00  0.00    -0.503 OA
ATOM     14  H   LIG    1       -3.327   2.169   1.248  0.00  0.00    +0.292 HD
ENDBRANCH  10  13
BRANCH   3  15
ATOM     15  C   LIG    1        1.270   6.027   0.025  0.00  0.00    +0.080 C 
BRANCH  15  16
ATOM     16  C   LIG    1        1.328   6.841   1.292  0.00  0.00    -0.036 A 
ATOM     17  C   LIG    1        0.320   7.742   1.581  0.00  0.00    +0.004 A 
ATOM     18  C   LIG    1        0.370   8.486   2.745  0.00  0.00    +0.000 A 
ATOM     19  C   LIG    1        1.433   8.335   3.616  0.00  0.00    +0.000 A 
ATOM     20  C   LIG    1        2.444   7.439   3.324  0.00  0.00    +0.000 A 
ATOM     21  C   LIG    1        2.391   6.692   2.162  0.00  0.00    +0.004 A 
ENDBRANCH  15  16
BRANCH  15  22
ATOM     22  C   LIG    1        1.059   6.944  -1.152  0.00  0.00    -0.036 A 
ATOM     23  C   LIG    1        0.306   6.521  -2.231  0.00  0.00    +0.004 A 
ATOM     24  C   LIG    1        0.108   7.364  -3.309  0.00  0.00    +0.000 A 
ATOM     25  C   LIG    1        0.673   8.626  -3.312  0.00  0.00    +0.000 A 
ATOM     26  C   LIG    1        1.431   9.046  -2.236  0.00  0.00    +0.000 A 
ATOM     27  C   LIG    1        1.624   8.206  -1.155  0.00  0.00    +0.004 A 
ENDBRANCH  15  22
ENDBRANCH   3  15
TORSDOF 5
