REMARK  Name = ZINC05497396
REMARK                            x       y       z     vdW  Elec       q    Type
REMARK                         _______ _______ _______ _____ _____    ______ ____
ROOT
ATOM      1  C   LIG    1        0.097   1.169   2.462  0.00  0.00    +0.224 C 
ATOM      2  N   LIG    1       -0.269   1.571   3.696  0.00  0.00    -0.257 N 
ATOM      3  C   LIG    1       -1.436   2.282   3.993  0.00  0.00    +0.040 A 
ATOM      4  C   LIG    1       -2.445   2.725   3.137  0.00  0.00    +0.024 A 
ATOM      5  C   LIG    1       -3.526   3.420   3.636  0.00  0.00    +0.002 A 
ATOM      6  C   LIG    1       -3.618   3.683   4.991  0.00  0.00    +0.000 A 
ATOM      7  C   LIG    1       -2.627   3.239   5.847  0.00  0.00    +0.005 A 
ATOM      8  C   LIG    1       -1.540   2.547   5.349  0.00  0.00    -0.024 A 
ATOM      9  C   LIG    1       -0.327   1.973   6.046  0.00  0.00    +0.071 C 
ATOM     10  C   LIG    1        0.499   1.330   4.920  0.00  0.00    +0.194 C 
ATOM     11  O   LIG    1        1.077   0.469   2.318  0.00  0.00    -0.275 OA
ENDROOT
BRANCH   1  13
ATOM     12  C   LIG    1       -1.954   0.710   1.147  0.00  0.00    +0.018 C 
ATOM     13  C   LIG    1       -0.710   1.592   1.262  0.00  0.00    +0.082 C 
BRANCH  13  14
ATOM     14  C   LIG    1        0.140   1.442  -0.002  0.00  0.00    +0.078 C 
BRANCH  14  15
ATOM     15  S   LIG    1       -0.778   2.088  -1.427  0.00  0.00    -0.178 S 
ATOM     16  H   LIG    1        0.059   1.904  -2.464  0.00  0.00    +0.102 HD
ENDBRANCH  14  15
ENDBRANCH  13  14
ENDBRANCH   1  13
BRANCH  10  17
ATOM     17  C   LIG    1        1.853   1.985   4.825  0.00  0.00    +0.326 C 
ATOM     18  O   LIG    1        2.158   2.598   3.830  0.00  0.00    -0.249 OA
BRANCH  17  19
ATOM     19  O   LIG    1        2.719   1.886   5.845  0.00  0.00    -0.479 OA
ATOM     20  H   LIG    1        2.482   1.410   6.617  0.00  0.00    +0.295 HD
ENDBRANCH  17  19
ENDBRANCH  10  17
TORSDOF 5
