REMARK  Name = ZINC05835088
REMARK                            x       y       z     vdW  Elec       q    Type
REMARK                         _______ _______ _______ _____ _____    ______ ____
ROOT
ATOM      1  C   LIG    1        3.492   6.244  -0.002  0.00  0.00    +0.107 C 
ENDROOT
BRANCH   1   8
ATOM      2  C   LIG    1       -0.129   1.179  -0.478  0.00  0.00    +0.001 A 
ATOM      3  C   LIG    1       -1.314   1.849  -0.217  0.00  0.00    +0.004 A 
ATOM      4  C   LIG    1       -1.315   3.204   0.035  0.00  0.00    +0.047 A 
ATOM      5  C   LIG    1       -0.120   3.913   0.018  0.00  0.00    +0.143 A 
ATOM      6  C   LIG    1        1.078   3.235  -0.251  0.00  0.00    +0.065 A 
ATOM      7  C   LIG    1        2.336   4.008  -0.265  0.00  0.00    +0.200 A 
ATOM      8  C   LIG    1        2.248   5.392  -0.004  0.00  0.00    +0.092 A 
ATOM      9  C   LIG    1        1.036   5.952   0.246  0.00  0.00    +0.292 A 
ATOM     10  O   LIG    1        3.408   3.472  -0.492  0.00  0.00    -0.287 OA
ATOM     11  O   LIG    1       -0.099   5.242   0.256  0.00  0.00    -0.425 OA
ATOM     12  C   LIG    1        1.067   1.864  -0.499  0.00  0.00    +0.015 A 
BRANCH   9  13
ATOM     13  O   LIG    1        0.973   7.277   0.494  0.00  0.00    -0.480 OA
ATOM     14  H   LIG    1        0.003   7.753   0.699  0.00  0.00    +0.295 HD
ENDBRANCH   9  13
ENDBRANCH   1   8
BRANCH   1  15
ATOM     15  C   LIG    1        3.570   7.016   1.289  0.00  0.00    +0.092 A 
ATOM     16  C   LIG    1        4.088   8.329   1.302  0.00  0.00    +0.200 A 
ATOM     17  C   LIG    1        4.130   9.029   2.602  0.00  0.00    +0.065 A 
ATOM     18  C   LIG    1        4.620  10.329   2.710  0.00  0.00    +0.015 A 
ATOM     19  C   LIG    1        4.647  10.944   3.942  0.00  0.00    +0.001 A 
ATOM     20  C   LIG    1        4.190  10.276   5.069  0.00  0.00    +0.004 A 
ATOM     21  C   LIG    1        3.703   8.990   4.974  0.00  0.00    +0.047 A 
ATOM     22  C   LIG    1        3.667   8.352   3.740  0.00  0.00    +0.143 A 
ATOM     23  O   LIG    1        3.194   7.093   3.624  0.00  0.00    -0.425 OA
ATOM     24  O   LIG    1        4.481   8.865   0.279  0.00  0.00    -0.287 OA
ATOM     25  C   LIG    1        3.147   6.451   2.450  0.00  0.00    +0.292 A 
BRANCH  25  26
ATOM     26  O   LIG    1        2.660   5.192   2.419  0.00  0.00    -0.480 OA
ATOM     27  H   LIG    1        2.312   4.714   3.346  0.00  0.00    +0.295 HD
ENDBRANCH  25  26
ENDBRANCH   1  15
BRANCH   1  28
ATOM     28  C   LIG    1        3.443   7.207  -1.161  0.00  0.00    +0.002 A 
ATOM     29  C   LIG    1        4.306   7.339  -2.198  0.00  0.00    +0.012 A 
ATOM     30  C   LIG    1        4.056   8.300  -3.159  0.00  0.00    +0.008 A 
ATOM     31  C   LIG    1        2.962   9.089  -3.031  0.00  0.00    +0.045 A 
ATOM     32  S   LIG    1        2.238   8.474  -1.520  0.00  0.00    -0.101 S 
ENDBRANCH   1  28
TORSDOF 5
