REMARK  Name = ZINC05698964
REMARK                            x       y       z     vdW  Elec       q    Type
REMARK                         _______ _______ _______ _____ _____    ______ ____
ROOT
ATOM      1  C   LIG    1       -0.018   1.465   0.010  0.00  0.00    +0.104 C 
ATOM      2  N   LIG    1        0.002  -0.004   0.002  0.00  0.00    -0.304 NA
ATOM      3  C   LIG    1        0.788  -0.519  -1.149  0.00  0.00    +0.093 C 
ATOM      4  C   LIG    1        1.173  -1.959  -0.743  0.00  0.00    +0.045 C 
ATOM      5  C   LIG    1        1.123  -1.968   0.799  0.00  0.00    +0.083 C 
ATOM      6  C   LIG    1        0.712  -0.533   1.195  0.00  0.00    +0.096 C 
ENDROOT
BRANCH   4   7
ATOM      7  C   LIG    1        2.563  -2.284  -1.226  0.00  0.00    -0.042 A 
ATOM      8  C   LIG    1        3.635  -1.515  -0.814  0.00  0.00    +0.004 A 
ATOM      9  C   LIG    1        4.910  -1.814  -1.256  0.00  0.00    +0.000 A 
ATOM     10  C   LIG    1        5.113  -2.882  -2.110  0.00  0.00    +0.000 A 
ATOM     11  C   LIG    1        4.041  -3.651  -2.521  0.00  0.00    +0.000 A 
ATOM     12  C   LIG    1        2.767  -3.355  -2.075  0.00  0.00    +0.004 A 
ENDBRANCH   4   7
BRANCH   5  13
ATOM     13  C   LIG    1        0.098  -2.961   1.283  0.00  0.00    +0.168 C 
ATOM     14  O   LIG    1       -0.832  -3.270   0.569  0.00  0.00    -0.292 OA
BRANCH  13  15
ATOM     15  C   LIG    1        0.226  -3.555   2.622  0.00  0.00    +0.018 A 
ATOM     16  C   LIG    1        1.294  -3.196   3.452  0.00  0.00    +0.013 A 
ATOM     17  C   LIG    1        1.407  -3.757   4.706  0.00  0.00    +0.020 A 
ATOM     18  C   LIG    1        0.466  -4.674   5.145  0.00  0.00    +0.041 A 
ATOM     19 CL   LIG    1        0.617  -5.376   6.726  0.00  0.00    -0.084 Cl
ATOM     20  C   LIG    1       -0.595  -5.034   4.330  0.00  0.00    +0.020 A 
ATOM     21  C   LIG    1       -0.724  -4.478   3.075  0.00  0.00    +0.013 A 
ENDBRANCH  13  15
ENDBRANCH   5  13
TORSDOF 3
