REMARK  Name = ZINC05051198
REMARK                            x       y       z     vdW  Elec       q    Type
REMARK                         _______ _______ _______ _____ _____    ______ ____
ROOT
ATOM      1  C   LIG    1       -2.211   4.367   0.302  0.00  0.00    +0.075 A 
ATOM      2  C   LIG    1       -2.216   5.735   0.540  0.00  0.00    +0.028 A 
ATOM      3  C   LIG    1       -3.410   6.398   0.649  0.00  0.00    +0.005 A 
ATOM      4  C   LIG    1       -4.567   5.619   0.503  0.00  0.00    +0.030 A 
ATOM      5  C   LIG    1       -5.906   6.187   0.587  0.00  0.00    +0.031 A 
ATOM      6  C   LIG    1       -7.064   5.435   0.714  0.00  0.00    +0.012 A 
ATOM      7  C   LIG    1       -8.287   6.072   0.802  0.00  0.00    +0.001 A 
ATOM      8  C   LIG    1       -8.354   7.455   0.766  0.00  0.00    +0.004 A 
ATOM      9  C   LIG    1       -7.207   8.214   0.634  0.00  0.00    +0.046 A 
ATOM     10  C   LIG    1       -5.973   7.598   0.535  0.00  0.00    +0.129 A 
ATOM     11  O   LIG    1       -4.839   8.315   0.361  0.00  0.00    -0.487 OA
ATOM     12  C   LIG    1       -3.597   7.887   0.918  0.00  0.00    +0.265 C 
ATOM     13  S   LIG    1       -3.958   3.991   0.218  0.00  0.00    -0.083 S 
ENDROOT
BRANCH   1  16
ATOM     14  C   LIG    1       -2.608   1.724  -0.582  0.00  0.00    +0.138 C 
ATOM     15  N   LIG    1       -1.266   2.183  -0.215  0.00  0.00    -0.270 N 
ATOM     16  C   LIG    1       -1.068   3.464   0.152  0.00  0.00    +0.257 C 
ATOM     17  O   LIG    1        0.060   3.871   0.359  0.00  0.00    -0.269 OA
BRANCH  15  18
ATOM     18  C   LIG    1       -0.189   1.290  -0.245  0.00  0.00    +0.036 A 
ATOM     19  C   LIG    1        1.105   1.753  -0.046  0.00  0.00    +0.026 A 
ATOM     20  C   LIG    1        2.167   0.871  -0.081  0.00  0.00    +0.040 A 
ATOM     21  C   LIG    1        1.942  -0.475  -0.315  0.00  0.00    +0.124 A 
ATOM     22  F   LIG    1        2.982  -1.337  -0.349  0.00  0.00    -0.205 F 
ATOM     23  C   LIG    1        0.653  -0.940  -0.514  0.00  0.00    +0.040 A 
ATOM     24  C   LIG    1       -0.412  -0.061  -0.479  0.00  0.00    +0.026 A 
ENDBRANCH  15  18
ENDBRANCH   1  16
TORSDOF 2
