REMARK  Name = ZINC05140055
REMARK                            x       y       z     vdW  Elec       q    Type
REMARK                         _______ _______ _______ _____ _____    ______ ____
ROOT
ATOM      1  C   LIG    1       -3.342   3.332   4.078  0.00  0.00    +0.188 C 
ATOM      2  C   LIG    1       -2.393   2.707   3.087  0.00  0.00    +0.008 A 
ATOM      3  C   LIG    1       -2.646   2.872   1.718  0.00  0.00    +0.035 A 
ATOM      4  C   LIG    1       -1.807   2.305   0.784  0.00  0.00    +0.071 A 
ATOM      5  N   LIG    1       -0.728   1.573   1.195  0.00  0.00    -0.302 N 
ATOM      6  C   LIG    1       -0.013   1.086   0.008  0.00  0.00    +0.162 C 
ATOM      7  C   LIG    1       -0.769   1.599  -1.190  0.00  0.00    +0.000 A 
ATOM      8  C   LIG    1       -0.577   1.465  -2.529  0.00  0.00    +0.017 A 
ATOM      9  C   LIG    1       -1.496   2.088  -3.398  0.00  0.00    +0.002 A 
ATOM     10  C   LIG    1       -1.361   1.993  -4.792  0.00  0.00    +0.030 A 
ATOM     11  C   LIG    1       -2.269   2.609  -5.600  0.00  0.00    +0.042 A 
ATOM     12 CL   LIG    1       -2.101   2.490  -7.324  0.00  0.00    -0.084 Cl
ATOM     13  C   LIG    1       -3.332   3.332  -5.061  0.00  0.00    +0.022 A 
ATOM     14  C   LIG    1       -3.494   3.445  -3.715  0.00  0.00    +0.030 A 
ATOM     15  C   LIG    1       -2.576   2.824  -2.846  0.00  0.00    +0.072 A 
ATOM     16  N   LIG    1       -2.713   2.920  -1.524  0.00  0.00    -0.245 NA
ATOM     17  C   LIG    1       -0.478   1.402   2.506  0.00  0.00    +0.259 A 
ATOM     18  O   LIG    1        0.483   0.736   2.854  0.00  0.00    -0.267 OA
ATOM     19  C   LIG    1       -1.857   2.339  -0.697  0.00  0.00    +0.093 A 
ATOM     20  C   LIG    1       -1.312   1.984   3.484  0.00  0.00    +0.061 A 
ATOM     21  C   LIG    1       -0.963   1.784   4.935  0.00  0.00    +0.273 C 
ATOM     22  O   LIG    1       -2.094   2.114   5.783  0.00  0.00    -0.457 OA
ATOM     23  C   LIG    1       -2.730   3.262   5.458  0.00  0.00    +0.344 C 
ATOM     24  O   LIG    1       -2.806   4.186   6.233  0.00  0.00    -0.247 OA
ENDROOT
BRANCH   1  26
ATOM     25  C   LIG    1       -5.631   3.206   5.072  0.00  0.00    +0.007 C 
ATOM     26  C   LIG    1       -4.669   2.571   4.065  0.00  0.00    +0.048 C 
ENDBRANCH   1  26
BRANCH   1  27
ATOM     27  O   LIG    1       -3.571   4.698   3.725  0.00  0.00    -0.373 OA
ATOM     28  H   LIG    1       -4.173   5.162   4.322  0.00  0.00    +0.211 HD
ENDBRANCH   1  27
TORSDOF 2
