REMARK  Name = ZINC05222968
REMARK                            x       y       z     vdW  Elec       q    Type
REMARK                         _______ _______ _______ _____ _____    ______ ____
ROOT
ATOM      1  C   LIG    1       -0.018   1.503   0.010  0.00  0.00    +0.068 C 
ATOM      2  C   LIG    1        0.002  -0.004   0.002  0.00  0.00    +0.067 C 
ATOM      3  N   LIG    1        0.022  -0.659   1.123  0.00  0.00    -0.185 NA
ENDROOT
BRANCH   2   4
ATOM      4  C   LIG    1       -0.000  -0.734  -1.278  0.00  0.00    +0.039 A 
ATOM      5  C   LIG    1       -0.015  -0.032  -2.486  0.00  0.00    +0.017 A 
ATOM      6  C   LIG    1       -0.017  -0.718  -3.680  0.00  0.00    +0.046 A 
ATOM      7  C   LIG    1       -0.005  -2.107  -3.689  0.00  0.00    +0.120 A 
ATOM      8  C   LIG    1        0.010  -2.814  -2.495  0.00  0.00    +0.091 A 
ATOM      9  C   LIG    1        0.019  -2.136  -1.289  0.00  0.00    +0.129 A 
BRANCH   7  10
ATOM     10  O   LIG    1       -0.008  -2.777  -4.871  0.00  0.00    -0.507 OA
ATOM     11  H   LIG    1        0.875  -2.962  -5.220  0.00  0.00    +0.292 HD
ENDBRANCH   7  10
BRANCH   9  12
ATOM     12  O   LIG    1        0.039  -2.826  -0.119  0.00  0.00    -0.506 OA
ATOM     13  H   LIG    1       -0.838  -3.038   0.228  0.00  0.00    +0.292 HD
ENDBRANCH   9  12
ENDBRANCH   2   4
BRANCH   3  14
ATOM     14  N   LIG    1        0.024   0.035   2.340  0.00  0.00    -0.218 N 
ATOM     15  H   LIG    1        0.011   1.005   2.345  0.00  0.00    +0.176 HD
BRANCH  14  16
ATOM     16  C   LIG    1        0.044  -0.645   3.503  0.00  0.00    +0.147 C 
ATOM     17  S   LIG    1        0.046   0.203   4.990  0.00  0.00    -0.017 S 
BRANCH  16  18
ATOM     18  N   LIG    1        0.062  -1.993   3.496  0.00  0.00    -0.339 N 
ATOM     19  H   LIG    1        0.077  -2.482   4.333  0.00  0.00    +0.144 HD
ATOM     20  H   LIG    1        0.061  -2.473   2.653  0.00  0.00    +0.144 HD
ENDBRANCH  16  18
ENDBRANCH  14  16
ENDBRANCH   3  14
TORSDOF 6
