REMARK  Name = ZINC04898044
REMARK                            x       y       z     vdW  Elec       q    Type
REMARK                         _______ _______ _______ _____ _____    ______ ____
ROOT
ATOM      1  N   LIG    1       -1.212   2.064   0.019  0.00  0.00    -0.299 N 
ATOM      2  H   LIG    1       -1.198   3.028  -0.087  0.00  0.00    +0.154 HD
ENDROOT
BRANCH   1   6
ATOM      3  C   LIG    1        1.435  -0.958   2.837  0.00  0.00    +0.066 C 
ATOM      4  C   LIG    1        1.280  -0.089   1.615  0.00  0.00    +0.045 A 
ATOM      5  C   LIG    1        0.084   0.590   1.397  0.00  0.00    +0.067 A 
ATOM      6  C   LIG    1       -0.041   1.381   0.271  0.00  0.00    +0.130 A 
ATOM      7  N   LIG    1        1.015   1.470  -0.589  0.00  0.00    -0.182 N 
ATOM      8  C   LIG    1        2.170   0.785  -0.332  0.00  0.00    +0.255 A 
ATOM      9  N   LIG    1        3.013   1.053  -1.323  0.00  0.00    -0.197 NA
ATOM     10  C   LIG    1        2.439   1.878  -2.190  0.00  0.00    +0.247 A 
ATOM     11  N   LIG    1        1.223   2.161  -1.789  0.00  0.00    -0.151 NA
ATOM     12  N   LIG    1        2.276   0.022   0.762  0.00  0.00    -0.216 NA
ENDBRANCH   1   6
BRANCH   1  13
ATOM     13  C   LIG    1       -2.419   1.367  -0.085  0.00  0.00    +0.033 A 
ATOM     14  C   LIG    1       -2.423  -0.023  -0.092  0.00  0.00    +0.023 A 
ATOM     15  C   LIG    1       -3.617  -0.706  -0.194  0.00  0.00    +0.006 A 
ATOM     16  C   LIG    1       -4.814  -0.012  -0.289  0.00  0.00    -0.044 A 
ATOM     17  C   LIG    1       -4.813   1.371  -0.282  0.00  0.00    -0.042 A 
ATOM     18  C   LIG    1       -6.232   1.884  -0.395  0.00  0.00    +0.036 C 
ATOM     19  C   LIG    1       -7.127   0.679  -0.033  0.00  0.00    +0.009 C 
ATOM     20  C   LIG    1       -6.234  -0.522  -0.408  0.00  0.00    +0.036 C 
ATOM     21  C   LIG    1       -3.618   2.060  -0.174  0.00  0.00    +0.027 A 
ENDBRANCH   1  13
TORSDOF 2
