REMARK  Name = ZINC05462670
REMARK                            x       y       z     vdW  Elec       q    Type
REMARK                         _______ _______ _______ _____ _____    ______ ____
ROOT
ATOM      1  C   LIG    1       -2.459   1.102  -0.478  0.00  0.00    +0.019 C 
ATOM      2  C   LIG    1       -1.317   1.990   0.019  0.00  0.00    +0.098 C 
ATOM      3  C   LIG    1       -1.141   3.187  -0.920  0.00  0.00    +0.181 C 
ATOM      4  C   LIG    1       -2.420   4.027  -0.923  0.00  0.00    +0.052 C 
ATOM      5  O   LIG    1       -0.047   3.987  -0.471  0.00  0.00    -0.488 OA
ATOM      6  C   LIG    1        1.150   3.389  -0.253  0.00  0.00    +0.136 A 
ATOM      7  C   LIG    1        2.289   4.140  -0.274  0.00  0.00    +0.056 A 
ATOM      8  C   LIG    1        3.539   3.545  -0.037  0.00  0.00    +0.004 A 
ATOM      9  C   LIG    1        3.626   2.155   0.224  0.00  0.00    +0.067 A 
ATOM     10  C   LIG    1        2.453   1.380   0.241  0.00  0.00    +0.142 A 
ATOM     11  C   LIG    1        4.885   1.566   0.464  0.00  0.00    +0.132 A 
ATOM     12  C   LIG    1        6.023   2.342   0.442  0.00  0.00    +0.092 A 
ATOM     13  C   LIG    1        5.949   3.709   0.185  0.00  0.00    +0.129 A 
ATOM     14  C   LIG    1        4.722   4.321  -0.056  0.00  0.00    +0.036 A 
ATOM     15  C   LIG    1        1.224   1.998   0.001  0.00  0.00    +0.101 A 
ATOM     16  C   LIG    1       -0.014   1.210   0.009  0.00  0.00    +0.176 C 
ATOM     17  O   LIG    1        0.002  -0.004   0.002  0.00  0.00    -0.291 OA
ENDROOT
BRANCH  14  18
ATOM     18  C   LIG    1        4.655   5.772  -0.327  0.00  0.00    +0.036 A 
ATOM     19  C   LIG    1        4.754   6.253  -1.654  0.00  0.00    +0.004 A 
ATOM     20  C   LIG    1        4.903   5.361  -2.729  0.00  0.00    +0.056 A 
ATOM     21  C   LIG    1        4.991   5.829  -4.008  0.00  0.00    +0.136 A 
ATOM     22  C   LIG    1        4.930   7.221  -4.259  0.00  0.00    +0.101 A 
ATOM     23  C   LIG    1        5.035   7.699  -5.643  0.00  0.00    +0.176 C 
ATOM     24  C   LIG    1        4.919   6.651  -6.735  0.00  0.00    +0.098 C 
ATOM     25  C   LIG    1        3.448   6.294  -6.960  0.00  0.00    +0.019 C 
ATOM     26  C   LIG    1        5.691   5.412  -6.260  0.00  0.00    +0.181 C 
ATOM     27  C   LIG    1        5.587   4.310  -7.316  0.00  0.00    +0.052 C 
ATOM     28  O   LIG    1        5.206   8.873  -5.901  0.00  0.00    -0.291 OA
ATOM     29  C   LIG    1        4.775   8.129  -3.211  0.00  0.00    +0.142 A 
ATOM     30  O   LIG    1        5.132   4.949  -5.031  0.00  0.00    -0.488 OA
ATOM     31  C   LIG    1        4.682   7.647  -1.893  0.00  0.00    +0.067 A 
ATOM     32  C   LIG    1        4.525   8.535  -0.808  0.00  0.00    +0.132 A 
ATOM     33  C   LIG    1        4.437   8.044   0.476  0.00  0.00    +0.092 A 
ATOM     34  C   LIG    1        4.501   6.675   0.722  0.00  0.00    +0.129 A 
BRANCH  29  35
ATOM     35  O   LIG    1        4.715   9.459  -3.460  0.00  0.00    -0.505 OA
ATOM     36  H   LIG    1        5.575   9.900  -3.450  0.00  0.00    +0.292 HD
ENDBRANCH  29  35
BRANCH  32  37
ATOM     37  O   LIG    1        4.460   9.873  -1.029  0.00  0.00    -0.506 OA
ATOM     38  H   LIG    1        5.319  10.316  -1.012  0.00  0.00    +0.292 HD
ENDBRANCH  32  37
BRANCH  34  39
ATOM     39  O   LIG    1        4.412   6.215   1.996  0.00  0.00    -0.506 OA
ATOM     40  H   LIG    1        5.264   6.138   2.447  0.00  0.00    +0.292 HD
ENDBRANCH  34  39
ENDBRANCH  14  18
BRANCH  10  41
ATOM     41  O   LIG    1        2.514   0.050   0.487  0.00  0.00    -0.505 OA
ATOM     42  H   LIG    1        2.622  -0.492  -0.307  0.00  0.00    +0.292 HD
ENDBRANCH  10  41
BRANCH  11  43
ATOM     43  O   LIG    1        4.975   0.236   0.717  0.00  0.00    -0.506 OA
ATOM     44  H   LIG    1        5.092  -0.308  -0.075  0.00  0.00    +0.292 HD
ENDBRANCH  11  43
BRANCH  13  45
ATOM     45  O   LIG    1        7.086   4.452   0.168  0.00  0.00    -0.506 OA
ATOM     46  H   LIG    1        7.324   4.825   1.028  0.00  0.00    +0.292 HD
ENDBRANCH  13  45
TORSDOF 7
