REMARK  Name = ZINC05758870
REMARK                            x       y       z     vdW  Elec       q    Type
REMARK                         _______ _______ _______ _____ _____    ______ ____
ROOT
ATOM      1  C   LIG    1       -1.804   0.929   1.510  0.00  0.00    +0.027 C 
ATOM      2  C   LIG    1       -1.716  -0.366   2.356  0.00  0.00    +0.007 C 
ATOM      3  C   LIG    1       -0.225  -0.522   2.764  0.00  0.00    +0.005 C 
ATOM      4  C   LIG    1        0.304   0.914   2.684  0.00  0.00    -0.001 C 
ATOM      5  C   LIG    1        1.805   1.056   2.503  0.00  0.00    +0.000 C 
ATOM      6  C   LIG    1        2.523   0.533   3.752  0.00  0.00    +0.031 C 
ATOM      7  C   LIG    1        3.990   0.831   3.640  0.00  0.00    -0.027 C 
ATOM      8  C   LIG    1        4.461   1.819   2.937  0.00  0.00    -0.065 C 
ATOM      9  C   LIG    1        3.606   2.767   2.149  0.00  0.00    -0.008 C 
ATOM     10  C   LIG    1        3.898   2.550   0.663  0.00  0.00    +0.016 C 
ATOM     11  C   LIG    1        3.984   4.208   2.503  0.00  0.00    +0.014 C 
ATOM     12  C   LIG    1        5.487   4.403   2.299  0.00  0.00    +0.032 C 
ATOM     13  C   LIG    1        6.260   3.489   3.251  0.00  0.00    +0.119 C 
ATOM     14  C   LIG    1        5.966   2.026   2.905  0.00  0.00    +0.062 C 
ATOM     15  C   LIG    1        2.117   2.552   2.362  0.00  0.00    +0.003 C 
ATOM     16  C   LIG    1        1.335   3.189   1.216  0.00  0.00    +0.005 C 
ATOM     17  C   LIG    1       -0.169   2.929   1.340  0.00  0.00    +0.007 C 
ATOM     18  C   LIG    1       -0.368   1.426   1.382  0.00  0.00    -0.024 C 
ATOM     19  C   LIG    1        0.298   0.780   0.166  0.00  0.00    +0.012 C 
ENDROOT
BRANCH   1  20
ATOM     20  C   LIG    1       -2.384   0.621   0.128  0.00  0.00    +0.067 C 
ATOM     21  C   LIG    1       -2.329   1.879  -0.740  0.00  0.00    +0.041 C 
BRANCH  20  22
ATOM     22  O   LIG    1       -1.619  -0.417  -0.488  0.00  0.00    -0.389 OA
ATOM     23  H   LIG    1       -1.609  -1.246   0.009  0.00  0.00    +0.210 HD
ENDBRANCH  20  22
BRANCH  20  24
ATOM     24  C   LIG    1       -3.837   0.165   0.275  0.00  0.00    +0.035 C 
BRANCH  24  25
ATOM     25  C   LIG    1       -4.416  -0.143  -1.107  0.00  0.00    +0.003 C 
BRANCH  25  26
ATOM     26  C   LIG    1       -5.870  -0.599  -0.961  0.00  0.00    +0.003 C 
BRANCH  26  28
ATOM     27  C   LIG    1       -5.710  -2.101  -2.951  0.00  0.00    +0.007 C 
ATOM     28  C   LIG    1       -6.449  -0.907  -2.343  0.00  0.00    -0.017 C 
ATOM     29  C   LIG    1       -7.936  -1.243  -2.209  0.00  0.00    +0.007 C 
ENDBRANCH  26  28
ENDBRANCH  25  26
ENDBRANCH  24  25
ENDBRANCH  20  24
ENDBRANCH   1  20
BRANCH  13  30
ATOM     30  O   LIG    1        7.661   3.737   3.119  0.00  0.00    -0.391 OA
ATOM     31  H   LIG    1        8.213   3.191   3.695  0.00  0.00    +0.210 HD
ENDBRANCH  13  30
TORSDOF 7
