REMARK  Name = ZINC05371954
REMARK                            x       y       z     vdW  Elec       q    Type
REMARK                         _______ _______ _______ _____ _____    ______ ____
ROOT
ATOM      1  N   LIG    1        3.855   5.952   0.481  0.00  0.00    -0.241 N 
ATOM      2  C   LIG    1        2.588   5.573   0.508  0.00  0.00    +0.259 C 
ATOM      3  C   LIG    1        2.334   4.117   0.560  0.00  0.00    +0.077 C 
ATOM      4  S   LIG    1        4.007   3.486   0.548  0.00  0.00    -0.061 S 
ATOM      5  C   LIG    1        1.157   3.446   0.600  0.00  0.00    +0.028 C 
ATOM      6  O   LIG    1        1.678   6.380   0.494  0.00  0.00    -0.269 OA
ATOM      7  C   LIG    1        4.860   5.053   0.488  0.00  0.00    +0.121 C 
ATOM      8  S   LIG    1        6.546   5.344   0.450  0.00  0.00    -0.027 S 
ENDROOT
BRANCH   5   9
ATOM      9  C   LIG    1        1.148   1.989   0.799  0.00  0.00    -0.024 A 
ATOM     10  C   LIG    1        2.281   1.341   1.302  0.00  0.00    +0.009 A 
ATOM     11  C   LIG    1        2.265  -0.025   1.485  0.00  0.00    +0.016 A 
ATOM     12  C   LIG    1        1.130  -0.756   1.173  0.00  0.00    +0.018 A 
ATOM     13 BR   LIG    1        1.118  -2.629   1.429  0.00  0.00    -0.050 Br
ATOM     14  C   LIG    1        0.004  -0.121   0.674  0.00  0.00    +0.016 A 
ATOM     15  C   LIG    1        0.005   1.244   0.485  0.00  0.00    +0.009 A 
ENDBRANCH   5   9
BRANCH   1  16
ATOM     16  C   LIG    1        4.173   7.381   0.434  0.00  0.00    +0.191 C 
BRANCH  16  17
ATOM     17  C   LIG    1        4.966   7.679  -0.812  0.00  0.00    +0.326 C 
ATOM     18  O   LIG    1        5.237   6.789  -1.583  0.00  0.00    -0.249 OA
BRANCH  17  19
ATOM     19  O   LIG    1        5.370   8.934  -1.066  0.00  0.00    -0.479 OA
ATOM     20  H   LIG    1        5.160   9.624  -0.468  0.00  0.00    +0.295 HD
ENDBRANCH  17  19
ENDBRANCH  16  17
BRANCH  16  21
ATOM     21  C   LIG    1        4.997   7.760   1.666  0.00  0.00    +0.037 C 
BRANCH  21  23
ATOM     22  C   LIG    1        5.043   7.747   4.164  0.00  0.00    +0.007 C 
ATOM     23  C   LIG    1        4.170   7.514   2.929  0.00  0.00    -0.015 C 
ATOM     24  C   LIG    1        2.981   8.476   2.956  0.00  0.00    +0.007 C 
ENDBRANCH  21  23
ENDBRANCH  16  21
ENDBRANCH   1  16
TORSDOF 6
