REMARK  Name = ZINC05682772
REMARK                            x       y       z     vdW  Elec       q    Type
REMARK                         _______ _______ _______ _____ _____    ______ ____
ROOT
ATOM      1  C   LIG    1       -1.416   5.072   2.977  0.00  0.00    -0.067 C 
ATOM      2  N   LIG    1       -0.626   6.110   2.289  0.00  0.00    +0.389 N 
ATOM      3  H   LIG    1       -1.189   6.522   1.536  0.00  0.00    -0.080 HD
ATOM      4  C   LIG    1       -0.269   7.158   3.262  0.00  0.00    -0.067 C 
ATOM      5  C   LIG    1       -0.920   6.768   4.606  0.00  0.00    -0.017 C 
ATOM      6  C   LIG    1       -2.062   5.810   4.176  0.00  0.00    -0.017 C 
ENDROOT
BRANCH   1   7
ATOM      7  C   LIG    1       -2.497   4.531   2.039  0.00  0.00    -0.011 C 
BRANCH   7   8
ATOM      8  C   LIG    1       -2.026   3.210   1.426  0.00  0.00    +0.033 C 
BRANCH   8  12
ATOM      9  C   LIG    1       -5.316   0.495   1.193  0.00  0.00    +0.000 A 
ATOM     10  C   LIG    1       -4.985   1.276   0.101  0.00  0.00    +0.000 A 
ATOM     11  C   LIG    1       -3.920   2.154   0.176  0.00  0.00    +0.003 A 
ATOM     12  C   LIG    1       -3.187   2.252   1.344  0.00  0.00    -0.047 A 
ATOM     13  C   LIG    1       -3.514   1.468   2.434  0.00  0.00    +0.003 A 
ATOM     14  C   LIG    1       -4.582   0.593   2.360  0.00  0.00    +0.000 A 
ENDBRANCH   8  12
ENDBRANCH   7   8
ENDBRANCH   1   7
BRANCH   2  15
ATOM     15  C   LIG    1        0.605   5.516   1.704  0.00  0.00    -0.011 C 
BRANCH  15  16
ATOM     16  C   LIG    1        1.391   4.810   2.779  0.00  0.00    -0.059 A 
ATOM     17  C   LIG    1        2.633   4.276   2.489  0.00  0.00    +0.002 A 
ATOM     18  C   LIG    1        3.353   3.628   3.475  0.00  0.00    +0.000 A 
ATOM     19  C   LIG    1        2.832   3.513   4.750  0.00  0.00    +0.000 A 
ATOM     20  C   LIG    1        1.588   4.043   5.038  0.00  0.00    +0.000 A 
ATOM     21  C   LIG    1        0.870   4.696   4.054  0.00  0.00    +0.002 A 
ENDBRANCH  15  16
BRANCH  15  22
ATOM     22  C   LIG    1        0.213   4.514   0.617  0.00  0.00    +0.145 C 
BRANCH  22  23
ATOM     23  O   LIG    1       -0.732   5.117  -0.269  0.00  0.00    -0.396 OA
ATOM     24  H   LIG    1       -1.077   4.517  -0.944  0.00  0.00    +0.209 HD
ENDBRANCH  22  23
ENDBRANCH  15  22
ENDBRANCH   2  15
BRANCH   4  25
ATOM     25  C   LIG    1        1.250   7.245   3.426  0.00  0.00    -0.011 C 
BRANCH  25  26
ATOM     26  C   LIG    1        1.603   8.487   4.247  0.00  0.00    +0.033 C 
BRANCH  26  27
ATOM     27  C   LIG    1        3.101   8.642   4.305  0.00  0.00    -0.047 A 
ATOM     28  C   LIG    1        3.818   8.052   5.330  0.00  0.00    +0.003 A 
ATOM     29  C   LIG    1        5.192   8.190   5.381  0.00  0.00    +0.000 A 
ATOM     30  C   LIG    1        5.849   8.925   4.412  0.00  0.00    +0.000 A 
ATOM     31  C   LIG    1        5.132   9.520   3.390  0.00  0.00    +0.000 A 
ATOM     32  C   LIG    1        3.758   9.378   3.337  0.00  0.00    +0.003 A 
ENDBRANCH  26  27
ENDBRANCH  25  26
ENDBRANCH   4  25
TORSDOF 10
