REMARK  Name = ZINC05115388
REMARK                            x       y       z     vdW  Elec       q    Type
REMARK                         _______ _______ _______ _____ _____    ______ ____
ROOT
ATOM      1  S   LIG    1        4.997   2.669  -0.030  0.00  0.00    +0.094 S 
ATOM      2  O   LIG    1        5.406   1.430   0.534  0.00  0.00    -0.249 OA
ENDROOT
BRANCH   1   3
ATOM      3  C   LIG    1        3.238   2.585  -0.015  0.00  0.00    +0.198 A 
ATOM      4  N   LIG    1        2.512   1.434  -0.014  0.00  0.00    -0.331 N 
ATOM      5  C   LIG    1        1.178   1.790   0.000  0.00  0.00    +0.067 A 
ATOM      6  C   LIG    1       -0.013   1.076   0.008  0.00  0.00    +0.028 A 
ATOM      7  C   LIG    1       -1.214   1.752   0.017  0.00  0.00    +0.002 A 
ATOM      8  C   LIG    1       -1.240   3.139   0.031  0.00  0.00    +0.002 A 
ATOM      9  C   LIG    1       -0.078   3.858   0.023  0.00  0.00    +0.030 A 
ATOM     10  C   LIG    1        1.151   3.194   0.008  0.00  0.00    +0.090 A 
ATOM     11  H   LIG    1        2.877   0.503  -0.022  0.00  0.00    +0.168 HD
ATOM     12  N   LIG    1        2.442   3.615  -0.002  0.00  0.00    -0.220 NA
ENDBRANCH   1   3
BRANCH   1  13
ATOM     13  C   LIG    1        5.420   2.698  -1.794  0.00  0.00    +0.149 C 
BRANCH  13  19
ATOM     14  C   LIG    1        7.665   1.602  -2.030  0.00  0.00    +0.033 A 
ATOM     15  C   LIG    1        9.045   1.673  -2.175  0.00  0.00    +0.023 A 
ATOM     16  C   LIG    1        9.668   2.904  -2.240  0.00  0.00    +0.002 A 
ATOM     17  C   LIG    1        8.921   4.064  -2.162  0.00  0.00    +0.000 A 
ATOM     18  C   LIG    1        7.546   3.997  -2.022  0.00  0.00    +0.006 A 
ATOM     19  C   LIG    1        6.917   2.770  -1.951  0.00  0.00    -0.014 A 
BRANCH  14  21
ATOM     20  C   LIG    1        7.275  -0.422  -3.184  0.00  0.00    +0.129 C 
ATOM     21  N   LIG    1        7.031   0.359  -1.964  0.00  0.00    -0.336 N 
ATOM     22  C   LIG    1        7.453  -0.384  -0.769  0.00  0.00    +0.129 C 
ENDBRANCH  14  21
ENDBRANCH  13  19
ENDBRANCH   1  13
TORSDOF 4
