REMARK  Name = ZINC05131852
REMARK                            x       y       z     vdW  Elec       q    Type
REMARK                         _______ _______ _______ _____ _____    ______ ____
ROOT
ATOM      1  C   UNK    1       -0.092   1.085  -2.414  0.00  0.00    -0.014 C 
ATOM      2  N   UNK    1       -0.734   1.579  -1.181  0.00  0.00    +0.389 N 
ATOM      3  H   UNK    1       -0.723   2.606  -1.181  0.00  0.00    -0.085 HD
ATOM      4  H   UNK    1       -1.705   1.247  -1.149  0.00  0.00    -0.085 HD
ATOM      5  C   UNK    1       -0.013   1.086   0.008  0.00  0.00    -0.014 C 
ATOM      6  C   UNK    1        1.423   1.615  -0.003  0.00  0.00    +0.134 C 
ATOM      7  C   UNK    1        2.129   1.136  -1.274  0.00  0.00    +0.168 C 
ATOM      8  C   UNK    1        1.341   1.615  -2.497  0.00  0.00    +0.134 C 
ENDROOT
BRANCH   6   9
ATOM      9  O   UNK    1        1.405   3.044   0.023  0.00  0.00    -0.391 OA
ATOM     10  H   UNK    1        2.283   3.449   0.018  0.00  0.00    +0.210 HD
ENDBRANCH   6   9
BRANCH   7  11
ATOM     11  O   UNK    1        3.452   1.674  -1.318  0.00  0.00    -0.387 OA
ATOM     12  H   UNK    1        3.958   1.411  -2.099  0.00  0.00    +0.210 HD
ENDBRANCH   7  11
BRANCH   8  13
ATOM     13  O   UNK    1        1.323   3.044  -2.523  0.00  0.00    -0.391 OA
ATOM     14  H   UNK    1        2.200   3.448  -2.573  0.00  0.00    +0.210 HD
ENDBRANCH   8  13
BRANCH   1  15
ATOM     15  C   UNK    1       -0.071  -0.444  -2.406  0.00  0.00    +0.143 C 
BRANCH  15  16
ATOM     16  O   UNK    1       -1.411  -0.940  -2.446  0.00  0.00    -0.397 OA
ATOM     17  H   UNK    1       -1.473  -1.905  -2.444  0.00  0.00    +0.209 HD
ENDBRANCH  15  16
ENDBRANCH   1  15
BRANCH   5  18
ATOM     18  C   UNK    1       -0.728   1.579   1.267  0.00  0.00    +0.143 C 
BRANCH  18  19
ATOM     19  O   UNK    1       -2.029   0.991   1.337  0.00  0.00    -0.397 OA
ATOM     20  H   UNK    1       -2.541   1.260   2.112  0.00  0.00    +0.209 HD
ENDBRANCH  18  19
ENDBRANCH   5  18
TORSDOF 7
