REMARK  Name = ZINC05424460
REMARK                            x       y       z     vdW  Elec       q    Type
REMARK                         _______ _______ _______ _____ _____    ______ ____
ROOT
ATOM      1  C   LIG    1        0.848  -0.509   1.173  0.00  0.00    +0.020 C 
ATOM      2  C   LIG    1        2.298  -0.002   1.023  0.00  0.00    +0.048 C 
ATOM      3  C   LIG    1        3.165  -1.115   1.571  0.00  0.00    -0.043 A 
ATOM      4  C   LIG    1        4.489  -1.103   1.979  0.00  0.00    +0.007 A 
ATOM      5  C   LIG    1        5.082  -2.257   2.451  0.00  0.00    +0.038 A 
ATOM      6  C   LIG    1        4.351  -3.432   2.517  0.00  0.00    +0.124 A 
ATOM      7  F   LIG    1        4.928  -4.563   2.978  0.00  0.00    -0.205 F 
ATOM      8  C   LIG    1        3.029  -3.445   2.110  0.00  0.00    +0.042 A 
ATOM      9  C   LIG    1        2.435  -2.287   1.636  0.00  0.00    -0.041 A 
ATOM     10  C   LIG    1        1.027  -2.042   1.137  0.00  0.00    +0.049 C 
ENDROOT
BRANCH   1  11
ATOM     11  C   LIG    1        0.255  -0.070   2.487  0.00  0.00    +0.042 A 
ATOM     12  C   LIG    1       -0.931  -0.449   2.999  0.00  0.00    +0.134 A 
ATOM     13  N   LIG    1       -1.087   0.164   4.182  0.00  0.00    -0.244 NA
ATOM     14  C   LIG    1       -0.043   0.908   4.423  0.00  0.00    +0.196 A 
ATOM     15  N   LIG    1        0.822   0.786   3.392  0.00  0.00    -0.348 N 
ATOM     16  H   LIG    1        1.683   1.225   3.308  0.00  0.00    +0.167 HD
ENDBRANCH   1  11
BRANCH   1  18
ATOM     17  C   LIG    1       -0.105   1.492   0.020  0.00  0.00    +0.005 C 
ATOM     18  C   LIG    1       -0.018  -0.035   0.004  0.00  0.00    +0.010 C 
ENDBRANCH   1  18
TORSDOF 2
