REMARK  Name = ZINC05117282
REMARK                            x       y       z     vdW  Elec       q    Type
REMARK                         _______ _______ _______ _____ _____    ______ ____
ROOT
ATOM      1  C   LIG    1       -0.017   1.387   0.010  0.00  0.00    +0.047 A 
ATOM      2  C   LIG    1        1.164   2.101   0.002  0.00  0.00    +0.031 A 
ATOM      3  C   LIG    1        2.377   1.430  -0.013  0.00  0.00    +0.066 A 
ATOM      4  C   LIG    1        2.405   0.026  -0.021  0.00  0.00    +0.069 A 
ATOM      5  N   LIG    1        3.711  -0.348  -0.035  0.00  0.00    -0.328 N 
ATOM      6  H   LIG    1        4.030  -1.264  -0.043  0.00  0.00    +0.169 HD
ATOM      7  C   LIG    1        4.474   0.716  -0.037  0.00  0.00    +0.169 A 
ATOM      8  C   LIG    1        1.203  -0.686  -0.013  0.00  0.00    +0.073 A 
ATOM      9  N   LIG    1        3.702   1.841  -0.023  0.00  0.00    -0.328 N 
ATOM     10  H   LIG    1        4.020   2.758  -0.021  0.00  0.00    +0.169 HD
ATOM     11  C   LIG    1        0.002  -0.004   0.002  0.00  0.00    +0.119 A 
ENDROOT
BRANCH   7  12
ATOM     12  N   LIG    1        5.853   0.702  -0.050  0.00  0.00    -0.330 N 
ATOM     13  H   LIG    1        6.347   1.537  -0.050  0.00  0.00    +0.145 HD
ATOM     14  H   LIG    1        6.330  -0.143  -0.058  0.00  0.00    +0.145 HD
ENDBRANCH   7  12
BRANCH  11  15
ATOM     15  O   LIG    1       -1.169  -0.696   0.010  0.00  0.00    -0.507 OA
ATOM     16  H   LIG    1       -1.985  -0.236   0.020  0.00  0.00    +0.292 HD
ENDBRANCH  11  15
TORSDOF 2
