REMARK  Name = ZINC04842164
REMARK                            x       y       z     vdW  Elec       q    Type
REMARK                         _______ _______ _______ _____ _____    ______ ____
ROOT
ATOM      1  N   LIG    1        1.234  -2.082  -0.021  0.00  0.00    -0.277 N 
ATOM      2  H   LIG    1        1.929  -2.553  -0.506  0.00  0.00    +0.155 HD
ATOM      3  C   LIG    1        0.294  -2.774   0.653  0.00  0.00    +0.284 C 
ATOM      4  O   LIG    1       -0.624  -2.186   1.193  0.00  0.00    -0.266 OA
ENDROOT
BRANCH   1   9
ATOM      5  C   LIG    1       -0.033   1.372  -0.012  0.00  0.00    +0.002 A 
ATOM      6  C   LIG    1        1.149   2.090  -0.025  0.00  0.00    +0.002 A 
ATOM      7  C   LIG    1        2.364   1.429  -0.038  0.00  0.00    +0.025 A 
ATOM      8  C   LIG    1        2.398   0.042  -0.036  0.00  0.00    +0.051 A 
ATOM      9  C   LIG    1        1.206  -0.681  -0.022  0.00  0.00    +0.055 A 
ATOM     10  C   LIG    1       -0.007  -0.010  -0.010  0.00  0.00    +0.025 A 
BRANCH   8  11
ATOM     11  N   LIG    1        3.626  -0.629  -0.049  0.00  0.00    -0.328 N 
ATOM     12  C   LIG    1        4.271  -0.984  -1.321  0.00  0.00    +0.105 C 
ATOM     13  C   LIG    1        5.702  -0.435  -1.318  0.00  0.00    +0.019 C 
ATOM     14  C   LIG    1        6.437  -0.945  -0.076  0.00  0.00    +0.003 C 
ATOM     15  C   LIG    1        5.724  -0.443   1.182  0.00  0.00    +0.019 C 
ATOM     16  C   LIG    1        4.297  -0.986   1.208  0.00  0.00    +0.105 C 
ENDBRANCH   8  11
ENDBRANCH   1   9
BRANCH   3  17
ATOM     17  C   LIG    1        0.379  -4.235   0.736  0.00  0.00    +0.192 A 
ATOM     18  C   LIG    1       -0.504  -5.055   1.379  0.00  0.00    +0.057 A 
ATOM     19  C   LIG    1       -0.037  -6.367   1.204  0.00  0.00    +0.076 A 
ATOM     20  C   LIG    1        1.095  -6.292   0.470  0.00  0.00    +0.276 A 
ATOM     21  O   LIG    1        1.339  -5.006   0.186  0.00  0.00    -0.429 OA
BRANCH  20  22
ATOM     22  N   LIG    1        1.925  -7.442   0.046  0.00  0.00    +0.043 N 
ATOM     23  O   LIG    1        1.605  -8.566   0.356  0.00  0.00    -0.127 OA
BRANCH  22  24
ATOM     24  O   LIG    1        2.923  -7.257  -0.611  0.00  0.00    -0.394 OA
ATOM     25  H   LIG    1        3.171  -6.386  -0.852  0.00  0.00    +0.329 HD
ENDBRANCH  22  24
ENDBRANCH  20  22
ENDBRANCH   3  17
TORSDOF 5
