REMARK  Name = ZINC05648910
REMARK                            x       y       z     vdW  Elec       q    Type
REMARK                         _______ _______ _______ _____ _____    ______ ____
ROOT
ATOM      1  C   LIG    1       -0.017   1.392   0.010  0.00  0.00    +0.033 A 
ATOM      2  C   LIG    1        1.170   2.097   0.002  0.00  0.00    +0.043 A 
ATOM      3 CL   LIG    1        1.146   3.833   0.011  0.00  0.00    -0.083 Cl
ATOM      4  C   LIG    1        2.381   1.424  -0.013  0.00  0.00    +0.043 A 
ATOM      5  C   LIG    1        2.412   0.041  -0.021  0.00  0.00    +0.084 A 
ATOM      6 CL   LIG    1        3.936  -0.791  -0.040  0.00  0.00    -0.080 Cl
ATOM      7  C   LIG    1        1.229  -0.681  -0.013  0.00  0.00    +0.144 A 
ATOM      8  C   LIG    1        0.002  -0.004   0.002  0.00  0.00    +0.039 A 
ENDROOT
BRANCH   7   9
ATOM      9  O   LIG    1        1.259  -2.039  -0.021  0.00  0.00    -0.505 OA
ATOM     10  H   LIG    1        2.081  -2.489  -0.032  0.00  0.00    +0.292 HD
ENDBRANCH   7   9
BRANCH   8  11
ATOM     11  C   LIG    1       -1.262  -0.762   0.011  0.00  0.00    +0.142 C 
ATOM     12  N   LIG    1       -1.240  -2.060   0.003  0.00  0.00    -0.188 NA
BRANCH  12  13
ATOM     13  N   LIG    1       -2.442  -2.781   0.011  0.00  0.00    -0.217 N 
ATOM     14  H   LIG    1       -3.290  -2.310   0.022  0.00  0.00    +0.176 HD
BRANCH  13  15
ATOM     15  C   LIG    1       -2.419  -4.145   0.004  0.00  0.00    +0.166 C 
ATOM     16  N   LIG    1       -1.362  -4.947  -0.005  0.00  0.00    -0.157 NA
ATOM     17  C   LIG    1       -1.424  -6.251  -0.011  0.00  0.00    +0.248 C 
ATOM     18  C   LIG    1       -2.831  -6.836  -0.008  0.00  0.00    +0.174 C 
ATOM     19  O   LIG    1       -0.429  -6.949  -0.019  0.00  0.00    -0.273 OA
ATOM     20  S   LIG    1       -3.806  -5.273   0.012  0.00  0.00    -0.082 S 
ENDBRANCH  13  15
ENDBRANCH  12  13
ENDBRANCH   8  11
TORSDOF 4
