REMARK  Name = ZINC05759588
REMARK                            x       y       z     vdW  Elec       q    Type
REMARK                         _______ _______ _______ _____ _____    ______ ____
ROOT
ATOM      1  C   LIG    1        4.430  -1.743  -0.583  0.00  0.00    +0.233 C 
ATOM      2  N   LIG    1        5.277  -0.696  -0.618  0.00  0.00    -0.314 N 
ATOM      3  H   LIG    1        5.101   0.089  -0.076  0.00  0.00    +0.149 HD
ATOM      4  O   LIG    1        4.695  -2.759  -1.190  0.00  0.00    -0.274 OA
ENDROOT
BRANCH   1   5
ATOM      5  C   LIG    1        3.152  -1.652   0.211  0.00  0.00    +0.159 C 
BRANCH   5   6
ATOM      6  N   LIG    1        2.212  -2.674  -0.257  0.00  0.00    -0.302 N 
ATOM      7  C   LIG    1        0.891  -2.527  -0.035  0.00  0.00    +0.246 C 
ATOM      8  O   LIG    1        0.472  -1.510   0.475  0.00  0.00    -0.273 OA
ATOM      9  H   LIG    1        2.541  -3.454  -0.731  0.00  0.00    +0.150 HD
BRANCH   7  10
ATOM     10  C   LIG    1       -0.065  -3.626  -0.421  0.00  0.00    +0.244 C 
ATOM     11  C   LIG    1       -0.255  -3.915  -1.911  0.00  0.00    +0.265 C 
ATOM     12  O   LIG    1       -1.252  -3.259  -1.125  0.00  0.00    -0.347 OA
BRANCH  11  13
ATOM     13  C   LIG    1       -0.511  -5.342  -2.323  0.00  0.00    +0.337 C 
ATOM     14  O   LIG    1       -1.570  -5.647  -2.819  0.00  0.00    -0.248 OA
BRANCH  13  15
ATOM     15  O   LIG    1        0.436  -6.275  -2.138  0.00  0.00    -0.479 OA
ATOM     16  H   LIG    1        1.257  -6.038  -1.753  0.00  0.00    +0.295 HD
ENDBRANCH  13  15
ENDBRANCH  11  13
ENDBRANCH   7  10
ENDBRANCH   5   6
BRANCH   5  17
ATOM     17  C   LIG    1        3.455  -1.880   1.694  0.00  0.00    +0.034 C 
BRANCH  17  19
ATOM     18  C   LIG    1        3.527   0.565   2.206  0.00  0.00    +0.007 C 
ATOM     19  C   LIG    1        4.329  -0.738   2.216  0.00  0.00    -0.015 C 
ATOM     20  C   LIG    1        4.776  -1.051   3.646  0.00  0.00    +0.007 C 
ENDBRANCH  17  19
ENDBRANCH   5  17
ENDBRANCH   1   5
BRANCH   2  21
ATOM     21  C   LIG    1        6.465  -0.743  -1.474  0.00  0.00    +0.104 C 
BRANCH  21  22
ATOM     22  C   LIG    1        7.251   0.562  -1.328  0.00  0.00    +0.022 C 
BRANCH  22  23
ATOM     23  C   LIG    1        8.492   0.512  -2.222  0.00  0.00    +0.038 C 
BRANCH  23  24
ATOM     24  C   LIG    1        9.277   1.817  -2.076  0.00  0.00    +0.196 C 
BRANCH  24  25
ATOM     25  N   LIG    1       10.517   1.721  -2.922  0.00  0.00    -0.279 N 
ATOM     26  H   LIG    1       11.221   1.002  -2.721  0.00  0.00    +0.258 HD
ATOM     27  C   LIG    1       10.702   2.574  -3.937  0.00  0.00    +0.341 C 
BRANCH  27  28
ATOM     28  N   LIG    1       11.786   2.358  -4.754  0.00  0.00    -0.292 N 
ATOM     29  H   LIG    1       11.959   2.955  -5.499  0.00  0.00    +0.255 HD
ATOM     30  H   LIG    1       12.378   1.608  -4.587  0.00  0.00    +0.255 HD
ENDBRANCH  27  28
BRANCH  27  31
ATOM     31  N   LIG    1        9.863   3.638  -4.175  0.00  0.00    -0.292 N 
ATOM     32  H   LIG    1        9.974   4.172  -4.977  0.00  0.00    +0.255 HD
ATOM     33  H   LIG    1        9.162   3.853  -3.541  0.00  0.00    +0.255 HD
ENDBRANCH  27  31
ENDBRANCH  24  25
ENDBRANCH  23  24
ENDBRANCH  22  23
ENDBRANCH  21  22
ENDBRANCH   2  21
TORSDOF 14
