REMARK  Name = ZINC05234422
REMARK                            x       y       z     vdW  Elec       q    Type
REMARK                         _______ _______ _______ _____ _____    ______ ____
ROOT
ATOM      1  C   LIG    1        3.422   1.825   1.263  0.00  0.00    +0.339 C 
ATOM      2  C   LIG    1        2.064   1.118   1.241  0.00  0.00    +0.214 C 
ATOM      3  C   LIG    1        1.286   1.562  -0.002  0.00  0.00    +0.180 C 
ATOM      4  C   LIG    1        1.147   3.087   0.012  0.00  0.00    +0.177 C 
ATOM      5  C   LIG    1        2.540   3.719   0.084  0.00  0.00    +0.179 C 
ATOM      6  O   LIG    1        3.220   3.240   1.246  0.00  0.00    -0.331 OA
ENDROOT
BRANCH   2   7
ATOM      7  O   LIG    1        2.264  -0.296   1.200  0.00  0.00    -0.383 OA
ATOM      8  H   LIG    1        2.751  -0.647   1.958  0.00  0.00    +0.210 HD
ENDBRANCH   2   7
BRANCH   3   9
ATOM      9  O   LIG    1       -0.011   0.963   0.007  0.00  0.00    -0.386 OA
ATOM     10  H   LIG    1        0.002  -0.004   0.002  0.00  0.00    +0.210 HD
ENDBRANCH   3   9
BRANCH   4  11
ATOM     11  O   LIG    1        0.486   3.517  -1.180  0.00  0.00    -0.386 OA
ATOM     12  H   LIG    1       -0.402   3.151  -1.292  0.00  0.00    +0.210 HD
ENDBRANCH   4  11
BRANCH   1  13
ATOM     13  O   LIG    1        4.131   1.459   2.448  0.00  0.00    -0.461 OA
BRANCH  13  16
ATOM     14  C   LIG    1        7.430   2.062   3.834  0.00  0.00    +0.014 A 
ATOM     15  C   LIG    1        6.146   1.599   3.703  0.00  0.00    +0.046 A 
ATOM     16  C   LIG    1        5.401   1.919   2.574  0.00  0.00    +0.124 A 
ATOM     17  C   LIG    1        5.955   2.705   1.569  0.00  0.00    +0.046 A 
ATOM     18  C   LIG    1        7.237   3.177   1.692  0.00  0.00    +0.014 A 
ATOM     19  C   LIG    1        7.991   2.857   2.828  0.00  0.00    +0.014 A 
BRANCH  19  20
ATOM     20  C   LIG    1        9.366   3.356   2.964  0.00  0.00    +0.258 C 
ATOM     21  O   LIG    1       10.018   3.078   3.948  0.00  0.00    -0.296 OA
ENDBRANCH  19  20
ENDBRANCH  13  16
ENDBRANCH   1  13
BRANCH   5  22
ATOM     22  C   LIG    1        2.406   5.241   0.161  0.00  0.00    +0.190 C 
BRANCH  22  23
ATOM     23  O   LIG    1        3.705   5.836   0.110  0.00  0.00    -0.392 OA
ATOM     24  H   LIG    1        3.697   6.802   0.154  0.00  0.00    +0.210 HD
ENDBRANCH  22  23
ENDBRANCH   5  22
TORSDOF 8
