REMARK  Name = ZINC05049530
REMARK                            x       y       z     vdW  Elec       q    Type
REMARK                         _______ _______ _______ _____ _____    ______ ____
ROOT
ATOM      1  C   UNK    1        0.086   1.116   2.944  0.00  0.00    +0.091 C 
ENDROOT
BRANCH   1   5
ATOM      2  C   UNK    1       -2.659   3.936   4.611  0.00  0.00    +0.120 A 
ATOM      3  C   UNK    1       -1.881   4.287   3.518  0.00  0.00    +0.046 A 
ATOM      4  C   UNK    1       -0.994   3.373   2.981  0.00  0.00    +0.009 A 
ATOM      5  C   UNK    1       -0.882   2.110   3.532  0.00  0.00    -0.023 A 
ATOM      6  C   UNK    1       -1.661   1.756   4.618  0.00  0.00    +0.009 A 
ATOM      7  C   UNK    1       -2.545   2.668   5.163  0.00  0.00    +0.046 A 
BRANCH   2   9
ATOM      8  C   UNK    1       -4.300   4.402   6.267  0.00  0.00    +0.277 C 
ATOM      9  O   UNK    1       -3.531   4.832   5.142  0.00  0.00    -0.495 OA
ENDBRANCH   2   9
ENDBRANCH   1   5
BRANCH   1  10
ATOM     10  C   UNK    1        1.470   1.712   2.927  0.00  0.00    -0.023 A 
ATOM     11  C   UNK    1        1.822   2.669   3.861  0.00  0.00    +0.005 A 
ATOM     12  C   UNK    1        3.093   3.212   3.848  0.00  0.00    +0.000 A 
ATOM     13  C   UNK    1        4.009   2.807   2.895  0.00  0.00    +0.000 A 
ATOM     14  C   UNK    1        3.655   1.855   1.957  0.00  0.00    +0.000 A 
ATOM     15  C   UNK    1        2.385   1.307   1.974  0.00  0.00    +0.005 A 
ENDBRANCH   1  10
BRANCH   1  16
ATOM     16  C   UNK    1        0.089  -0.137   3.781  0.00  0.00    -0.023 A 
ATOM     17  C   UNK    1        0.484  -0.083   5.105  0.00  0.00    +0.005 A 
ATOM     18  C   UNK    1        0.483  -1.231   5.874  0.00  0.00    +0.000 A 
ATOM     19  C   UNK    1        0.096  -2.436   5.317  0.00  0.00    +0.000 A 
ATOM     20  C   UNK    1       -0.293  -2.491   3.992  0.00  0.00    +0.000 A 
ATOM     21  C   UNK    1       -0.297  -1.341   3.224  0.00  0.00    +0.005 A 
ENDBRANCH   1  16
BRANCH   1  22
ATOM     22  S   UNK    1       -0.419   0.710   1.250  0.00  0.00    -0.141 S 
BRANCH  22  23
ATOM     23  C   UNK    1       -2.155   0.213   1.417  0.00  0.00    +0.065 C 
BRANCH  23  24
ATOM     24  C   UNK    1       -2.674  -0.288   0.067  0.00  0.00    +0.046 C 
BRANCH  24  25
ATOM     25  N   UNK    1       -2.576   0.774  -0.949  0.00  0.00    +0.387 N 
ATOM     26  H   UNK    1       -2.959   0.429  -1.837  0.00  0.00    -0.089 HD
ATOM     27  H   UNK    1       -1.601   1.036  -1.087  0.00  0.00    -0.089 HD
ATOM     28  H   UNK    1       -3.108   1.591  -0.653  0.00  0.00    -0.089 HD
ENDBRANCH  24  25
BRANCH  24  29
ATOM     29  C   UNK    1       -4.117  -0.702   0.206  0.00  0.00    +0.291 C 
ATOM     30  O   UNK    1       -4.996   0.044  -0.156  0.00  0.00    -0.253 OA
BRANCH  29  31
ATOM     31  O   UNK    1       -4.425  -1.898   0.731  0.00  0.00    -0.482 OA
ATOM     32  H   UNK    1       -3.743  -2.476   1.011  0.00  0.00    +0.295 HD
ENDBRANCH  29  31
ENDBRANCH  24  29
ENDBRANCH  23  24
ENDBRANCH  22  23
ENDBRANCH   1  22
TORSDOF 10
