REMARK  Name = ZINC05676683
REMARK                            x       y       z     vdW  Elec       q    Type
REMARK                         _______ _______ _______ _____ _____    ______ ____
ROOT
ATOM      1  C   LIG    1        3.696  -0.686  -0.038  0.00  0.00    +0.186 C 
ATOM      2  O   LIG    1        3.714  -1.905  -0.046  0.00  0.00    -0.287 OA
ENDROOT
BRANCH   1   3
ATOM      3  C   LIG    1        2.404   0.034  -0.021  0.00  0.00    +0.023 A 
ATOM      4  C   LIG    1        1.204  -0.680  -0.014  0.00  0.00    +0.013 A 
ATOM      5  C   LIG    1        0.002  -0.004   0.002  0.00  0.00    +0.022 A 
ATOM      6  C   LIG    1       -0.017   1.381   0.010  0.00  0.00    +0.059 A 
ATOM      7 CL   LIG    1       -1.534   2.225   0.021  0.00  0.00    -0.082 Cl
ATOM      8  C   LIG    1        1.171   2.095   0.002  0.00  0.00    +0.060 A 
ATOM      9 CL   LIG    1        1.138   3.831   0.011  0.00  0.00    -0.082 Cl
ATOM     10  C   LIG    1        2.380   1.429  -0.013  0.00  0.00    +0.033 A 
ENDBRANCH   1   3
BRANCH   1  12
ATOM     11  C   LIG    1        6.095  -0.624  -0.062  0.00  0.00    +0.050 C 
ATOM     12  C   LIG    1        4.908   0.038  -0.046  0.00  0.00    +0.055 C 
BRANCH  11  15
ATOM     13  C   LIG    1        9.473   0.643  -0.088  0.00  0.00    +0.042 A 
ATOM     14  C   LIG    1        8.580  -0.439  -0.080  0.00  0.00    +0.049 A 
ATOM     15  C   LIG    1        7.309   0.102  -0.070  0.00  0.00    +0.128 A 
ATOM     16  O   LIG    1        7.433   1.446  -0.062  0.00  0.00    -0.464 OA
ATOM     17  C   LIG    1        8.732   1.774  -0.074  0.00  0.00    +0.195 A 
ENDBRANCH  11  15
ENDBRANCH   1  12
TORSDOF 3
