REMARK  Name = ZINC05336299
REMARK                            x       y       z     vdW  Elec       q    Type
REMARK                         _______ _______ _______ _____ _____    ______ ____
ROOT
ATOM      1  C   LIG    1       -1.960   0.801   0.045  0.00  0.00    +0.061 A 
ATOM      2  C   LIG    1       -1.651   2.151  -0.129  0.00  0.00    +0.017 A 
ATOM      3  C   LIG    1       -2.627   3.108   0.056  0.00  0.00    +0.030 A 
ATOM      4  C   LIG    1       -3.907   2.733   0.424  0.00  0.00    +0.118 A 
ATOM      5  C   LIG    1       -4.218   1.397   0.603  0.00  0.00    +0.147 A 
ATOM      6  C   LIG    1       -3.253   0.429   0.416  0.00  0.00    +0.049 A 
ENDROOT
BRANCH   4   7
ATOM      7  S   LIG    1       -5.146   3.962   0.665  0.00  0.00    -0.004 S 
ATOM      8  C   LIG    1       -6.346   3.682  -0.666  0.00  0.00    +0.200 C 
ATOM      9  O   LIG    1       -4.474   5.198   0.466  0.00  0.00    -0.170 OA
ATOM     10  O   LIG    1       -5.728   3.648   1.923  0.00  0.00    -0.170 OA
ENDBRANCH   4   7
BRANCH   1  11
ATOM     11  C   LIG    1       -0.921  -0.230  -0.157  0.00  0.00    +0.339 C 
ATOM     12  O   LIG    1       -1.191  -1.404  -0.001  0.00  0.00    -0.245 OA
BRANCH  11  14
ATOM     13  C   LIG    1        1.293  -0.934  -0.707  0.00  0.00    +0.280 C 
ATOM     14  O   LIG    1        0.325   0.132  -0.521  0.00  0.00    -0.464 OA
ENDBRANCH  11  14
ENDBRANCH   1  11
BRANCH   5  15
ATOM     15  N   LIG    1       -5.590   1.004   0.997  0.00  0.00    +0.008 N 
ATOM     16  O   LIG    1       -5.836  -0.155   1.277  0.00  0.00    -0.130 OA
BRANCH  15  17
ATOM     17  O   LIG    1       -6.474   1.841   1.040  0.00  0.00    -0.396 OA
ATOM     18  H   LIG    1       -6.286   2.734   0.825  0.00  0.00    +0.329 HD
ENDBRANCH  15  17
ENDBRANCH   5  15
TORSDOF 5
