REMARK  Name = ZINC05529907
REMARK                            x       y       z     vdW  Elec       q    Type
REMARK                         _______ _______ _______ _____ _____    ______ ____
ROOT
ATOM      1  C   LIG    1       -5.213   2.727  -3.092  0.00  0.00    +0.014 C 
ATOM      2  C   LIG    1       -4.503   1.747  -2.156  0.00  0.00    -0.002 C 
ATOM      3  C   LIG    1       -5.051   1.942  -0.765  0.00  0.00    +0.014 C 
ATOM      4  C   LIG    1       -4.364   1.008   0.232  0.00  0.00    +0.032 C 
ATOM      5  C   LIG    1       -2.868   1.245   0.133  0.00  0.00    -0.063 C 
ATOM      6  C   LIG    1       -2.195   1.492   1.253  0.00  0.00    -0.044 C 
ATOM      7  C   LIG    1       -2.908   1.619   2.579  0.00  0.00    +0.043 C 
ATOM      8  C   LIG    1       -2.269   2.765   3.370  0.00  0.00    +0.083 C 
ATOM      9  C   LIG    1       -0.775   2.596   3.405  0.00  0.00    +0.157 C 
ATOM     10  C   LIG    1       -0.072   2.078   2.303  0.00  0.00    +0.050 C 
ATOM     11  O   LIG    1       -0.163   2.913   4.405  0.00  0.00    -0.293 OA
ATOM     12  C   LIG    1       -0.733   1.579   1.238  0.00  0.00    -0.041 C 
ATOM     13  C   LIG    1       -0.013   1.086   0.008  0.00  0.00    +0.036 C 
ATOM     14  C   LIG    1       -0.766   1.599  -1.218  0.00  0.00    +0.013 C 
ATOM     15  C   LIG    1       -2.221   1.155  -1.212  0.00  0.00    +0.019 C 
ATOM     16  C   LIG    1       -4.700   0.317  -2.690  0.00  0.00    +0.121 C 
ATOM     17  C   LIG    1       -3.721   0.247  -3.886  0.00  0.00    +0.032 C 
ATOM     18  C   LIG    1       -2.646   1.321  -3.637  0.00  0.00    +0.007 C 
ATOM     19  C   LIG    1       -2.986   1.967  -2.265  0.00  0.00    +0.005 C 
ENDROOT
BRANCH  16  20
ATOM     20  O   LIG    1       -6.046   0.120  -3.128  0.00  0.00    -0.391 OA
ATOM     21  H   LIG    1       -6.204  -0.741  -3.538  0.00  0.00    +0.210 HD
ENDBRANCH  16  20
TORSDOF 1
