REMARK  Name = ZINC05782223
REMARK                            x       y       z     vdW  Elec       q    Type
REMARK                         _______ _______ _______ _____ _____    ______ ____
ROOT
ATOM      1  C   LIG    1        0.823  -4.324   2.343  0.00  0.00    +0.392 C 
ATOM      2  N   LIG    1        1.046  -5.060   3.394  0.00  0.00    -0.129 NA
ATOM      3  H   LIG    1        1.315  -4.645   4.228  0.00  0.00    +0.306 HD
ENDROOT
BRANCH   1   4
ATOM      4  N   LIG    1        1.070  -2.971   2.385  0.00  0.00    -0.243 N 
ATOM      5  H   LIG    1        1.493  -2.580   3.165  0.00  0.00    +0.265 HD
BRANCH   4  11
ATOM      6  C   LIG    1       -2.118  -1.849  -1.185  0.00  0.00    +0.044 C 
ATOM      7  C   LIG    1       -0.830  -1.594  -0.445  0.00  0.00    -0.047 A 
ATOM      8  C   LIG    1       -0.002  -0.557  -0.836  0.00  0.00    +0.003 A 
ATOM      9  C   LIG    1        1.180  -0.320  -0.159  0.00  0.00    +0.004 A 
ATOM     10  C   LIG    1        1.538  -1.118   0.909  0.00  0.00    +0.042 A 
ATOM     11  C   LIG    1        0.710  -2.160   1.304  0.00  0.00    +0.100 A 
ATOM     12  C   LIG    1       -0.480  -2.392   0.626  0.00  0.00    +0.045 A 
ENDBRANCH   4  11
ENDBRANCH   1   4
BRANCH   1  13
ATOM     13  N   LIG    1        0.340  -4.902   1.185  0.00  0.00    -0.189 N 
ATOM     14  H   LIG    1        0.253  -4.371   0.378  0.00  0.00    +0.271 HD
BRANCH  13  15
ATOM     15  C   LIG    1       -0.017  -6.228   1.177  0.00  0.00    +0.350 C 
ATOM     16  N   LIG    1       -0.276  -6.840   0.024  0.00  0.00    -0.291 N 
ATOM     17  H   LIG    1       -0.212  -6.349  -0.811  0.00  0.00    +0.255 HD
ATOM     18  H   LIG    1       -0.528  -7.777   0.018  0.00  0.00    +0.255 HD
BRANCH  15  19
ATOM     19  N   LIG    1       -0.104  -6.901   2.322  0.00  0.00    -0.291 N 
ATOM     20  H   LIG    1       -0.020  -7.867   2.325  0.00  0.00    +0.255 HD
ATOM     21  H   LIG    1       -0.252  -6.425   3.154  0.00  0.00    +0.255 HD
ENDBRANCH  15  19
ENDBRANCH  13  15
ENDBRANCH   1  13
TORSDOF 5
