REMARK  Name = ZINC05821097
REMARK                            x       y       z     vdW  Elec       q    Type
REMARK                         _______ _______ _______ _____ _____    ______ ____
ROOT
ATOM      1  C   LIG    1        1.174   1.784   0.000  0.00  0.00    -0.040 A 
ATOM      2  C   LIG    1       -0.013   1.076   0.008  0.00  0.00    +0.049 A 
ATOM      3  C   LIG    1       -1.222   1.754   0.017  0.00  0.00    +0.124 A 
ATOM      4  C   LIG    1       -1.244   3.143   0.032  0.00  0.00    +0.039 A 
ATOM      5  C   LIG    1       -0.055   3.853   0.020  0.00  0.00    +0.128 A 
ATOM      6  O   LIG    1       -0.025   5.210   0.014  0.00  0.00    -0.486 OA
ATOM      7  C   LIG    1       -1.222   5.922   0.340  0.00  0.00    +0.108 C 
ATOM      8  C   LIG    1       -1.072   7.392  -0.056  0.00  0.00    +0.055 C 
ATOM      9  C   LIG    1       -1.492   5.817   1.842  0.00  0.00    +0.055 C 
ATOM     10  C   LIG    1       -2.378   5.293  -0.438  0.00  0.00    +0.040 C 
ATOM     11  C   LIG    1       -3.674   6.072  -0.222  0.00  0.00    +0.012 C 
ATOM     12  C   LIG    1       -4.772   5.458  -1.101  0.00  0.00    +0.030 C 
ATOM     13  C   LIG    1       -4.860   3.976  -0.818  0.00  0.00    -0.076 C 
ATOM     14  C   LIG    1       -6.014   3.413  -0.561  0.00  0.00    +0.007 C 
ATOM     15  C   LIG    1       -3.587   3.154  -0.838  0.00  0.00    +0.039 C 
ATOM     16  C   LIG    1       -2.566   3.857   0.059  0.00  0.00    +0.037 C 
ATOM     17  C   LIG    1        1.155   3.164   0.005  0.00  0.00    +0.049 A 
ENDROOT
BRANCH   3  18
ATOM     18  O   LIG    1       -2.389   1.058   0.018  0.00  0.00    -0.506 OA
ATOM     19  H   LIG    1       -2.723   0.851   0.901  0.00  0.00    +0.292 HD
ENDBRANCH   3  18
BRANCH   1  20
ATOM     20  C   LIG    1        2.490   1.050  -0.013  0.00  0.00    +0.035 C 
BRANCH  20  21
ATOM     21  C   LIG    1        2.922   0.806  -1.460  0.00  0.00    +0.005 C 
BRANCH  21  22
ATOM     22  C   LIG    1        4.258   0.060  -1.474  0.00  0.00    +0.000 C 
BRANCH  22  24
ATOM     23  C   LIG    1        6.027  -0.930  -2.936  0.00  0.00    +0.004 C 
ATOM     24  C   LIG    1        4.691  -0.184  -2.922  0.00  0.00    -0.003 C 
ENDBRANCH  22  24
ENDBRANCH  21  22
ENDBRANCH  20  21
ENDBRANCH   1  20
TORSDOF 5
