REMARK  Name = ZINC05138737
REMARK                            x       y       z     vdW  Elec       q    Type
REMARK                         _______ _______ _______ _____ _____    ______ ____
ROOT
ATOM      1  C   LIG    1        0.079   1.179   2.503  0.00  0.00    -0.013 C 
ATOM      2  C   LIG    1       -0.729   1.579   1.267  0.00  0.00    -0.069 C 
ENDROOT
BRANCH   2   3
ATOM      3  N   LIG    1       -2.076   0.984   1.317  0.00  0.00    +0.380 N 
ATOM      4  H   LIG    1       -2.612   1.292   0.497  0.00  0.00    -0.090 HD
ATOM      5  H   LIG    1       -2.559   1.285   2.162  0.00  0.00    -0.090 HD
ATOM      6  H   LIG    1       -2.010  -0.032   1.309  0.00  0.00    -0.090 HD
ENDBRANCH   2   3
BRANCH   2   7
ATOM      7  C   LIG    1       -0.013   1.086   0.008  0.00  0.00    +0.049 C 
BRANCH   7   8
ATOM      8  S   LIG    1       -0.890   1.687  -1.462  0.00  0.00    -0.180 S 
ATOM      9  H   LIG    1       -0.176   1.195  -2.490  0.00  0.00    +0.102 HD
ENDBRANCH   7   8
ENDBRANCH   2   7
TORSDOF 3
