REMARK  Name = ZINC04958385
REMARK                            x       y       z     vdW  Elec       q    Type
REMARK                         _______ _______ _______ _____ _____    ______ ____
ROOT
ATOM      1  C   LIG    1        3.750  -0.671  -0.038  0.00  0.00    +0.091 C 
ENDROOT
BRANCH   1   5
ATOM      2  C   LIG    1       -0.258   0.573  -0.833  0.00  0.00    +0.000 A 
ATOM      3  C   LIG    1        0.772   1.494  -0.873  0.00  0.00    +0.000 A 
ATOM      4  C   LIG    1        2.069   1.091  -0.616  0.00  0.00    +0.005 A 
ATOM      5  C   LIG    1        2.336  -0.232  -0.319  0.00  0.00    -0.023 A 
ATOM      6  C   LIG    1        1.306  -1.153  -0.279  0.00  0.00    +0.005 A 
ATOM      7  C   LIG    1        0.009  -0.750  -0.536  0.00  0.00    +0.000 A 
ENDBRANCH   1   5
BRANCH   1   8
ATOM      8  C   LIG    1        3.818  -1.305   1.327  0.00  0.00    -0.023 A 
ATOM      9  C   LIG    1        2.931  -0.917   2.314  0.00  0.00    +0.005 A 
ATOM     10  C   LIG    1        2.990  -1.502   3.565  0.00  0.00    +0.000 A 
ATOM     11  C   LIG    1        3.942  -2.468   3.832  0.00  0.00    +0.000 A 
ATOM     12  C   LIG    1        4.833  -2.852   2.847  0.00  0.00    +0.000 A 
ATOM     13  C   LIG    1        4.770  -2.270   1.594  0.00  0.00    +0.005 A 
ENDBRANCH   1   8
BRANCH   1  14
ATOM     14  C   LIG    1        4.665   0.526  -0.083  0.00  0.00    -0.023 A 
ATOM     15  C   LIG    1        5.693   0.576  -1.006  0.00  0.00    +0.005 A 
ATOM     16  C   LIG    1        6.529   1.676  -1.050  0.00  0.00    +0.000 A 
ATOM     17  C   LIG    1        6.345   2.720  -0.163  0.00  0.00    +0.000 A 
ATOM     18  C   LIG    1        5.321   2.667   0.764  0.00  0.00    +0.000 A 
ATOM     19  C   LIG    1        4.481   1.570   0.804  0.00  0.00    +0.005 A 
ENDBRANCH   1  14
BRANCH   1  20
ATOM     20  S   LIG    1        4.269  -1.876  -1.291  0.00  0.00    -0.142 S 
BRANCH  20  21
ATOM     21  C   LIG    1        3.950  -1.036  -2.867  0.00  0.00    +0.051 C 
BRANCH  21  22
ATOM     22  C   LIG    1        4.269  -1.984  -4.024  0.00  0.00    -0.076 C 
BRANCH  22  23
ATOM     23  N   LIG    1        3.986  -1.300  -5.298  0.00  0.00    +0.379 N 
ATOM     24  H   LIG    1        2.987  -1.062  -5.338  0.00  0.00    -0.090 HD
ATOM     25  H   LIG    1        4.214  -1.910  -6.081  0.00  0.00    -0.090 HD
ATOM     26  H   LIG    1        4.534  -0.444  -5.364  0.00  0.00    -0.090 HD
ENDBRANCH  22  23
ENDBRANCH  21  22
ENDBRANCH  20  21
ENDBRANCH   1  20
TORSDOF 7
