REMARK  Name = ZINC05162075
REMARK                            x       y       z     vdW  Elec       q    Type
REMARK                         _______ _______ _______ _____ _____    ______ ____
ROOT
ATOM      1  C   LIG    1       -0.017   1.390   0.010  0.00  0.00    +0.025 A 
ATOM      2  C   LIG    1        1.131   2.117   0.003  0.00  0.00    +0.028 A 
ATOM      3  C   LIG    1        2.395   1.483  -0.013  0.00  0.00    +0.055 A 
ATOM      4  C   LIG    1        2.385   0.068  -0.020  0.00  0.00    +0.040 A 
ATOM      5  S   LIG    1        4.119  -0.319  -0.038  0.00  0.00    -0.049 S 
ATOM      6  C   LIG    1        4.723   1.363  -0.035  0.00  0.00    +0.212 A 
ATOM      7  C   LIG    1        1.224  -0.664  -0.014  0.00  0.00    +0.040 A 
ATOM      8  N   LIG    1        3.618   2.057  -0.021  0.00  0.00    -0.333 N 
ATOM      9  H   LIG    1        3.676   3.025  -0.017  0.00  0.00    +0.168 HD
ATOM     10  C   LIG    1        0.002  -0.004   0.002  0.00  0.00    +0.026 A 
ENDROOT
BRANCH   6  11
ATOM     11  S   LIG    1        6.388   1.939  -0.046  0.00  0.00    +0.078 S 
ATOM     12  O   LIG    1        6.361   3.251  -0.590  0.00  0.00    -0.151 OA
ATOM     13  O   LIG    1        7.174   0.897  -0.610  0.00  0.00    -0.151 OA
BRANCH  11  14
ATOM     14  N   LIG    1        6.864   2.090   1.533  0.00  0.00    -0.202 NA
ATOM     15  H   LIG    1        7.760   2.398   1.742  0.00  0.00    +0.144 HD
ATOM     16  H   LIG    1        6.248   1.871   2.248  0.00  0.00    +0.144 HD
ENDBRANCH  11  14
ENDBRANCH   6  11
BRANCH  10  17
ATOM     17  N   LIG    1       -1.194  -0.728   0.010  0.00  0.00    -0.358 N 
ATOM     18  H   LIG    1       -1.174  -1.698   0.005  0.00  0.00    +0.142 HD
ATOM     19  H   LIG    1       -2.044  -0.261   0.021  0.00  0.00    +0.142 HD
ENDBRANCH  10  17
TORSDOF 3
