REMARK  Name = ZINC05412084
REMARK                            x       y       z     vdW  Elec       q    Type
REMARK                         _______ _______ _______ _____ _____    ______ ____
ROOT
ATOM      1  C   LIG    1       -2.255   5.728  -0.769  0.00  0.00    +0.068 C 
ATOM      2  C   LIG    1       -2.345   4.401  -0.061  0.00  0.00    +0.063 C 
ATOM      3  N   LIG    1       -1.305   3.918   0.547  0.00  0.00    -0.185 NA
ENDROOT
BRANCH   2   4
ATOM      4  C   LIG    1       -3.615   3.650  -0.059  0.00  0.00    -0.002 A 
ATOM      5  C   LIG    1       -4.436   3.660  -1.189  0.00  0.00    +0.012 A 
ATOM      6  C   LIG    1       -5.619   2.951  -1.183  0.00  0.00    +0.039 A 
ATOM      7  C   LIG    1       -5.999   2.240  -0.056  0.00  0.00    +0.123 A 
ATOM      8  F   LIG    1       -7.162   1.552  -0.055  0.00  0.00    -0.205 F 
ATOM      9  C   LIG    1       -5.191   2.232   1.070  0.00  0.00    +0.039 A 
ATOM     10  C   LIG    1       -4.003   2.931   1.074  0.00  0.00    +0.012 A 
ENDBRANCH   2   4
BRANCH   3  11
ATOM     11  N   LIG    1       -1.335   2.614   1.057  0.00  0.00    -0.218 N 
ATOM     12  H   LIG    1       -2.200   1.965   0.859  0.00  0.00    +0.176 HD
BRANCH  11  13
ATOM     13  C   LIG    1       -0.302   2.154   1.791  0.00  0.00    +0.147 C 
ATOM     14  S   LIG    1       -0.338   0.559   2.414  0.00  0.00    -0.017 S 
BRANCH  13  15
ATOM     15  N   LIG    1        0.761   2.947   2.030  0.00  0.00    -0.339 N 
ATOM     16  H   LIG    1        0.786   3.969   1.626  0.00  0.00    +0.144 HD
ATOM     17  H   LIG    1        1.604   2.571   2.629  0.00  0.00    +0.144 HD
ENDBRANCH  13  15
ENDBRANCH  11  13
ENDBRANCH   3  11
TORSDOF 4
