REMARK  Name = ZINC05383556
REMARK                            x       y       z     vdW  Elec       q    Type
REMARK                         _______ _______ _______ _____ _____    ______ ____
ROOT
ATOM      1  C   LIG    1        1.553  -3.792  -2.673  0.00  0.00    -0.030 A 
ATOM      2  C   LIG    1        2.602  -4.472  -2.083  0.00  0.00    +0.007 A 
ATOM      3  C   LIG    1        2.620  -5.854  -2.091  0.00  0.00    +0.029 A 
ATOM      4  C   LIG    1        1.590  -6.556  -2.688  0.00  0.00    +0.105 A 
ATOM      5  C   LIG    1        0.541  -5.876  -3.277  0.00  0.00    +0.029 A 
ATOM      6  C   LIG    1        0.520  -4.494  -3.266  0.00  0.00    +0.007 A 
ENDROOT
BRANCH   4   7
ATOM      7  S   LIG    1        1.614  -8.318  -2.699  0.00  0.00    +0.056 S 
ATOM      8  O   LIG    1        2.975  -8.706  -2.563  0.00  0.00    -0.153 OA
ATOM      9  O   LIG    1        0.811  -8.728  -3.796  0.00  0.00    -0.153 OA
BRANCH   7  10
ATOM     10  N   LIG    1        0.838  -8.826  -1.327  0.00  0.00    -0.204 NA
ATOM     11  H   LIG    1        0.745  -9.775  -1.146  0.00  0.00    +0.144 HD
ATOM     12  H   LIG    1        0.476  -8.176  -0.705  0.00  0.00    +0.144 HD
ENDBRANCH   7  10
ENDBRANCH   4   7
BRANCH   1  13
ATOM     13  C   LIG    1        1.532  -2.285  -2.665  0.00  0.00    +0.139 C 
BRANCH  13  15
ATOM     14  C   LIG    1        0.707  -0.490  -1.238  0.00  0.00    +0.219 C 
ATOM     15  N   LIG    1        0.847  -1.812  -1.460  0.00  0.00    -0.311 N 
ATOM     16  H   LIG    1        0.493  -2.451  -0.821  0.00  0.00    +0.149 HD
ATOM     17  O   LIG    1        1.150   0.308  -2.036  0.00  0.00    -0.275 OA
BRANCH  14  19
ATOM     18  C   LIG    1       -0.019   1.526   0.010  0.00  0.00    +0.020 C 
ATOM     19  C   LIG    1        0.002  -0.004   0.002  0.00  0.00    +0.039 C 
ATOM     20  C   LIG    1       -1.433  -0.534   0.013  0.00  0.00    +0.020 C 
ATOM     21  C   LIG    1        0.742  -0.511   1.242  0.00  0.00    +0.020 C 
ENDBRANCH  14  19
ENDBRANCH  13  15
ENDBRANCH   1  13
TORSDOF 5
