REMARK  Name = ZINC05161581
REMARK                            x       y       z     vdW  Elec       q    Type
REMARK                         _______ _______ _______ _____ _____    ______ ____
ROOT
ATOM      1  C   LIG    1        3.562   0.699  -0.064  0.00  0.00    +0.149 C 
ATOM      2  N   LIG    1        2.098   0.726  -0.029  0.00  0.00    -0.349 N 
ATOM      3  C   LIG    1        1.291  -0.379  -0.036  0.00  0.00    +0.090 A 
ATOM      4  C   LIG    1        0.002  -0.004   0.002  0.00  0.00    -0.024 A 
ATOM      5  C   LIG    1       -0.017   1.460   0.036  0.00  0.00    +0.010 A 
ATOM      6  C   LIG    1       -1.043   2.412   0.077  0.00  0.00    +0.004 A 
ATOM      7  C   LIG    1       -2.475   1.942   0.091  0.00  0.00    +0.043 C 
ATOM      8  C   LIG    1       -3.387   3.070   0.579  0.00  0.00    +0.046 C 
ATOM      9  C   LIG    1       -3.020   4.348  -0.187  0.00  0.00    +0.229 C 
ATOM     10  O   LIG    1       -1.685   4.714   0.162  0.00  0.00    -0.492 OA
ATOM     11  C   LIG    1       -0.725   3.752   0.109  0.00  0.00    +0.124 A 
ATOM     12  C   LIG    1        0.613   4.152   0.087  0.00  0.00    +0.048 A 
ATOM     13  C   LIG    1        1.628   3.226   0.039  0.00  0.00    +0.030 A 
ATOM     14  C   LIG    1        1.327   1.869   0.015  0.00  0.00    +0.050 A 
ENDROOT
BRANCH   4  15
ATOM     15  C   LIG    1       -1.197  -0.917   0.008  0.00  0.00    +0.018 C 
BRANCH  15  16
ATOM     16  C   LIG    1       -1.768  -1.018  -1.408  0.00  0.00    -0.082 C 
BRANCH  16  17
ATOM     17  N   LIG    1       -2.925  -1.930  -1.395  0.00  0.00    +0.378 N 
ATOM     18  H   LIG    1       -2.616  -2.864  -1.101  0.00  0.00    -0.090 HD
ATOM     19  H   LIG    1       -3.332  -1.992  -2.327  0.00  0.00    -0.090 HD
ATOM     20  H   LIG    1       -3.629  -1.591  -0.740  0.00  0.00    -0.090 HD
ENDBRANCH  16  17
ENDBRANCH  15  16
ENDBRANCH   4  15
TORSDOF 3
