REMARK  Name = ZINC05764214
REMARK                            x       y       z     vdW  Elec       q    Type
REMARK                         _______ _______ _______ _____ _____    ______ ____
ROOT
ATOM      1  C   LIG    1       -1.878   5.095  -0.525  0.00  0.00    +0.000 A 
ATOM      2  C   LIG    1       -0.790   5.805  -1.001  0.00  0.00    +0.001 A 
ATOM      3  C   LIG    1        0.301   5.136  -1.518  0.00  0.00    +0.009 A 
ATOM      4  C   LIG    1        0.305   3.743  -1.559  0.00  0.00    -0.015 A 
ATOM      5  C   LIG    1       -0.793   3.033  -1.078  0.00  0.00    -0.057 A 
ATOM      6  C   LIG    1       -1.881   3.713  -0.569  0.00  0.00    +0.002 A 
ENDROOT
BRANCH   4   7
ATOM      7  C   LIG    1        1.476   3.018  -2.113  0.00  0.00    +0.001 A 
ATOM      8  C   LIG    1        2.711   3.093  -1.473  0.00  0.00    +0.010 A 
ATOM      9  C   LIG    1        3.796   2.417  -1.993  0.00  0.00    +0.001 A 
ATOM     10  C   LIG    1        3.660   1.666  -3.146  0.00  0.00    +0.001 A 
ATOM     11  C   LIG    1        2.437   1.587  -3.786  0.00  0.00    +0.020 A 
ATOM     12  C   LIG    1        1.342   2.255  -3.272  0.00  0.00    +0.049 A 
ATOM     13 CL   LIG    1       -0.196   2.150  -4.072  0.00  0.00    -0.083 Cl
ENDBRANCH   4   7
BRANCH   5  14
ATOM     14  C   LIG    1       -0.795   1.527  -1.120  0.00  0.00    -0.050 C 
BRANCH  14  15
ATOM     15  N   LIG    1       -0.025   1.014   0.027  0.00  0.00    +0.381 N 
ATOM     16  H   LIG    1       -0.476   1.316   0.899  0.00  0.00    -0.090 HD
ATOM     17  H   LIG    1        0.925   1.379   0.001  0.00  0.00    -0.090 HD
ATOM     18  H   LIG    1        0.002  -0.004   0.002  0.00  0.00    -0.090 HD
ENDBRANCH  14  15
ENDBRANCH   5  14
TORSDOF 3
