REMARK  Name = ZINC05557530
REMARK                            x       y       z     vdW  Elec       q    Type
REMARK                         _______ _______ _______ _____ _____    ______ ____
ROOT
ATOM      1  C   LIG    1        0.914  -2.110  -0.018  0.00  0.00    -0.010 A 
ATOM      2  C   LIG    1       -0.422  -2.217  -0.007  0.00  0.00    +0.028 A 
ATOM      3  C   LIG    1       -1.186  -3.516  -0.008  0.00  0.00    +0.064 C 
ATOM      4  N   LIG    1       -0.991  -0.967   0.007  0.00  0.00    -0.280 N 
ATOM      5  C   LIG    1       -2.316  -0.717   0.021  0.00  0.00    +0.263 C 
ATOM      6  O   LIG    1       -2.920  -0.701   1.076  0.00  0.00    -0.267 OA
ATOM      7  C   LIG    1        0.002  -0.002   0.004  0.00  0.00    +0.057 A 
ATOM      8  C   LIG    1       -0.018   1.387   0.014  0.00  0.00    +0.030 A 
ATOM      9  C   LIG    1        1.165   2.093   0.008  0.00  0.00    +0.048 A 
ATOM     10  C   LIG    1        2.387   1.427  -0.010  0.00  0.00    +0.121 A 
ATOM     11  C   LIG    1        2.426   0.046  -0.019  0.00  0.00    +0.056 A 
ATOM     12  C   LIG    1        1.234  -0.678  -0.012  0.00  0.00    +0.008 A 
ENDROOT
BRANCH   5  13
ATOM     13  C   LIG    1       -3.033  -0.464  -1.244  0.00  0.00    +0.040 A 
ATOM     14  C   LIG    1       -2.364  -0.580  -2.465  0.00  0.00    +0.015 A 
ATOM     15  C   LIG    1       -3.041  -0.347  -3.643  0.00  0.00    +0.021 A 
ATOM     16  C   LIG    1       -4.379   0.013  -3.618  0.00  0.00    +0.041 A 
ATOM     17 CL   LIG    1       -5.222   0.311  -5.106  0.00  0.00    -0.084 Cl
ATOM     18  C   LIG    1       -5.046   0.135  -2.410  0.00  0.00    +0.021 A 
ATOM     19  C   LIG    1       -4.382  -0.101  -1.225  0.00  0.00    +0.015 A 
ENDBRANCH   5  13
BRANCH  10  20
ATOM     20  O   LIG    1        3.546   2.138  -0.017  0.00  0.00    -0.495 OA
ATOM     21  C   LIG    1        3.433   3.562  -0.006  0.00  0.00    +0.277 C 
ENDBRANCH  10  20
BRANCH   1  22
ATOM     22  C   LIG    1        1.902  -3.248  -0.035  0.00  0.00    +0.133 C 
BRANCH  22  25
ATOM     23  N   LIG    1        3.086  -4.616  -1.722  0.00  0.00    -0.312 N 
ATOM     24  H   LIG    1        3.506  -5.097  -0.991  0.00  0.00    +0.149 HD
ATOM     25  C   LIG    1        2.219  -3.618  -1.461  0.00  0.00    +0.218 C 
ATOM     26  O   LIG    1        1.694  -3.017  -2.374  0.00  0.00    -0.275 OA
BRANCH  23  27
ATOM     27  C   LIG    1        3.393  -4.976  -3.108  0.00  0.00    +0.070 C 
ATOM     28  C   LIG    1        2.338  -5.954  -3.627  0.00  0.00    +0.028 C 
BRANCH  27  30
ATOM     29  C   LIG    1        5.843  -4.616  -2.769  0.00  0.00    +0.005 C 
ATOM     30  C   LIG    1        4.773  -5.634  -3.170  0.00  0.00    +0.018 C 
ENDBRANCH  27  30
ENDBRANCH  23  27
ENDBRANCH  22  25
ENDBRANCH   1  22
TORSDOF 6
