REMARK  Name = ZINC05033987
REMARK                            x       y       z     vdW  Elec       q    Type
REMARK                         _______ _______ _______ _____ _____    ______ ____
ROOT
ATOM      1  N   LIG    1        2.266   5.627   0.010  0.00  0.00    -0.201 N 
ATOM      2  H   LIG    1        1.420   6.102   0.020  0.00  0.00    +0.178 HD
ATOM      3  C   LIG    1        3.425   6.315   0.002  0.00  0.00    +0.281 C 
ATOM      4  O   LIG    1        4.486   5.719  -0.011  0.00  0.00    -0.267 OA
ENDROOT
BRANCH   3   5
ATOM      5  C   LIG    1        3.408   7.786   0.010  0.00  0.00    +0.122 A 
ATOM      6  C   LIG    1        4.505   8.627   0.004  0.00  0.00    +0.062 A 
ATOM      7  C   LIG    1        3.974   9.929   0.015  0.00  0.00    +0.093 A 
ATOM      8  N   LIG    1        2.662   9.824   0.026  0.00  0.00    -0.173 NA
ATOM      9  N   LIG    1        2.303   8.591   0.018  0.00  0.00    -0.272 N 
ATOM     10  H   LIG    1        1.357   8.268   0.019  0.00  0.00    +0.189 HD
BRANCH   7  11
ATOM     11  C   LIG    1        4.752  11.193   0.013  0.00  0.00    +0.002 A 
ATOM     12  C   LIG    1        6.145  11.155   0.006  0.00  0.00    +0.013 A 
ATOM     13  C   LIG    1        6.866  12.332  -0.001  0.00  0.00    +0.046 A 
ATOM     14  C   LIG    1        6.205  13.552   0.010  0.00  0.00    +0.120 A 
ATOM     15  C   LIG    1        4.817  13.593   0.024  0.00  0.00    +0.046 A 
ATOM     16  C   LIG    1        4.091  12.420   0.025  0.00  0.00    +0.013 A 
BRANCH  14  17
ATOM     17  O   LIG    1        6.917  14.709   0.009  0.00  0.00    -0.495 OA
ATOM     18  C   LIG    1        8.341  14.594  -0.005  0.00  0.00    +0.277 C 
ENDBRANCH  14  17
ENDBRANCH   7  11
ENDBRANCH   3   5
BRANCH   1  21
ATOM     19  C   LIG    1       -0.147   4.301   0.026  0.00  0.00    +0.068 C 
ATOM     20  C   LIG    1        1.166   3.563   0.010  0.00  0.00    +0.063 C 
ATOM     21  N   LIG    1        2.283   4.226   0.003  0.00  0.00    -0.184 NA
BRANCH  20  22
ATOM     22  C   LIG    1        1.184   2.090   0.002  0.00  0.00    +0.001 A 
ATOM     23  C   LIG    1       -0.017   1.375   0.010  0.00  0.00    +0.013 A 
ATOM     24  C   LIG    1        0.002  -0.004   0.002  0.00  0.00    +0.050 A 
ATOM     25  C   LIG    1        1.211  -0.685  -0.014  0.00  0.00    +0.162 A 
ATOM     26  C   LIG    1        2.412   0.021  -0.022  0.00  0.00    +0.162 A 
ATOM     27  C   LIG    1        2.401   1.404  -0.014  0.00  0.00    +0.059 A 
BRANCH  25  28
ATOM     28  O   LIG    1        1.224  -2.044  -0.021  0.00  0.00    -0.491 OA
ATOM     29  C   LIG    1       -0.044  -2.705  -0.013  0.00  0.00    +0.277 C 
ENDBRANCH  25  28
BRANCH  26  30
ATOM     30  O   LIG    1        3.595  -0.649  -0.037  0.00  0.00    -0.491 OA
ATOM     31  C   LIG    1        4.787   0.138  -0.045  0.00  0.00    +0.277 C 
ENDBRANCH  26  30
ENDBRANCH  20  22
ENDBRANCH   1  21
TORSDOF 7
