REMARK  Name = ZINC05682794
REMARK                            x       y       z     vdW  Elec       q    Type
REMARK                         _______ _______ _______ _____ _____    ______ ____
ROOT
ATOM      1  C   LIG    1       -0.735   2.019   1.269  0.00  0.00    -0.071 C 
ATOM      2  N   LIG    1       -2.157   1.675   1.246  0.00  0.00    +0.383 N 
ATOM      3  H   LIG    1       -2.532   1.781   0.296  0.00  0.00    -0.085 HD
ATOM      4  H   LIG    1       -2.293   0.707   1.561  0.00  0.00    -0.085 HD
ATOM      5  C   LIG    1       -2.824   2.603   2.160  0.00  0.00    -0.071 C 
ATOM      6  C   LIG    1       -2.107   3.946   1.906  0.00  0.00    -0.017 C 
ATOM      7  C   LIG    1       -0.733   3.562   1.320  0.00  0.00    -0.017 C 
ENDROOT
BRANCH   1   8
ATOM      8  C   LIG    1       -0.019   1.526   0.010  0.00  0.00    -0.011 C 
BRANCH   8   9
ATOM      9  C   LIG    1        0.002  -0.004   0.002  0.00  0.00    +0.033 C 
BRANCH   9  13
ATOM     10  C   LIG    1        2.001  -1.383  -3.512  0.00  0.00    +0.000 A 
ATOM     11  C   LIG    1        2.720  -1.148  -2.355  0.00  0.00    +0.000 A 
ATOM     12  C   LIG    1        2.073  -0.702  -1.218  0.00  0.00    +0.003 A 
ATOM     13  C   LIG    1        0.707  -0.490  -1.238  0.00  0.00    -0.047 A 
ATOM     14  C   LIG    1       -0.012  -0.729  -2.394  0.00  0.00    +0.003 A 
ATOM     15  C   LIG    1        0.636  -1.170  -3.533  0.00  0.00    +0.000 A 
ENDBRANCH   9  13
ENDBRANCH   8   9
ENDBRANCH   1   8
BRANCH   5  16
ATOM     16  C   LIG    1       -4.316   2.726   1.843  0.00  0.00    -0.011 C 
BRANCH  16  17
ATOM     17  C   LIG    1       -5.012   1.396   2.141  0.00  0.00    +0.033 C 
BRANCH  17  18
ATOM     18  C   LIG    1       -6.481   1.517   1.828  0.00  0.00    -0.047 A 
ATOM     19  C   LIG    1       -7.364   1.927   2.809  0.00  0.00    +0.003 A 
ATOM     20  C   LIG    1       -8.711   2.043   2.521  0.00  0.00    +0.000 A 
ATOM     21  C   LIG    1       -9.177   1.739   1.256  0.00  0.00    +0.000 A 
ATOM     22  C   LIG    1       -8.294   1.323   0.277  0.00  0.00    +0.000 A 
ATOM     23  C   LIG    1       -6.946   1.212   0.563  0.00  0.00    +0.003 A 
ENDBRANCH  17  18
ENDBRANCH  16  17
ENDBRANCH   5  16
TORSDOF 6
