REMARK  Name = ZINC05117657
REMARK                            x       y       z     vdW  Elec       q    Type
REMARK                         _______ _______ _______ _____ _____    ______ ____
ROOT
ATOM      1  C   LIG    1       -0.013   1.076   0.008  0.00  0.00    +0.102 A 
ATOM      2  N   LIG    1        1.057   1.870   0.002  0.00  0.00    -0.343 N 
ATOM      3  H   LIG    1        2.033   1.551  -0.009  0.00  0.00    +0.167 HD
ATOM      4  C   LIG    1        0.665   3.130   0.013  0.00  0.00    +0.156 A 
ATOM      5  C   LIG    1        1.361   4.365   0.012  0.00  0.00    +0.163 A 
ATOM      6  N   LIG    1        0.681   5.494   0.024  0.00  0.00    -0.235 NA
ATOM      7  C   LIG    1       -0.656   5.499   0.037  0.00  0.00    +0.131 A 
ATOM      8  C   LIG    1       -1.361   4.351   0.038  0.00  0.00    +0.112 A 
ATOM      9  N   LIG    1       -0.707   3.147   0.026  0.00  0.00    -0.304 N 
ATOM     10  C   LIG    1       -1.123   1.852   0.017  0.00  0.00    +0.110 A 
ENDROOT
BRANCH   5  11
ATOM     11  N   LIG    1        2.747   4.385  -0.002  0.00  0.00    -0.316 N 
ATOM     12  C   LIG    1        3.273   3.636  -1.151  0.00  0.00    +0.087 C 
ATOM     13  C   LIG    1        4.802   3.614  -1.086  0.00  0.00    -0.063 C 
ATOM     14  N   LIG    1        5.315   4.997  -1.090  0.00  0.00    +0.381 N 
ATOM     15  H   LIG    1        6.340   4.979  -1.039  0.00  0.00    -0.086 HD
ATOM     16  H   LIG    1        5.024   5.464  -1.958  0.00  0.00    -0.086 HD
ATOM     17  C   LIG    1        4.783   5.743   0.066  0.00  0.00    -0.063 C 
ATOM     18  C   LIG    1        3.254   5.765   0.001  0.00  0.00    +0.087 C 
ENDBRANCH   5  11
TORSDOF 1
