REMARK  Name = ZINC05835069
REMARK                            x       y       z     vdW  Elec       q    Type
REMARK                         _______ _______ _______ _____ _____    ______ ____
ROOT
ATOM      1  C   LIG    1        2.714  -4.241  -0.047  0.00  0.00    +0.100 C 
ENDROOT
BRANCH   1   8
ATOM      2  C   LIG    1        3.344   1.074  -3.263  0.00  0.00    +0.001 A 
ATOM      3  C   LIG    1        2.160   0.931  -3.971  0.00  0.00    +0.004 A 
ATOM      4  C   LIG    1        1.348  -0.166  -3.771  0.00  0.00    +0.047 A 
ATOM      5  C   LIG    1        1.716  -1.141  -2.852  0.00  0.00    +0.143 A 
ATOM      6  C   LIG    1        2.914  -0.996  -2.137  0.00  0.00    +0.065 A 
ATOM      7  C   LIG    1        3.284  -2.045  -1.165  0.00  0.00    +0.200 A 
ATOM      8  C   LIG    1        2.400  -3.134  -1.020  0.00  0.00    +0.092 A 
ATOM      9  C   LIG    1        1.263  -3.179  -1.762  0.00  0.00    +0.292 A 
ATOM     10  O   LIG    1        4.314  -1.971  -0.514  0.00  0.00    -0.287 OA
ATOM     11  O   LIG    1        0.936  -2.223  -2.640  0.00  0.00    -0.425 OA
ATOM     12  C   LIG    1        3.725   0.118  -2.347  0.00  0.00    +0.015 A 
BRANCH   9  13
ATOM     13  O   LIG    1        0.430  -4.230  -1.609  0.00  0.00    -0.480 OA
ATOM     14  H   LIG    1        0.641  -4.910  -1.000  0.00  0.00    +0.295 HD
ENDBRANCH   9  13
ENDBRANCH   1   8
BRANCH   1  15
ATOM     15  C   LIG    1        2.105  -5.529  -0.537  0.00  0.00    +0.092 A 
ATOM     16  C   LIG    1        1.182  -6.230   0.267  0.00  0.00    +0.200 A 
ATOM     17  C   LIG    1        0.624  -7.485  -0.276  0.00  0.00    +0.065 A 
ATOM     18  C   LIG    1       -0.294  -8.244   0.447  0.00  0.00    +0.015 A 
ATOM     19  C   LIG    1       -0.791  -9.409  -0.096  0.00  0.00    +0.001 A 
ATOM     20  C   LIG    1       -0.380  -9.825  -1.354  0.00  0.00    +0.004 A 
ATOM     21  C   LIG    1        0.528  -9.082  -2.079  0.00  0.00    +0.047 A 
ATOM     22  C   LIG    1        1.040  -7.905  -1.549  0.00  0.00    +0.143 A 
ATOM     23  O   LIG    1        1.929  -7.162  -2.241  0.00  0.00    -0.425 OA
ATOM     24  O   LIG    1        0.858  -5.816   1.368  0.00  0.00    -0.287 OA
ATOM     25  C   LIG    1        2.437  -6.020  -1.760  0.00  0.00    +0.292 A 
BRANCH  25  26
ATOM     26  O   LIG    1        3.317  -5.332  -2.518  0.00  0.00    -0.480 OA
ATOM     27  H   LIG    1        3.683  -4.531  -2.199  0.00  0.00    +0.295 HD
ENDBRANCH  25  26
ENDBRANCH   1  15
BRANCH   1  28
ATOM     28  C   LIG    1        2.144  -3.899   1.305  0.00  0.00    -0.035 A 
ATOM     29  C   LIG    1        0.877  -3.354   1.402  0.00  0.00    +0.008 A 
ATOM     30  C   LIG    1        0.352  -3.039   2.640  0.00  0.00    +0.046 A 
ATOM     31  C   LIG    1        1.097  -3.270   3.788  0.00  0.00    +0.117 A 
ATOM     32  C   LIG    1        2.368  -3.817   3.688  0.00  0.00    +0.046 A 
ATOM     33  C   LIG    1        2.886  -4.135   2.448  0.00  0.00    +0.008 A 
BRANCH  31  34
ATOM     34  O   LIG    1        0.583  -2.960   5.007  0.00  0.00    -0.507 OA
ATOM     35  H   LIG    1        0.090  -3.682   5.420  0.00  0.00    +0.292 HD
ENDBRANCH  31  34
ENDBRANCH   1  28
TORSDOF 6
