REMARK  Name = ZINC05160067
REMARK                            x       y       z     vdW  Elec       q    Type
REMARK                         _______ _______ _______ _____ _____    ______ ____
ROOT
ATOM      1  C   LIG    1       -4.635   2.482  -1.240  0.00  0.00    +0.109 C 
ATOM      2  C   LIG    1       -4.013   2.018   0.052  0.00  0.00    +0.213 C 
ATOM      3  N   LIG    1       -2.824   1.384   0.037  0.00  0.00    -0.288 N 
ATOM      4  C   LIG    1       -2.180   1.028  -1.235  0.00  0.00    +0.109 C 
ATOM      5  C   LIG    1       -0.756   1.593  -1.242  0.00  0.00    +0.019 C 
ATOM      6  C   LIG    1       -0.010   1.099  -0.001  0.00  0.00    +0.004 C 
ATOM      7  C   LIG    1       -0.722   1.600   1.258  0.00  0.00    +0.036 C 
ATOM      8  C   LIG    1       -2.146   1.036   1.293  0.00  0.00    +0.151 C 
ATOM      9  O   LIG    1       -4.582   2.215   1.104  0.00  0.00    -0.276 OA
ENDROOT
BRANCH   8  10
ATOM     10  C   LIG    1       -2.881   1.616   2.429  0.00  0.00    -0.082 C 
ATOM     11  C   LIG    1       -3.468   2.078   3.334  0.00  0.00    -0.119 C 
BRANCH  11  12
ATOM     12  C   LIG    1       -4.204   2.658   4.469  0.00  0.00    +0.012 C 
BRANCH  12  13
ATOM     13  N   LIG    1       -3.510   2.314   5.747  0.00  0.00    +0.387 N 
ATOM     14  H   LIG    1       -3.604   1.307   5.920  0.00  0.00    -0.080 HD
ATOM     15  C   LIG    1       -4.090   3.064   6.862  0.00  0.00    -0.078 C 
ATOM     16  C   LIG    1       -2.932   3.350   7.835  0.00  0.00    -0.020 C 
ATOM     17  C   LIG    1       -1.680   2.740   7.163  0.00  0.00    -0.020 C 
ATOM     18  C   LIG    1       -2.086   2.675   5.669  0.00  0.00    -0.078 C 
ENDBRANCH  12  13
ENDBRANCH  11  12
ENDBRANCH   8  10
TORSDOF 3
