REMARK  Name = ZINC05382966
REMARK                            x       y       z     vdW  Elec       q    Type
REMARK                         _______ _______ _______ _____ _____    ______ ____
ROOT
ATOM      1  C   LIG    1       -1.152   1.968   0.024  0.00  0.00    -0.003 C 
ATOM      2  C   LIG    1       -1.005   3.302  -0.148  0.00  0.00    -0.019 C 
ATOM      3  C   LIG    1       -2.383   3.978  -0.122  0.00  0.00    +0.032 C 
ATOM      4  C   LIG    1       -3.136   2.967   0.757  0.00  0.00    +0.007 C 
ATOM      5  C   LIG    1       -4.619   3.055   0.898  0.00  0.00    +0.001 C 
ATOM      6  C   LIG    1       -5.396   3.223  -0.400  0.00  0.00    +0.031 C 
ATOM      7  C   LIG    1       -6.862   3.330  -0.061  0.00  0.00    -0.027 C 
ATOM      8  C   LIG    1       -7.378   2.698   0.945  0.00  0.00    -0.064 C 
ATOM      9  C   LIG    1       -6.588   1.881   1.933  0.00  0.00    -0.008 C 
ATOM     10  C   LIG    1       -7.199   0.476   1.973  0.00  0.00    +0.016 C 
ATOM     11  C   LIG    1       -6.802   2.502   3.323  0.00  0.00    +0.015 C 
ATOM     12  C   LIG    1       -7.805   3.648   3.235  0.00  0.00    +0.046 C 
ATOM     13  C   LIG    1       -9.121   3.205   2.604  0.00  0.00    +0.180 C 
ATOM     14  C   LIG    1       -8.883   2.757   1.157  0.00  0.00    +0.075 C 
ATOM     15  C   LIG    1       -5.112   1.788   1.625  0.00  0.00    +0.003 C 
ATOM     16  C   LIG    1       -4.663   0.525   0.918  0.00  0.00    +0.005 C 
ATOM     17  C   LIG    1       -3.121   0.473   0.819  0.00  0.00    +0.012 C 
ATOM     18  C   LIG    1       -2.633   1.680   0.070  0.00  0.00    -0.001 C 
ATOM     19  C   LIG    1       -3.057   1.567  -1.395  0.00  0.00    +0.016 C 
ENDROOT
BRANCH   1  21
ATOM     20  C   LIG    1        1.352   1.416   0.119  0.00  0.00    +0.091 C 
ATOM     21  C   LIG    1       -0.089   0.976   0.102  0.00  0.00    +0.156 C 
ATOM     22  O   LIG    1       -0.364  -0.204   0.159  0.00  0.00    -0.293 OA
ENDBRANCH   1  21
BRANCH  13  23
ATOM     23  O   LIG    1       -9.691   2.111   3.368  0.00  0.00    -0.461 OA
BRANCH  23  24
ATOM     24  C   LIG    1      -11.030   2.018   3.394  0.00  0.00    +0.304 C 
ATOM     25  C   LIG    1      -11.694   0.908   4.167  0.00  0.00    +0.136 C 
ATOM     26  O   LIG    1      -11.703   2.825   2.798  0.00  0.00    -0.251 OA
ENDBRANCH  23  24
ENDBRANCH  13  23
TORSDOF 3
