REMARK  Name = ZINC04899730
REMARK                            x       y       z     vdW  Elec       q    Type
REMARK                         _______ _______ _______ _____ _____    ______ ____
ROOT
ATOM      1  C   ALA A  1       -1.756   0.800  -2.748  0.00  0.00    +0.201 C 
ATOM      2  N   PRO A  2       -1.553   0.905  -1.420  0.00  0.00    -0.291 N 
ATOM      3  CD  PRO A  2       -0.745  -0.011  -0.602  0.00  0.00    +0.108 C 
ATOM      4  CG  PRO A  2       -0.773   0.518   0.848  0.00  0.00    +0.021 C 
ATOM      5  CB  PRO A  2       -1.135   2.017   0.661  0.00  0.00    +0.033 C 
ATOM      6  CA  PRO A  2       -2.103   1.958  -0.547  0.00  0.00    +0.162 C 
ATOM      7  O   ALA A  1       -2.493   1.581  -3.313  0.00  0.00    -0.277 OA
ENDROOT
BRANCH   6   8
ATOM      8  C   PRO A  2       -2.122   3.281  -1.269  0.00  0.00    +0.234 C 
ATOM      9  N   ALA A  3       -3.049   4.207  -0.953  0.00  0.00    -0.301 N 
ATOM     10  H   ALA A  3       -3.703   4.023  -0.261  0.00  0.00    +0.150 HD
ATOM     11  O   PRO A  2       -1.305   3.511  -2.135  0.00  0.00    -0.274 OA
BRANCH   9  12
ATOM     12  CA  ALA A  3       -3.067   5.493  -1.655  0.00  0.00    +0.179 C 
ATOM     13  CB  ALA A  3       -3.863   5.353  -2.954  0.00  0.00    +0.040 C 
BRANCH  12  14
ATOM     14  C   ALA A  3       -3.715   6.534  -0.779  0.00  0.00    +0.325 C 
ATOM     15  O   ALA A  3       -4.119   6.233   0.319  0.00  0.00    -0.249 OA
BRANCH  14  16
ATOM     16  OXT ALA A  3       -3.842   7.796  -1.218  0.00  0.00    -0.479 OA
ATOM     17  HXT ALA A  3       -3.529   8.030  -2.070  0.00  0.00    +0.295 HD
ENDBRANCH  14  16
ENDBRANCH  12  14
ENDBRANCH   9  12
ENDBRANCH   6   8
BRANCH   1  19
ATOM     18  CB  ALA A  1        0.438  -0.024  -3.558  0.00  0.00    -0.005 C 
ATOM     19  CA  ALA A  1       -1.069  -0.288  -3.532  0.00  0.00    +0.010 C 
BRANCH  19  20
ATOM     20  N   ALA A  1       -1.611  -0.309  -4.902  0.00  0.00    +0.385 N 
ATOM     21  H1  ALA A  1       -2.615  -0.521  -4.864  0.00  0.00    -0.089 HD
ATOM     22  H2  ALA A  1       -1.141  -1.026  -5.453  0.00  0.00    -0.089 HD
ATOM     23  H3  ALA A  1       -1.479   0.599  -5.344  0.00  0.00    -0.089 HD
ENDBRANCH  19  20
ENDBRANCH   1  19
TORSDOF 6
