REMARK  Name = ZINC05424735
REMARK                            x       y       z     vdW  Elec       q    Type
REMARK                         _______ _______ _______ _____ _____    ______ ____
ROOT
ATOM      1  C   LIG    1        2.175  -0.792   1.133  0.00  0.00    +0.000 A 
ATOM      2  C   LIG    1        2.846  -0.594  -0.087  0.00  0.00    +0.012 A 
ATOM      3  C   LIG    1        4.174  -0.848  -0.213  0.00  0.00    +0.028 A 
ATOM      4  C   LIG    1        4.905  -1.320   0.889  0.00  0.00    +0.064 A 
ATOM      5  N   LIG    1        6.177  -1.659   1.102  0.00  0.00    -0.338 N 
ATOM      6  H   LIG    1        6.888  -1.628   0.443  0.00  0.00    +0.167 HD
ATOM      7  C   LIG    1        6.309  -2.046   2.369  0.00  0.00    +0.135 A 
ATOM      8  N   LIG    1        5.147  -1.975   3.015  0.00  0.00    -0.338 N 
ATOM      9  H   LIG    1        5.002  -2.206   3.945  0.00  0.00    +0.167 HD
ATOM     10  C   LIG    1        7.573  -2.495   2.975  0.00  0.00    +0.097 A 
ATOM     11  C   LIG    1        7.752  -2.913   4.295  0.00  0.00    +0.049 A 
ATOM     12  C   LIG    1        9.063  -3.246   4.462  0.00  0.00    +0.103 A 
ATOM     13  N   LIG    1        9.713  -3.048   3.288  0.00  0.00    -0.307 N 
ATOM     14  H   LIG    1       10.656  -3.206   3.126  0.00  0.00    +0.186 HD
ATOM     15  N   LIG    1        8.784  -2.582   2.348  0.00  0.00    -0.297 N 
ATOM     16  H   LIG    1        8.967  -2.360   1.421  0.00  0.00    +0.187 HD
ATOM     17  C   LIG    1        4.216  -1.531   2.167  0.00  0.00    +0.065 A 
ATOM     18  C   LIG    1        2.848  -1.251   2.255  0.00  0.00    +0.037 A 
ENDROOT
BRANCH   1  27
ATOM     19  C   LIG    1       -0.019   1.526   0.010  0.00  0.00    +0.014 C 
ATOM     20  C   LIG    1        0.002  -0.004   0.002  0.00  0.00    +0.046 C 
ATOM     21  C   LIG    1       -1.434  -0.533   0.011  0.00  0.00    +0.107 C 
ATOM     22  C   LIG    1       -2.031  -0.320   1.380  0.00  0.00    +0.233 C 
ATOM     23  N   LIG    1       -1.253  -0.443   2.472  0.00  0.00    -0.207 N 
ATOM     24  H   LIG    1       -1.648  -0.367   3.355  0.00  0.00    +0.177 HD
ATOM     25  N   LIG    1        0.118  -0.679   2.344  0.00  0.00    -0.184 NA
ATOM     26  O   LIG    1       -3.206  -0.040   1.496  0.00  0.00    -0.274 OA
ATOM     27  C   LIG    1        0.732  -0.502   1.221  0.00  0.00    +0.070 C 
ENDBRANCH   1  27
TORSDOF 1
