REMARK  Name = ZINC04978441
REMARK                            x       y       z     vdW  Elec       q    Type
REMARK                         _______ _______ _______ _____ _____    ______ ____
ROOT
ATOM      1  C   LIG    1       -1.295  -4.087  -4.396  0.00  0.00    +0.000 C 
ATOM      2  C   LIG    1       -0.722  -3.374  -5.447  0.00  0.00    +0.002 C 
ATOM      3  C   LIG    1       -0.138  -2.162  -5.237  0.00  0.00    +0.019 C 
ATOM      4  C   LIG    1       -0.111  -1.616  -3.942  0.00  0.00    +0.058 C 
ATOM      5  N   LIG    1        0.482  -0.385  -3.769  0.00  0.00    -0.310 NA
ATOM      6  H   LIG    1        0.900   0.130  -4.552  0.00  0.00    +0.122 HD
ATOM      7  C   LIG    1        0.483   0.112  -2.495  0.00  0.00    +0.058 C 
ATOM      8  C   LIG    1        1.093   1.488  -2.389  0.00  0.00    +0.019 C 
ATOM      9  C   LIG    1        2.130   1.543  -1.265  0.00  0.00    +0.002 C 
ATOM     10  C   LIG    1        1.426   2.027  -0.001  0.00  0.00    +0.000 C 
ATOM     11  C   LIG    1       -0.019   1.524   0.010  0.00  0.00    +0.000 C 
ATOM     12  C   LIG    1        0.002  -0.004   0.002  0.00  0.00    +0.006 C 
ATOM     13  C   LIG    1       -0.041  -0.549  -1.404  0.00  0.00    +0.023 C 
ATOM     14  C   LIG    1       -0.646  -1.793  -1.578  0.00  0.00    +0.060 C 
ATOM     15  C   LIG    1       -0.690  -2.345  -2.876  0.00  0.00    +0.023 C 
ATOM     16  C   LIG    1       -1.285  -3.589  -3.128  0.00  0.00    +0.006 C 
ENDROOT
BRANCH  14  17
ATOM     17  N   LIG    1       -1.193  -2.471  -0.500  0.00  0.00    -0.327 NA
ATOM     18  H   LIG    1       -1.612  -3.336  -0.633  0.00  0.00    +0.118 HD
ATOM     19  H   LIG    1       -1.158  -2.081   0.388  0.00  0.00    +0.118 HD
ENDBRANCH  14  17
TORSDOF 1
