REMARK  Name = ZINC05834731
REMARK                            x       y       z     vdW  Elec       q    Type
REMARK                         _______ _______ _______ _____ _____    ______ ____
ROOT
ATOM      1  C   LIG    1        1.180   1.784   0.000  0.00  0.00    +0.131 A 
ATOM      2  C   LIG    1       -0.013   1.076   0.008  0.00  0.00    +0.050 A 
ATOM      3  C   LIG    1       -1.218   1.748   0.017  0.00  0.00    +0.049 A 
ATOM      4  C   LIG    1       -1.249   3.138   0.031  0.00  0.00    +0.118 A 
ATOM      5  C   LIG    1       -0.071   3.859   0.024  0.00  0.00    +0.060 A 
ATOM      6  C   LIG    1        1.157   3.187   0.008  0.00  0.00    +0.062 A 
ENDROOT
BRANCH   4   7
ATOM      7  O   LIG    1       -2.442   3.789   0.045  0.00  0.00    -0.507 OA
ATOM      8  H   LIG    1       -2.796   3.982  -0.834  0.00  0.00    +0.292 HD
ENDBRANCH   4   7
BRANCH   6   9
ATOM      9  C   LIG    1        2.414   3.946   0.001  0.00  0.00    +0.167 C 
ATOM     10  O   LIG    1        3.476   3.360  -0.012  0.00  0.00    -0.292 OA
BRANCH   9  11
ATOM     11  C   LIG    1        2.385   5.453   0.009  0.00  0.00    +0.084 C 
BRANCH  11  12
ATOM     12  C   LIG    1        3.817   5.991  -0.001  0.00  0.00    +0.043 C 
BRANCH  12  13
ATOM     13  C   LIG    1        3.787   7.497   0.007  0.00  0.00    -0.047 A 
ATOM     14  C   LIG    1        3.769   8.195  -1.186  0.00  0.00    +0.003 A 
ATOM     15  C   LIG    1        3.736   9.577  -1.178  0.00  0.00    +0.000 A 
ATOM     16  C   LIG    1        3.734  10.262   0.022  0.00  0.00    +0.000 A 
ATOM     17  C   LIG    1        3.758   9.564   1.216  0.00  0.00    +0.000 A 
ATOM     18  C   LIG    1        3.785   8.182   1.208  0.00  0.00    +0.003 A 
ENDBRANCH  12  13
ENDBRANCH  11  12
ENDBRANCH   9  11
ENDBRANCH   6   9
BRANCH   1  19
ATOM     19  O   LIG    1        2.364   1.122  -0.014  0.00  0.00    -0.489 OA
BRANCH  19  20
ATOM     20  C   LIG    1        2.309  -0.306  -0.021  0.00  0.00    +0.258 C 
BRANCH  20  21
ATOM     21  C   LIG    1        3.731  -0.871  -0.037  0.00  0.00    +0.135 C 
BRANCH  21  22
ATOM     22  O   LIG    1        4.396  -0.524   1.180  0.00  0.00    -0.390 OA
ATOM     23  H   LIG    1        3.963  -0.863   1.975  0.00  0.00    +0.210 HD
ENDBRANCH  21  22
BRANCH  21  24
ATOM     24  C   LIG    1        3.674  -2.394  -0.170  0.00  0.00    -0.048 C 
BRANCH  24  25
ATOM     25  N   LIG    1        5.048  -2.930  -0.184  0.00  0.00    +0.381 N 
ATOM     26  H   LIG    1        5.521  -2.674   0.690  0.00  0.00    -0.086 HD
ATOM     27  H   LIG    1        5.559  -2.530  -0.980  0.00  0.00    -0.086 HD
BRANCH  25  28
ATOM     28  C   LIG    1        5.022  -4.400  -0.312  0.00  0.00    -0.083 C 
BRANCH  28  30
ATOM     29  C   LIG    1        6.442  -6.451  -0.457  0.00  0.00    +0.002 C 
ATOM     30  C   LIG    1        6.459  -4.926  -0.325  0.00  0.00    -0.022 C 
ENDBRANCH  28  30
ENDBRANCH  25  28
ENDBRANCH  24  25
ENDBRANCH  21  24
ENDBRANCH  20  21
ENDBRANCH  19  20
ENDBRANCH   1  19
TORSDOF 13
