REMARK  Name = ZINC05785242
REMARK                            x       y       z     vdW  Elec       q    Type
REMARK                         _______ _______ _______ _____ _____    ______ ____
ROOT
ATOM      1  N   LIG    1        3.334   1.909  -0.172  0.00  0.00    -0.073 NA
ATOM      2  C   LIG    1        3.736   3.028  -0.727  0.00  0.00    +0.394 C 
ENDROOT
BRANCH   1   5
ATOM      3  C   LIG    1       -0.117   1.210  -1.148  0.00  0.00    +0.006 A 
ATOM      4  C   LIG    1        0.984   1.874  -0.648  0.00  0.00    +0.046 A 
ATOM      5  C   LIG    1        2.236   1.256  -0.667  0.00  0.00    +0.144 A 
ATOM      6  C   LIG    1        2.364  -0.031  -1.194  0.00  0.00    +0.078 A 
ATOM      7  C   LIG    1        1.254  -0.683  -1.691  0.00  0.00    +0.125 A 
ATOM      8  C   LIG    1        0.017  -0.064  -1.668  0.00  0.00    +0.033 A 
BRANCH   7   9
ATOM      9  N   LIG    1        1.388  -2.047  -2.250  0.00  0.00    +0.006 N 
ATOM     10  O   LIG    1        2.469  -2.589  -2.270  0.00  0.00    -0.130 OA
BRANCH   9  11
ATOM     11  O   LIG    1        0.417  -2.620  -2.686  0.00  0.00    -0.396 OA
ATOM     12  H   LIG    1       -0.421  -2.200  -2.670  0.00  0.00    +0.329 HD
ENDBRANCH   9  11
ENDBRANCH   7   9
ENDBRANCH   1   5
BRANCH   2  13
ATOM     13  N   LIG    1        4.749   3.753  -0.151  0.00  0.00    -0.288 N 
ATOM     14  H   LIG    1        4.929   4.658  -0.451  0.00  0.00    +0.255 HD
ATOM     15  H   LIG    1        5.284   3.362   0.557  0.00  0.00    +0.255 HD
ENDBRANCH   2  13
BRANCH   2  16
ATOM     16  N   LIG    1        3.143   3.475  -1.886  0.00  0.00    -0.186 N 
ATOM     17  H   LIG    1        2.226   3.229  -2.087  0.00  0.00    +0.271 HD
BRANCH  16  18
ATOM     18  C   LIG    1        3.852   4.271  -2.761  0.00  0.00    +0.385 C 
ATOM     19  N   LIG    1        5.117   4.498  -2.555  0.00  0.00    -0.129 NA
ATOM     20  H   LIG    1        5.581   4.043  -1.835  0.00  0.00    +0.306 HD
BRANCH  18  21
ATOM     21  N   LIG    1        3.222   4.824  -3.851  0.00  0.00    -0.289 N 
ATOM     22  H   LIG    1        3.721   5.384  -4.466  0.00  0.00    +0.255 HD
ATOM     23  H   LIG    1        2.279   4.654  -4.004  0.00  0.00    +0.255 HD
ENDBRANCH  18  21
ENDBRANCH  16  18
ENDBRANCH   2  16
TORSDOF 7
