REMARK  Name = ZINC05618522
REMARK                            x       y       z     vdW  Elec       q    Type
REMARK                         _______ _______ _______ _____ _____    ______ ____
ROOT
ATOM      1  C   LIG    1        2.628  -4.245  -0.046  0.00  0.00    +0.100 C 
ENDROOT
BRANCH   1   8
ATOM      2  C   LIG    1       -2.598  -0.921  -0.496  0.00  0.00    +0.001 A 
ATOM      3  C   LIG    1       -2.110  -0.015  -1.426  0.00  0.00    +0.004 A 
ATOM      4  C   LIG    1       -0.816  -0.114  -1.892  0.00  0.00    +0.047 A 
ATOM      5  C   LIG    1        0.012  -1.129  -1.431  0.00  0.00    +0.143 A 
ATOM      6  C   LIG    1       -0.481  -2.047  -0.490  0.00  0.00    +0.059 A 
ATOM      7  C   LIG    1        0.406  -3.118  -0.009  0.00  0.00    +0.138 A 
ATOM      8  C   LIG    1        1.679  -3.168  -0.505  0.00  0.00    +0.091 A 
ATOM      9  C   LIG    1        2.099  -2.214  -1.444  0.00  0.00    +0.345 A 
ATOM     10  O   LIG    1        3.236  -2.270  -1.879  0.00  0.00    -0.245 OA
ATOM     11  O   LIG    1        1.282  -1.240  -1.878  0.00  0.00    -0.422 OA
ATOM     12  C   LIG    1       -1.793  -1.935  -0.026  0.00  0.00    +0.015 A 
BRANCH   7  13
ATOM     13  O   LIG    1       -0.025  -4.025   0.897  0.00  0.00    -0.506 OA
ATOM     14  H   LIG    1       -0.900  -3.977   1.228  0.00  0.00    +0.292 HD
ENDBRANCH   7  13
ENDBRANCH   1   8
BRANCH   1  15
ATOM     15  C   LIG    1        3.545  -3.688   1.013  0.00  0.00    +0.091 A 
ATOM     16  C   LIG    1        3.447  -2.375   1.384  0.00  0.00    +0.138 A 
ATOM     17  C   LIG    1        4.365  -1.881   2.422  0.00  0.00    +0.059 A 
ATOM     18  C   LIG    1        4.321  -0.552   2.850  0.00  0.00    +0.015 A 
ATOM     19  C   LIG    1        5.194  -0.121   3.824  0.00  0.00    +0.001 A 
ATOM     20  C   LIG    1        6.113  -1.000   4.379  0.00  0.00    +0.004 A 
ATOM     21  C   LIG    1        6.167  -2.314   3.966  0.00  0.00    +0.047 A 
ATOM     22  C   LIG    1        5.296  -2.769   2.985  0.00  0.00    +0.143 A 
ATOM     23  O   LIG    1        5.335  -4.054   2.570  0.00  0.00    -0.422 OA
ATOM     24  C   LIG    1        4.498  -4.516   1.627  0.00  0.00    +0.345 A 
ATOM     25  O   LIG    1        4.571  -5.685   1.291  0.00  0.00    -0.245 OA
BRANCH  16  26
ATOM     26  O   LIG    1        2.535  -1.556   0.814  0.00  0.00    -0.506 OA
ATOM     27  H   LIG    1        2.555  -0.650   1.151  0.00  0.00    +0.292 HD
ENDBRANCH  16  26
ENDBRANCH   1  15
BRANCH   1  28
ATOM     28  C   LIG    1        3.447  -4.726  -1.216  0.00  0.00    -0.035 A 
ATOM     29  C   LIG    1        4.785  -4.391  -1.308  0.00  0.00    +0.006 A 
ATOM     30  C   LIG    1        5.536  -4.832  -2.381  0.00  0.00    +0.020 A 
ATOM     31  C   LIG    1        4.949  -5.610  -3.363  0.00  0.00    +0.041 A 
ATOM     32 CL   LIG    1        5.892  -6.164  -4.711  0.00  0.00    -0.084 Cl
ATOM     33  C   LIG    1        3.610  -5.945  -3.270  0.00  0.00    +0.020 A 
ATOM     34  C   LIG    1        2.861  -5.508  -2.194  0.00  0.00    +0.006 A 
ENDBRANCH   1  28
TORSDOF 5
