REMARK  Name = ZINC05426033
REMARK                            x       y       z     vdW  Elec       q    Type
REMARK                         _______ _______ _______ _____ _____    ______ ____
ROOT
ATOM      1  C   LIG    1       -0.019   1.539   0.011  0.00  0.00    -0.016 C 
ATOM      2  C   LIG    1        0.002  -0.004   0.002  0.00  0.00    -0.081 C 
ATOM      3  N   LIG    1        1.304  -0.414  -0.546  0.00  0.00    +0.388 N 
ATOM      4  H1  LIG    1        1.817  -0.960   0.157  0.00  0.00    -0.085 HD
ATOM      5  H2  LIG    1        1.159  -0.988  -1.385  0.00  0.00    -0.085 HD
ATOM      6  CA  LIG    1        2.077   0.791  -0.898  0.00  0.00    +0.043 C 
ATOM      7  C   LIG    1        1.488   1.909  -0.002  0.00  0.00    -0.006 C 
ENDROOT
BRANCH   6   8
ATOM      8  C   LIG    1        3.539   0.590  -0.592  0.00  0.00    +0.291 C 
ATOM      9  O   LIG    1        3.882  -0.288   0.164  0.00  0.00    -0.253 OA
BRANCH   8  10
ATOM     10  OXT LIG    1        4.459   1.385  -1.159  0.00  0.00    -0.482 OA
ATOM     11  HXT LIG    1        4.193   2.066  -1.745  0.00  0.00    +0.295 HD
ENDBRANCH   8  10
ENDBRANCH   6   8
BRANCH   7  12
ATOM     12  C   LIG    1        1.708   3.287  -0.628  0.00  0.00    +0.122 C 
BRANCH  12  13
ATOM     13  C   LIG    1        1.096   4.344   0.254  0.00  0.00    +0.305 C 
ATOM     14  O   LIG    1        0.539   4.028   1.279  0.00  0.00    -0.251 OA
BRANCH  13  15
ATOM     15  O   LIG    1        1.168   5.637  -0.099  0.00  0.00    -0.481 OA
ATOM     16  H   LIG    1        1.599   5.883  -0.894  0.00  0.00    +0.295 HD
ENDBRANCH  13  15
ENDBRANCH  12  13
ENDBRANCH   7  12
TORSDOF 5
