REMARK  Name = ZINC05649661
REMARK                            x       y       z     vdW  Elec       q    Type
REMARK                         _______ _______ _______ _____ _____    ______ ____
ROOT
ATOM      1  C   LIG    1       -4.199  -1.234   2.092  0.00  0.00    +0.081 C 
ATOM      2  C   LIG    1       -4.817  -1.938   0.854  0.00  0.00    +0.013 C 
ATOM      3  C   LIG    1       -5.537  -3.203   1.391  0.00  0.00    +0.005 C 
ATOM      4  C   LIG    1       -5.422  -3.080   2.912  0.00  0.00    -0.001 C 
ATOM      5  C   LIG    1       -5.590  -4.317   3.732  0.00  0.00    -0.004 C 
ATOM      6  C   LIG    1       -5.483  -5.631   2.974  0.00  0.00    +0.006 C 
ATOM      7  C   LIG    1       -5.842  -6.777   3.939  0.00  0.00    +0.023 C 
ATOM      8  C   LIG    1       -6.183  -6.218   5.311  0.00  0.00    +0.082 C 
ATOM      9  C   LIG    1       -5.028  -5.403   5.895  0.00  0.00    -0.010 C 
ATOM     10  C   LIG    1       -3.824  -6.325   6.138  0.00  0.00    +0.013 C 
ATOM     11  C   LIG    1       -5.473  -4.803   7.226  0.00  0.00    +0.018 C 
ATOM     12  C   LIG    1       -5.754  -5.922   8.230  0.00  0.00    +0.096 C 
ATOM     13  C   LIG    1       -6.420  -7.098   7.585  0.00  0.00    +0.216 C 
ATOM     14  O   LIG    1       -6.844  -7.979   8.304  0.00  0.00    -0.276 OA
ATOM     15  N   LIG    1       -6.580  -7.245   6.264  0.00  0.00    -0.301 N 
ATOM     16  C   LIG    1       -7.193  -8.483   5.782  0.00  0.00    +0.132 C 
ATOM     17  C   LIG    1       -4.600  -4.328   4.904  0.00  0.00    +0.000 C 
ATOM     18  C   LIG    1       -4.525  -2.934   5.505  0.00  0.00    +0.005 C 
ATOM     19  C   LIG    1       -3.842  -1.964   4.525  0.00  0.00    +0.008 C 
ATOM     20  C   LIG    1       -4.048  -2.405   3.097  0.00  0.00    -0.018 C 
ATOM     21  C   LIG    1       -2.888  -3.276   2.608  0.00  0.00    +0.012 C 
ENDROOT
BRANCH   1  23
ATOM     22  N   LIG    1       -2.453   0.498   2.336  0.00  0.00    -0.302 N 
ATOM     23  C   LIG    1       -2.850  -0.655   1.763  0.00  0.00    +0.219 C 
ATOM     24  O   LIG    1       -2.119  -1.228   0.982  0.00  0.00    -0.275 OA
BRANCH  22  26
ATOM     25  C   LIG    1       -1.094   1.910   0.873  0.00  0.00    +0.024 C 
ATOM     26  C   LIG    1       -1.097   1.003   2.104  0.00  0.00    +0.104 C 
ENDBRANCH  22  26
BRANCH  22  27
ATOM     27  C   LIG    1       -3.378   1.248   3.189  0.00  0.00    +0.104 C 
ATOM     28  C   LIG    1       -4.258   2.150   2.319  0.00  0.00    +0.024 C 
ENDBRANCH  22  27
ENDBRANCH   1  23
TORSDOF 3
