REMARK  Name = ZINC05604543
REMARK                            x       y       z     vdW  Elec       q    Type
REMARK                         _______ _______ _______ _____ _____    ______ ____
ROOT
ATOM      1  C   LIG    1       -0.017   1.395   0.010  0.00  0.00    +0.004 A 
ATOM      2  C   LIG    1        1.184   2.101   0.002  0.00  0.00    +0.010 A 
ATOM      3  C   LIG    1        2.384   1.420  -0.013  0.00  0.00    +0.001 A 
ATOM      4  C   LIG    1        2.400   0.036  -0.021  0.00  0.00    +0.002 A 
ATOM      5  C   LIG    1        1.216  -0.676  -0.013  0.00  0.00    +0.024 A 
ATOM      6  C   LIG    1        0.002  -0.004   0.002  0.00  0.00    +0.052 A 
ENDROOT
BRANCH   6   7
ATOM      7  N   LIG    1       -1.199  -0.723   0.010  0.00  0.00    -0.203 N 
ATOM      8  C   LIG    1       -1.878  -1.111  -1.085  0.00  0.00    +0.250 C 
ATOM      9  C   LIG    1       -3.086  -1.846  -0.649  0.00  0.00    +0.073 C 
ATOM     10  C   LIG    1       -3.073  -1.853   0.695  0.00  0.00    +0.073 C 
ATOM     11  O   LIG    1       -1.554  -0.896  -2.234  0.00  0.00    -0.270 OA
ATOM     12  C   LIG    1       -1.853  -1.127   1.114  0.00  0.00    +0.250 C 
ATOM     13  O   LIG    1       -1.503  -0.930   2.259  0.00  0.00    -0.270 OA
ENDBRANCH   6   7
BRANCH   1  17
ATOM     14  C   LIG    1       -3.722   3.481   0.038  0.00  0.00    +0.000 A 
ATOM     15  C   LIG    1       -2.739   3.809   0.955  0.00  0.00    +0.001 A 
ATOM     16  C   LIG    1       -1.534   3.136   0.950  0.00  0.00    +0.008 A 
ATOM     17  C   LIG    1       -1.309   2.122   0.020  0.00  0.00    -0.016 A 
ATOM     18  C   LIG    1       -2.301   1.799  -0.904  0.00  0.00    +0.008 A 
ATOM     19  C   LIG    1       -3.504   2.476  -0.887  0.00  0.00    +0.001 A 
ENDBRANCH   1  17
TORSDOF 2
