REMARK  Name = ZINC05759845
REMARK                            x       y       z     vdW  Elec       q    Type
REMARK                         _______ _______ _______ _____ _____    ______ ____
ROOT
ATOM      1  C   LIG    1       -0.912  -1.853   0.101  0.00  0.00    +0.001 C 
ATOM      2  C   LIG    1       -2.166  -2.699  -0.136  0.00  0.00    -0.072 C 
ATOM      3  N   LIG    1       -3.152  -2.412   0.913  0.00  0.00    +0.385 N 
ATOM      4  H   LIG    1       -3.353  -1.423   0.922  0.00  0.00    -0.081 HD
ATOM      5  C   LIG    1       -4.394  -3.151   0.650  0.00  0.00    -0.073 C 
ATOM      6  C   LIG    1       -5.492  -2.599   1.560  0.00  0.00    +0.017 C 
ATOM      7  C   LIG    1       -5.004  -2.555   2.986  0.00  0.00    -0.044 A 
ATOM      8  C   LIG    1       -5.937  -2.417   4.002  0.00  0.00    +0.053 A 
ATOM      9  C   LIG    1       -5.530  -2.369   5.324  0.00  0.00    +0.162 A 
ATOM     10  C   LIG    1       -4.176  -2.459   5.631  0.00  0.00    +0.162 A 
ATOM     11  C   LIG    1       -3.249  -2.599   4.614  0.00  0.00    +0.051 A 
ATOM     12  C   LIG    1       -3.662  -2.649   3.291  0.00  0.00    -0.054 A 
ATOM     13  C   LIG    1       -2.620  -2.811   2.217  0.00  0.00    -0.035 C 
ATOM     14  C   LIG    1       -1.390  -1.964   2.550  0.00  0.00    +0.021 C 
ATOM     15  C   LIG    1       -0.323  -2.189   1.474  0.00  0.00    +0.115 C 
ENDROOT
BRANCH   9  16
ATOM     16  O   LIG    1       -6.449  -2.233   6.317  0.00  0.00    -0.491 OA
ATOM     17  C   LIG    1       -7.821  -2.146   5.925  0.00  0.00    +0.277 C 
ENDBRANCH   9  16
BRANCH  10  18
ATOM     18  O   LIG    1       -3.765  -2.411   6.927  0.00  0.00    -0.491 OA
ATOM     19  C   LIG    1       -2.360  -2.510   7.167  0.00  0.00    +0.277 C 
ENDBRANCH  10  18
BRANCH  15  20
ATOM     20  O   LIG    1        0.800  -1.344   1.731  0.00  0.00    -0.392 OA
ATOM     21  H   LIG    1        1.198  -1.472   2.603  0.00  0.00    +0.210 HD
ENDBRANCH  15  20
BRANCH   1  22
ATOM     22  C   LIG    1       -1.282  -0.369   0.054  0.00  0.00    +0.007 C 
BRANCH  22  24
ATOM     23  C   LIG    1       -2.205   1.454  -1.383  0.00  0.00    +0.007 C 
ATOM     24  C   LIG    1       -1.722   0.002  -1.363  0.00  0.00    -0.017 C 
ATOM     25  C   LIG    1       -0.540  -0.155  -2.322  0.00  0.00    +0.007 C 
ENDBRANCH  22  24
ENDBRANCH   1  22
TORSDOF 5
