REMARK  Name = ZINC05736150
REMARK                            x       y       z     vdW  Elec       q    Type
REMARK                         _______ _______ _______ _____ _____    ______ ____
ROOT
ATOM      1  C   LIG    1       -1.231   1.761   0.017  0.00  0.00    +0.002 A 
ATOM      2  C   LIG    1       -1.245   3.158   0.030  0.00  0.00    +0.012 A 
ATOM      3  C   LIG    1       -0.058   3.861   0.023  0.00  0.00    +0.027 A 
ATOM      4  C   LIG    1        1.151   3.181   0.009  0.00  0.00    +0.076 A 
ATOM      5  C   LIG    1        1.172   1.785   0.001  0.00  0.00    +0.143 A 
ATOM      6  O   LIG    1        2.367   1.135  -0.016  0.00  0.00    -0.481 OA
ATOM      7  C   LIG    1        3.437   1.774  -0.716  0.00  0.00    +0.325 C 
ATOM      8  C   LIG    1        3.498   3.229  -0.327  0.00  0.00    +0.255 C 
ATOM      9  O   LIG    1        4.562   3.811  -0.310  0.00  0.00    -0.272 OA
ATOM     10  N   LIG    1        2.363   3.883   0.003  0.00  0.00    -0.280 N 
ATOM     11  H   LIG    1        2.380   4.952   0.264  0.00  0.00    +0.155 HD
ATOM     12  C   LIG    1       -0.013   1.076   0.008  0.00  0.00    +0.057 A 
ENDROOT
BRANCH   1  21
ATOM     13  C   LIG    1       -4.280   1.936   1.474  0.00  0.00    +0.014 C 
ATOM     14  C   LIG    1       -3.804   1.762   0.030  0.00  0.00    +0.046 C 
ATOM     15  C   LIG    1       -4.856   0.981  -0.762  0.00  0.00    +0.107 C 
ATOM     16  C   LIG    1       -4.823  -0.465  -0.334  0.00  0.00    +0.233 C 
ATOM     17  N   LIG    1       -3.648  -1.038  -0.013  0.00  0.00    -0.207 N 
ATOM     18  H   LIG    1       -3.617  -2.110   0.235  0.00  0.00    +0.177 HD
ATOM     19  N   LIG    1       -2.473  -0.282   0.007  0.00  0.00    -0.184 NA
ATOM     20  O   LIG    1       -5.850  -1.109  -0.281  0.00  0.00    -0.274 OA
ATOM     21  C   LIG    1       -2.500   1.010   0.020  0.00  0.00    +0.070 C 
ENDBRANCH   1  21
TORSDOF 1
