REMARK  Name = ZINC04895971
REMARK                            x       y       z     vdW  Elec       q    Type
REMARK                         _______ _______ _______ _____ _____    ______ ____
ROOT
ATOM      1  C   LIG    1       -3.786  -6.157   0.239  0.00  0.00    +0.039 A 
ATOM      2  C   LIG    1       -2.604  -6.904   0.235  0.00  0.00    +0.015 A 
ATOM      3  C   LIG    1       -2.657  -8.275   0.339  0.00  0.00    +0.026 A 
ATOM      4  C   LIG    1       -3.887  -8.919   0.449  0.00  0.00    +0.060 A 
ATOM      5  C   LIG    1       -5.066  -8.179   0.453  0.00  0.00    +0.143 A 
ATOM      6  C   LIG    1       -5.019  -6.807   0.355  0.00  0.00    +0.047 A 
ENDROOT
BRANCH   4   7
ATOM      7  N   LIG    1       -3.937 -10.305   0.554  0.00  0.00    -0.324 N 
ATOM      8  C   LIG    1       -4.022 -11.152  -0.646  0.00  0.00    +0.133 C 
ATOM      9  C   LIG    1       -2.935 -12.230  -0.554  0.00  0.00    +0.178 C 
ATOM     10  O   LIG    1       -3.041 -12.899   0.705  0.00  0.00    -0.377 OA
ATOM     11  C   LIG    1       -2.826 -12.053   1.837  0.00  0.00    +0.178 C 
ATOM     12  C   LIG    1       -3.902 -10.966   1.867  0.00  0.00    +0.133 C 
ENDBRANCH   4   7
BRANCH   1  15
ATOM     13  N   LIG    1       -2.543  -4.063   0.018  0.00  0.00    -0.281 N 
ATOM     14  H   LIG    1       -1.728  -4.583  -0.067  0.00  0.00    +0.155 HD
ATOM     15  C   LIG    1       -3.732  -4.688   0.129  0.00  0.00    +0.248 C 
ATOM     16  O   LIG    1       -4.761  -4.039   0.138  0.00  0.00    -0.270 OA
BRANCH  13  21
ATOM     17  C   LIG    1       -3.328  -0.551   0.783  0.00  0.00    +0.122 A 
ATOM     18  C   LIG    1       -2.361   0.102   0.030  0.00  0.00    +0.046 A 
ATOM     19  C   LIG    1       -1.460  -0.627  -0.722  0.00  0.00    +0.005 A 
ATOM     20  C   LIG    1       -1.518  -2.008  -0.728  0.00  0.00    +0.023 A 
ATOM     21  C   LIG    1       -2.484  -2.666   0.024  0.00  0.00    +0.037 A 
ATOM     22  C   LIG    1       -3.386  -1.935   0.784  0.00  0.00    +0.069 A 
BRANCH  17  24
ATOM     23  C   LIG    1       -4.096   1.591   1.472  0.00  0.00    +0.277 C 
ATOM     24  O   LIG    1       -4.214   0.168   1.522  0.00  0.00    -0.495 OA
ENDBRANCH  17  24
ENDBRANCH  13  21
ENDBRANCH   1  15
BRANCH   5  25
ATOM     25  N   LIG    1       -6.371  -8.867   0.568  0.00  0.00    +0.008 N 
ATOM     26  O   LIG    1       -7.395  -8.225   0.572  0.00  0.00    -0.130 OA
BRANCH  25  27
ATOM     27  O   LIG    1       -6.412 -10.072   0.659  0.00  0.00    -0.396 OA
ATOM     28  H   LIG    1       -5.619 -10.570   0.656  0.00  0.00    +0.329 HD
ENDBRANCH  25  27
ENDBRANCH   5  25
TORSDOF 6
