REMARK  Name = ZINC05853925
REMARK                            x       y       z     vdW  Elec       q    Type
REMARK                         _______ _______ _______ _____ _____    ______ ____
ROOT
ATOM      1  C   LIG    1        1.450  -2.345  -2.518  0.00  0.00    +0.100 C 
ATOM      2  C   LIG    1        2.082  -1.553  -3.639  0.00  0.00    +0.154 C 
ATOM      3  N   LIG    1        2.622  -2.539  -4.582  0.00  0.00    -0.286 N 
ATOM      4  C   LIG    1        2.354  -3.765  -4.097  0.00  0.00    +0.282 C 
ATOM      5  O   LIG    1        2.664  -4.811  -4.633  0.00  0.00    -0.267 OA
ATOM      6  C   LIG    1        1.630  -3.652  -2.812  0.00  0.00    +0.191 C 
ENDROOT
BRANCH   1   7
ATOM      7  C   LIG    1        0.776  -1.800  -1.335  0.00  0.00    +0.340 C 
ATOM      8  O   LIG    1        0.312  -2.551  -0.499  0.00  0.00    -0.245 OA
BRANCH   7   9
ATOM      9  O   LIG    1        0.671  -0.465  -1.174  0.00  0.00    -0.462 OA
BRANCH   9  11
ATOM     10  C   LIG    1       -0.019   1.526   0.010  0.00  0.00    +0.048 C 
ATOM     11  C   LIG    1        0.002  -0.004   0.002  0.00  0.00    +0.229 C 
ENDBRANCH   9  11
ENDBRANCH   7   9
ENDBRANCH   1   7
BRANCH   6  12
ATOM     12  O   LIG    1        1.212  -4.691  -2.053  0.00  0.00    -0.502 OA
ATOM     13  H   LIG    1        0.759  -4.531  -1.249  0.00  0.00    +0.292 HD
ENDBRANCH   6  12
BRANCH   3  14
ATOM     14  C   LIG    1        3.329  -2.242  -5.830  0.00  0.00    +0.143 C 
BRANCH  14  15
ATOM     15  C   LIG    1        4.807  -2.132  -5.557  0.00  0.00    -0.030 A 
ATOM     16  C   LIG    1        5.359  -0.911  -5.218  0.00  0.00    +0.005 A 
ATOM     17  C   LIG    1        6.714  -0.811  -4.968  0.00  0.00    +0.000 A 
ATOM     18  C   LIG    1        7.518  -1.932  -5.056  0.00  0.00    +0.000 A 
ATOM     19  C   LIG    1        6.966  -3.153  -5.395  0.00  0.00    +0.000 A 
ATOM     20  C   LIG    1        5.610  -3.255  -5.641  0.00  0.00    +0.005 A 
ENDBRANCH  14  15
ENDBRANCH   3  14
TORSDOF 6
