REMARK  Name = ZINC05765083
REMARK                            x       y       z     vdW  Elec       q    Type
REMARK                         _______ _______ _______ _____ _____    ______ ____
ROOT
ATOM      1  C   LIG    1        0.270   1.418  -0.187  0.00  0.00    +0.045 C 
ATOM      2  C   LIG    1        0.265  -0.089  -0.155  0.00  0.00    -0.029 A 
ATOM      3  C   LIG    1        0.317  -0.804  -1.333  0.00  0.00    +0.050 A 
ATOM      4  C   LIG    1        0.307  -2.192  -1.319  0.00  0.00    +0.131 A 
ATOM      5  C   LIG    1        0.214  -2.887  -0.097  0.00  0.00    +0.099 A 
ATOM      6  C   LIG    1        0.152  -2.160   1.098  0.00  0.00    +0.157 A 
ATOM      7  O   LIG    1       -0.004  -2.757   2.292  0.00  0.00    -0.450 OA
ATOM      8  C   LIG    1        0.936  -2.682   3.277  0.00  0.00    +0.181 C 
ATOM      9  C   LIG    1        1.247  -3.873   3.877  0.00  0.00    +0.083 C 
ATOM     10  C   LIG    1        0.754  -5.285   3.671  0.00  0.00    +0.345 C 
ATOM     11  O   LIG    1        1.478  -6.078   4.620  0.00  0.00    -0.430 OA
ATOM     12  C   LIG    1        2.302  -5.287   5.317  0.00  0.00    +0.293 C 
ATOM     13  C   LIG    1        2.201  -3.955   4.909  0.00  0.00    +0.114 C 
ATOM     14  C   LIG    1        2.865  -2.722   5.336  0.00  0.00    +0.202 C 
ATOM     15  O   LIG    1        3.703  -2.736   6.229  0.00  0.00    -0.287 OA
ATOM     16  C   LIG    1        2.515  -1.529   4.698  0.00  0.00    +0.071 C 
ATOM     17  C   LIG    1        1.564  -1.506   3.684  0.00  0.00    +0.183 C 
ATOM     18  O   LIG    1        1.328  -0.271   3.161  0.00  0.00    -0.418 OA
ATOM     19  C   LIG    1        0.290  -0.038   2.344  0.00  0.00    +0.348 C 
ATOM     20  O   LIG    1       -0.572   0.760   2.654  0.00  0.00    -0.244 OA
ATOM     21  C   LIG    1        0.214  -0.763   1.066  0.00  0.00    +0.105 A 
ENDROOT
BRANCH  10  22
ATOM     22  O   LIG    1       -0.650  -5.364   3.927  0.00  0.00    -0.354 OA
ATOM     23  H   LIG    1       -1.014  -6.256   3.851  0.00  0.00    +0.214 HD
ENDBRANCH  10  22
BRANCH  12  24
ATOM     24  O   LIG    1        3.123  -5.720   6.288  0.00  0.00    -0.480 OA
ATOM     25  H   LIG    1        3.676  -5.112   6.739  0.00  0.00    +0.295 HD
ENDBRANCH  12  24
BRANCH   5  26
ATOM     26  C   LIG    1        0.181  -4.351  -0.077  0.00  0.00    +0.266 C 
ATOM     27  O   LIG    1        0.234  -4.973  -1.117  0.00  0.00    -0.295 OA
ENDBRANCH   5  26
BRANCH   4  28
ATOM     28  O   LIG    1        0.387  -2.881  -2.483  0.00  0.00    -0.506 OA
ATOM     29  H   LIG    1        0.449  -2.420  -3.296  0.00  0.00    +0.292 HD
ENDBRANCH   4  28
BRANCH  16  30
ATOM     30  C   LIG    1        3.181  -0.244   5.117  0.00  0.00    +0.198 C 
BRANCH  30  31
ATOM     31  O   LIG    1        4.595  -0.364   4.954  0.00  0.00    -0.390 OA
ATOM     32  H   LIG    1        5.089   0.428   5.205  0.00  0.00    +0.210 HD
ENDBRANCH  30  31
ENDBRANCH  16  30
TORSDOF 6
