REMARK  Name = ZINC05852842
REMARK                            x       y       z     vdW  Elec       q    Type
REMARK                         _______ _______ _______ _____ _____    ______ ____
ROOT
ATOM      1  C   LIG    1       -0.253   0.845  -0.179  0.00  0.00    +0.156 C 
ATOM      2  N   LIG    1       -0.117  -0.471  -0.234  0.00  0.00    -0.154 NA
ATOM      3  C   LIG    1        1.060  -1.058  -0.234  0.00  0.00    +0.276 C 
ATOM      4  C   LIG    1        2.239  -0.167  -0.170  0.00  0.00    +0.079 C 
ATOM      5  C   LIG    1        3.568  -0.475  -0.155  0.00  0.00    +0.023 C 
ATOM      6  O   LIG    1        1.173  -2.273  -0.284  0.00  0.00    -0.267 OA
ATOM      7  S   LIG    1        1.433   1.429  -0.118  0.00  0.00    -0.051 S 
ENDROOT
BRANCH   5   8
ATOM      8  C   LIG    1        4.526   0.544   0.008  0.00  0.00    -0.049 C 
ATOM      9  C   LIG    1        4.527   1.732  -0.919  0.00  0.00    +0.044 C 
ATOM     10  C   LIG    1        5.447   0.457   0.997  0.00  0.00    +0.011 C 
BRANCH  10  11
ATOM     11  C   LIG    1        5.355  -0.620   1.994  0.00  0.00    -0.025 A 
ATOM     12  C   LIG    1        4.109  -1.158   2.335  0.00  0.00    +0.008 A 
ATOM     13  C   LIG    1        4.032  -2.172   3.266  0.00  0.00    +0.001 A 
ATOM     14  C   LIG    1        5.182  -2.649   3.872  0.00  0.00    +0.000 A 
ATOM     15  C   LIG    1        6.418  -2.118   3.544  0.00  0.00    +0.001 A 
ATOM     16  C   LIG    1        6.513  -1.108   2.611  0.00  0.00    +0.008 A 
ENDBRANCH  10  11
ENDBRANCH   5   8
BRANCH   1  17
ATOM     17  N   LIG    1       -1.410   1.581  -0.177  0.00  0.00    -0.296 N 
ATOM     18  H   LIG    1       -1.373   2.542  -0.045  0.00  0.00    +0.154 HD
BRANCH  17  23
ATOM     19  C   LIG    1       -6.410  -0.988  -0.935  0.00  0.00    +0.044 C 
ATOM     20  C   LIG    1       -5.081  -0.305  -0.733  0.00  0.00    -0.047 A 
ATOM     21  C   LIG    1       -5.019   0.893  -0.046  0.00  0.00    +0.005 A 
ATOM     22  C   LIG    1       -3.803   1.522   0.140  0.00  0.00    +0.023 A 
ATOM     23  C   LIG    1       -2.642   0.948  -0.363  0.00  0.00    +0.033 A 
ATOM     24  C   LIG    1       -2.710  -0.253  -1.057  0.00  0.00    +0.027 A 
ATOM     25  C   LIG    1       -3.928  -0.879  -1.236  0.00  0.00    -0.046 A 
ATOM     26  C   LIG    1       -4.001  -2.185  -1.984  0.00  0.00    +0.044 C 
ENDBRANCH  17  23
ENDBRANCH   1  17
TORSDOF 4
