REMARK  Name = ZINC05117007
REMARK                            x       y       z     vdW  Elec       q    Type
REMARK                         _______ _______ _______ _____ _____    ______ ____
ROOT
ATOM      1  C   LIG    1       -0.016   1.357   0.009  0.00  0.00    +0.069 A 
ATOM      2  C   LIG    1        1.194   2.066   0.002  0.00  0.00    +0.076 A 
ATOM      3  C   LIG    1        2.402   1.357  -0.014  0.00  0.00    +0.155 A 
ATOM      4  N   LIG    1        3.405   2.275  -0.018  0.00  0.00    -0.209 NA
ATOM      5  C   LIG    1        2.893   3.479  -0.007  0.00  0.00    +0.191 A 
ATOM      6  C   LIG    1        2.367  -0.052  -0.021  0.00  0.00    +0.278 A 
ATOM      7  O   LIG    1        3.408  -0.689  -0.035  0.00  0.00    -0.265 OA
ATOM      8  N   LIG    1        1.182  -0.693  -0.013  0.00  0.00    -0.309 N 
ATOM      9  H   LIG    1        1.167  -1.663  -0.018  0.00  0.00    +0.170 HD
ATOM     10  N   LIG    1        1.527   3.399   0.006  0.00  0.00    -0.326 N 
ATOM     11  H   LIG    1        0.908   4.146   0.015  0.00  0.00    +0.169 HD
ATOM     12  C   LIG    1        0.002  -0.004   0.002  0.00  0.00    +0.098 A 
ENDROOT
BRANCH   5  13
ATOM     13  N   LIG    1        3.622   4.654  -0.007  0.00  0.00    -0.329 N 
ATOM     14  H   LIG    1        3.163   5.509   0.003  0.00  0.00    +0.145 HD
ATOM     15  H   LIG    1        4.591   4.624  -0.016  0.00  0.00    +0.145 HD
ENDBRANCH   5  13
BRANCH  12  16
ATOM     16  N   LIG    1       -1.192  -0.700   0.010  0.00  0.00    -0.344 N 
ATOM     17  H   LIG    1       -1.187  -1.670   0.005  0.00  0.00    +0.144 HD
ATOM     18  H   LIG    1       -2.034  -0.219   0.021  0.00  0.00    +0.144 HD
ENDBRANCH  12  16
TORSDOF 2
