REMARK  Name = ZINC05112946
REMARK                            x       y       z     vdW  Elec       q    Type
REMARK                         _______ _______ _______ _____ _____    ______ ____
ROOT
ATOM      1  C   LIG    1       -1.375   1.928   0.012  0.00  0.00    +0.108 C 
ENDROOT
BRANCH   1   2
ATOM      2  C   LIG    1       -0.133   1.100  -0.198  0.00  0.00    +0.309 C 
ATOM      3  O   LIG    1       -0.224  -0.093  -0.368  0.00  0.00    -0.251 OA
BRANCH   2   4
ATOM      4  O   LIG    1        1.073   1.689  -0.202  0.00  0.00    -0.480 OA
ATOM      5  H   LIG    1        1.143   2.614  -0.070  0.00  0.00    +0.295 HD
ENDBRANCH   2   4
ENDBRANCH   1   2
BRANCH   1   6
ATOM      6  C   LIG    1       -2.607   1.021  -0.035  0.00  0.00    +0.026 C 
BRANCH   6   7
ATOM      7  C   LIG    1       -2.590   0.075   1.167  0.00  0.00    +0.121 C 
BRANCH   7   8
ATOM      8  C   LIG    1       -3.738  -0.895   1.059  0.00  0.00    +0.305 C 
ATOM      9  O   LIG    1       -4.493  -0.835   0.118  0.00  0.00    -0.251 OA
BRANCH   8  10
ATOM     10  O   LIG    1       -3.923  -1.825   2.009  0.00  0.00    -0.481 OA
ATOM     11  H   LIG    1       -3.338  -1.871   2.739  0.00  0.00    +0.295 HD
ENDBRANCH   8  10
ENDBRANCH   7   8
ENDBRANCH   6   7
ENDBRANCH   1   6
BRANCH   1  12
ATOM     12  C   LIG    1       -1.477   2.984  -1.090  0.00  0.00    +0.080 C 
BRANCH  12  13
ATOM     13  S   LIG    1       -2.887   4.074  -0.755  0.00  0.00    -0.177 S 
ATOM     14  H   LIG    1       -2.873   4.948  -1.778  0.00  0.00    +0.102 HD
ENDBRANCH  12  13
ENDBRANCH   1  12
TORSDOF 8
