REMARK  Name = ZINC04959624
REMARK                            x       y       z     vdW  Elec       q    Type
REMARK                         _______ _______ _______ _____ _____    ______ ____
ROOT
ATOM      1  C   LIG    1       -0.017   1.379   0.010  0.00  0.00    +0.017 A 
ATOM      2  C   LIG    1        1.167   2.088   0.002  0.00  0.00    +0.024 A 
ATOM      3  C   LIG    1        2.385   1.421  -0.010  0.00  0.00    +0.032 A 
ATOM      4  C   LIG    1        2.397   0.021  -0.004  0.00  0.00    -0.018 A 
ATOM      5  C   LIG    1        3.715  -0.650   0.022  0.00  0.00    +0.049 C 
ATOM      6  C   LIG    1        3.914  -2.011  -0.540  0.00  0.00    -0.023 C 
ATOM      7  C   LIG    1        5.155  -2.101  -1.002  0.00  0.00    -0.030 C 
ATOM      8  C   LIG    1        5.883  -0.769  -0.810  0.00  0.00    +0.033 C 
ATOM      9  C   LIG    1        4.706   0.210  -0.818  0.00  0.00    +0.035 C 
ATOM     10  CA  LIG    1        4.893   1.495  -0.033  0.00  0.00    +0.184 C 
ATOM     11  C   LIG    1        1.210  -0.679  -0.006  0.00  0.00    +0.021 A 
ATOM     12  N   LIG    1        3.573   2.162  -0.039  0.00  0.00    -0.331 N 
ATOM     13  H   LIG    1        3.529   3.131  -0.064  0.00  0.00    +0.147 HD
ATOM     14  C   LIG    1        0.002  -0.004   0.002  0.00  0.00    +0.018 A 
ATOM     15 BR   LIG    1       -1.622  -0.972   0.003  0.00  0.00    -0.050 Br
ENDROOT
BRANCH  10  16
ATOM     16  C   LIG    1        5.316   1.185   1.380  0.00  0.00    +0.326 C 
ATOM     17  O   LIG    1        6.500   1.093   1.656  0.00  0.00    -0.249 OA
BRANCH  16  18
ATOM     18  OXT LIG    1        4.474   1.027   2.248  0.00  0.00    -0.479 OA
ATOM     19  HXT LIG    1        3.564   1.098   2.036  0.00  0.00    +0.295 HD
ENDBRANCH  16  18
ENDBRANCH  10  16
TORSDOF 2
