REMARK  Name = ZINC05493711
REMARK                            x       y       z     vdW  Elec       q    Type
REMARK                         _______ _______ _______ _____ _____    ______ ____
ROOT
ATOM      1  S   LIG    1        0.942   0.097  -3.900  0.00  0.00    +0.058 S 
ATOM      2  O   LIG    1        2.213   0.682  -3.650  0.00  0.00    -0.153 OA
ATOM      3  O   LIG    1        0.038   0.622  -4.862  0.00  0.00    -0.153 OA
ENDROOT
BRANCH   1   4
ATOM      4  C   LIG    1        1.240  -1.580  -4.351  0.00  0.00    +0.106 A 
ATOM      5  C   LIG    1        2.403  -2.211  -3.939  0.00  0.00    +0.032 A 
ATOM      6  C   LIG    1        2.651  -3.523  -4.284  0.00  0.00    +0.049 A 
ATOM      7  C   LIG    1        1.731  -4.227  -5.052  0.00  0.00    +0.136 A 
ATOM      8  C   LIG    1        0.555  -3.586  -5.467  0.00  0.00    +0.030 A 
ATOM      9  C   LIG    1       -0.191  -4.590  -6.250  0.00  0.00    +0.028 A 
ATOM     10  C   LIG    1       -1.409  -4.581  -6.922  0.00  0.00    +0.012 A 
ATOM     11  C   LIG    1       -1.837  -5.717  -7.577  0.00  0.00    +0.001 A 
ATOM     12  C   LIG    1       -1.056  -6.862  -7.567  0.00  0.00    +0.004 A 
ATOM     13  C   LIG    1        0.153  -6.881  -6.904  0.00  0.00    +0.047 A 
ATOM     14  C   LIG    1        0.601  -5.746  -6.238  0.00  0.00    +0.136 A 
ATOM     15  O   LIG    1        1.720  -5.493  -5.524  0.00  0.00    -0.455 OA
ATOM     16  C   LIG    1        0.313  -2.264  -5.109  0.00  0.00    +0.040 A 
ENDBRANCH   1   4
BRANCH   1  17
ATOM     17  N   LIG    1        0.136   0.079  -2.453  0.00  0.00    -0.189 NA
ATOM     18  H   LIG    1       -0.774   0.410  -2.401  0.00  0.00    +0.148 HD
BRANCH  17  19
ATOM     19  C   LIG    1        0.798  -0.437  -1.252  0.00  0.00    +0.112 C 
BRANCH  19  21
ATOM     20  C   LIG    1       -0.019   1.526   0.010  0.00  0.00    +0.012 C 
ATOM     21  C   LIG    1        0.002  -0.004   0.002  0.00  0.00    -0.015 C 
ATOM     22  C   LIG    1       -1.408  -0.558  -0.142  0.00  0.00    +0.039 C 
ATOM     23  C   LIG    1       -2.211  -0.447   1.145  0.00  0.00    +0.116 C 
ATOM     24  C   LIG    1       -1.489  -1.142   2.291  0.00  0.00    +0.037 C 
ATOM     25  C   LIG    1       -0.078  -0.613   2.500  0.00  0.00    -0.032 C 
ATOM     26  C   LIG    1        0.644  -1.591   3.458  0.00  0.00    +0.011 C 
ATOM     27  C   LIG    1       -0.114   0.750   3.197  0.00  0.00    +0.011 C 
ATOM     28  C   LIG    1        0.728  -0.550   1.217  0.00  0.00    +0.014 C 
BRANCH  23  29
ATOM     29  O   LIG    1       -2.512   0.907   1.462  0.00  0.00    -0.392 OA
ATOM     30  H   LIG    1       -3.023   1.017   2.275  0.00  0.00    +0.210 HD
ENDBRANCH  23  29
ENDBRANCH  19  21
ENDBRANCH  17  19
ENDBRANCH   1  17
TORSDOF 5
