REMARK  Name = ZINC05351555
REMARK                            x       y       z     vdW  Elec       q    Type
REMARK                         _______ _______ _______ _____ _____    ______ ____
ROOT
ATOM      1  C   LIG    1        6.925   5.371  -0.048  0.00  0.00    +0.046 C 
ATOM      2  C   LIG    1        7.174   3.853  -0.053  0.00  0.00    +0.178 C 
ATOM      3  O   LIG    1        5.899   3.199  -0.037  0.00  0.00    -0.322 OA
ATOM      4  C   LIG    1        4.795   4.111  -0.022  0.00  0.00    +0.314 C 
ATOM      5  O   LIG    1        4.877   4.927   1.152  0.00  0.00    -0.322 OA
ATOM      6  O   LIG    1        4.855   4.939  -1.188  0.00  0.00    -0.322 OA
ATOM      7  C   LIG    1        6.095   5.703   1.205  0.00  0.00    +0.178 C 
ATOM      8  C   LIG    1        6.081   5.709  -1.290  0.00  0.00    +0.178 C 
ENDROOT
BRANCH   4   9
ATOM      9  C   LIG    1        3.501   3.340  -0.013  0.00  0.00    +0.041 A 
ATOM     10  C   LIG    1        2.293   4.026   0.002  0.00  0.00    +0.013 A 
ATOM     11  C   LIG    1        1.113   3.342   0.009  0.00  0.00    +0.029 A 
ATOM     12  C   LIG    1        1.123   1.924   0.002  0.00  0.00    +0.074 A 
ATOM     13  C   LIG    1        2.365   1.239  -0.008  0.00  0.00    +0.029 A 
ATOM     14  C   LIG    1        3.528   1.951  -0.021  0.00  0.00    +0.013 A 
BRANCH  12  15
ATOM     15  N   LIG    1       -0.015   1.246   0.009  0.00  0.00    -0.197 NA
ATOM     16  C   LIG    1        0.002  -0.004   0.002  0.00  0.00    +0.041 C 
ATOM     17  S   LIG    1        0.023  -1.557  -0.006  0.00  0.00    +0.021 S 
ENDBRANCH  12  15
ENDBRANCH   4   9
BRANCH   1  19
ATOM     18  C   LIG    1        9.043   5.784  -1.308  0.00  0.00    +0.011 C 
ATOM     19  C   LIG    1        8.245   6.145  -0.053  0.00  0.00    -0.026 C 
ATOM     20  C   LIG    1        9.057   5.778   1.190  0.00  0.00    +0.011 C 
ATOM     21  C   LIG    1        7.956   7.647  -0.048  0.00  0.00    +0.011 C 
ENDBRANCH   1  19
TORSDOF 3
