REMARK  Name = ZINC05730882
REMARK                            x       y       z     vdW  Elec       q    Type
REMARK                         _______ _______ _______ _____ _____    ______ ____
ROOT
ATOM      1  C   LIG    1       -0.018   1.461   0.010  0.00  0.00    +0.155 C 
ATOM      2  N   LIG    1        0.002  -0.004   0.002  0.00  0.00    -0.282 N 
ATOM      3  C   LIG    1       -1.176  -0.712   0.004  0.00  0.00    +0.169 A 
ATOM      4  C   LIG    1       -1.113  -2.113  -0.005  0.00  0.00    +0.149 A 
ATOM      5  N   LIG    1       -2.430  -2.561  -0.001  0.00  0.00    -0.308 N 
ATOM      6  C   LIG    1       -3.217  -1.465   0.009  0.00  0.00    +0.183 A 
ATOM      7  S   LIG    1       -4.929  -1.480   0.017  0.00  0.00    -0.011 S 
ATOM      8  C   LIG    1        0.131  -2.732  -0.014  0.00  0.00    +0.245 A 
ATOM      9  N   LIG    1        1.238  -1.985  -0.015  0.00  0.00    -0.159 NA
ATOM     10  N   LIG    1       -2.462  -0.372   0.012  0.00  0.00    -0.203 NA
ATOM     11  C   LIG    1        1.184  -0.671  -0.013  0.00  0.00    +0.300 A 
ENDROOT
BRANCH   8  12
ATOM     12  O   LIG    1        0.220  -4.082  -0.023  0.00  0.00    -0.491 OA
ATOM     13  H   LIG    1       -0.559  -4.603  -0.022  0.00  0.00    +0.294 HD
ENDBRANCH   8  12
BRANCH  11  14
ATOM     14  O   LIG    1        2.335   0.033  -0.020  0.00  0.00    -0.479 OA
ATOM     15  H   LIG    1        2.311   0.969  -0.019  0.00  0.00    +0.295 HD
ENDBRANCH  11  14
BRANCH   5  16
ATOM     16  C   LIG    1       -2.877  -3.956  -0.007  0.00  0.00    +0.159 C 
BRANCH  16  17
ATOM     17  C   LIG    1       -3.024  -4.442   1.412  0.00  0.00    -0.028 A 
ATOM     18  C   LIG    1       -1.949  -5.026   2.057  0.00  0.00    +0.007 A 
ATOM     19  C   LIG    1       -2.082  -5.472   3.358  0.00  0.00    +0.020 A 
ATOM     20  C   LIG    1       -3.292  -5.335   4.015  0.00  0.00    +0.041 A 
ATOM     21 CL   LIG    1       -3.461  -5.896   5.649  0.00  0.00    -0.084 Cl
ATOM     22  C   LIG    1       -4.367  -4.751   3.370  0.00  0.00    +0.020 A 
ATOM     23  C   LIG    1       -4.231  -4.300   2.070  0.00  0.00    +0.007 A 
ENDBRANCH  16  17
ENDBRANCH   5  16
TORSDOF 4
