REMARK  Name = ZINC05117372
REMARK                            x       y       z     vdW  Elec       q    Type
REMARK                         _______ _______ _______ _____ _____    ______ ____
ROOT
ATOM      1  C   LIG    1        5.656  -5.038  -0.063  0.00  0.00    +0.084 C 
ATOM      2  C   LIG    1        6.530  -5.077   1.124  0.00  0.00    +0.271 C 
ATOM      3  O   LIG    1        6.504  -4.168   1.935  0.00  0.00    -0.268 OA
ATOM      4  N   LIG    1        7.354  -6.121   1.305  0.00  0.00    -0.180 NA
ATOM      5  C   LIG    1        7.644  -6.948   0.324  0.00  0.00    +0.050 C 
ATOM      6  C   LIG    1        8.386  -8.108   0.598  0.00  0.00    +0.041 C 
ATOM      7  C   LIG    1        8.501  -9.089  -0.335  0.00  0.00    +0.042 C 
ATOM      8 CL   LIG    1        9.551 -10.441  -0.047  0.00  0.00    -0.083 Cl
ATOM      9  C   LIG    1        7.742  -9.009  -1.581  0.00  0.00    +0.017 C 
ATOM     10  C   LIG    1        7.132  -7.875  -1.929  0.00  0.00    -0.008 C 
ATOM     11  C   LIG    1        7.221  -6.650  -1.082  0.00  0.00    +0.124 C 
ATOM     12  C   LIG    1        5.979  -5.818  -1.130  0.00  0.00    +0.119 C 
ENDROOT
BRANCH   1  17
ATOM     13  C   LIG    1        3.459  -1.984  -0.076  0.00  0.00    +0.129 A 
ATOM     14  C   LIG    1        2.197  -2.561  -0.144  0.00  0.00    +0.046 A 
ATOM     15  C   LIG    1        2.063  -3.936  -0.185  0.00  0.00    +0.004 A 
ATOM     16  C   LIG    1        3.183  -4.744  -0.159  0.00  0.00    +0.009 A 
ATOM     17  C   LIG    1        4.453  -4.173  -0.091  0.00  0.00    -0.006 A 
ATOM     18  C   LIG    1        4.588  -2.786  -0.055  0.00  0.00    +0.055 A 
BRANCH  13  19
ATOM     19  O   LIG    1        3.586  -0.632  -0.037  0.00  0.00    -0.456 OA
BRANCH  19  23
ATOM     20  C   LIG    1        3.916   1.388  -3.619  0.00  0.00    +0.000 A 
ATOM     21  C   LIG    1        3.946   2.088  -2.426  0.00  0.00    +0.004 A 
ATOM     22  C   LIG    1        3.835   1.414  -1.226  0.00  0.00    +0.046 A 
ATOM     23  C   LIG    1        3.694   0.034  -1.217  0.00  0.00    +0.128 A 
ATOM     24  C   LIG    1        3.664  -0.666  -2.414  0.00  0.00    +0.046 A 
ATOM     25  C   LIG    1        3.775   0.013  -3.612  0.00  0.00    +0.004 A 
ENDBRANCH  19  23
ENDBRANCH  13  19
ENDBRANCH   1  17
BRANCH  12  26
ATOM     26  O   LIG    1        5.189  -5.838  -2.222  0.00  0.00    -0.509 OA
ATOM     27  H   LIG    1        4.411  -5.315  -2.247  0.00  0.00    +0.292 HD
ENDBRANCH  12  26
TORSDOF 4
