REMARK  Name = ZINC05157081
REMARK                            x       y       z     vdW  Elec       q    Type
REMARK                         _______ _______ _______ _____ _____    ______ ____
ROOT
ATOM      1  C   LIG    1       -1.343  -2.060  -0.036  0.00  0.00    +0.026 C 
ATOM      2  C   LIG    1       -1.433  -0.534   0.013  0.00  0.00    -0.041 C 
ATOM      3  C   LIG    1       -0.023   0.060   0.043  0.00  0.00    +0.131 C 
ATOM      4  C   LIG    1        0.737  -0.366  -1.214  0.00  0.00    +0.173 C 
ATOM      5  C   LIG    1        0.827  -1.893  -1.263  0.00  0.00    +0.179 C 
ATOM      6  C   LIG    1       -0.583  -2.486  -1.293  0.00  0.00    +0.116 C 
ENDROOT
BRANCH   2   7
ATOM      7  N   LIG    1       -2.128  -0.056  -1.195  0.00  0.00    +0.382 N 
ATOM      8  H   LIG    1       -1.605  -0.354  -2.026  0.00  0.00    -0.090 HD
ATOM      9  H   LIG    1       -2.186   0.961  -1.186  0.00  0.00    -0.090 HD
ATOM     10  H   LIG    1       -3.068  -0.448  -1.236  0.00  0.00    -0.090 HD
ENDBRANCH   2   7
BRANCH   3  11
ATOM     11  O   LIG    1       -0.108   1.486   0.089  0.00  0.00    -0.391 OA
ATOM     12  H   LIG    1        0.751   1.930   0.110  0.00  0.00    +0.210 HD
ENDBRANCH   3  11
BRANCH   4  13
ATOM     13  O   LIG    1        2.054   0.188  -1.186  0.00  0.00    -0.387 OA
ATOM     14  H   LIG    1        2.073   1.154  -1.154  0.00  0.00    +0.210 HD
ENDBRANCH   4  13
BRANCH   5  15
ATOM     15  O   LIG    1        1.537  -2.291  -2.437  0.00  0.00    -0.386 OA
ATOM     16  H   LIG    1        2.440  -1.950  -2.485  0.00  0.00    +0.210 HD
ENDBRANCH   5  15
BRANCH   6  17
ATOM     17  O   LIG    1       -1.274  -2.013  -2.451  0.00  0.00    -0.384 OA
ATOM     18  H   LIG    1       -2.177  -2.350  -2.535  0.00  0.00    +0.210 HD
ENDBRANCH   6  17
BRANCH   6  19
ATOM     19  C   LIG    1       -0.493  -4.013  -1.342  0.00  0.00    +0.193 C 
BRANCH  19  20
ATOM     20  O   LIG    1       -1.810  -4.567  -1.370  0.00  0.00    -0.392 OA
ATOM     21  H   LIG    1       -1.829  -5.534  -1.401  0.00  0.00    +0.210 HD
ENDBRANCH  19  20
ENDBRANCH   6  19
TORSDOF 7
