REMARK  Name = ZINC05199754
REMARK                            x       y       z     vdW  Elec       q    Type
REMARK                         _______ _______ _______ _____ _____    ______ ____
ROOT
ATOM      1  C   LIG    1        2.291   0.736  -0.016  0.00  0.00    +0.071 C 
ATOM      2  C   LIG    1        1.352   1.918   0.008  0.00  0.00    +0.136 C 
ATOM      3  C   LIG    1       -0.023   1.387   0.014  0.00  0.00    +0.028 A 
ATOM      4  C   LIG    1       -1.254   2.046   0.040  0.00  0.00    +0.012 A 
ATOM      5  C   LIG    1       -2.429   1.320   0.037  0.00  0.00    +0.001 A 
ATOM      6  C   LIG    1       -2.398  -0.064   0.019  0.00  0.00    +0.001 A 
ATOM      7  C   LIG    1       -1.191  -0.736  -0.001  0.00  0.00    +0.012 A 
ATOM      8  C   LIG    1        0.009  -0.021  -0.004  0.00  0.00    +0.033 A 
ATOM      9  C   LIG    1        1.407  -0.488  -0.024  0.00  0.00    +0.198 C 
ATOM     10  O   LIG    1        1.778  -1.643  -0.041  0.00  0.00    -0.286 OA
ENDROOT
BRANCH   1  14
ATOM     11  C   LIG    1        4.768   0.747   3.467  0.00  0.00    +0.029 A 
ATOM     12  C   LIG    1        5.344   0.738   2.203  0.00  0.00    +0.024 A 
ATOM     13  C   LIG    1        4.541   0.734   1.079  0.00  0.00    +0.010 A 
ATOM     14  C   LIG    1        3.164   0.740   1.212  0.00  0.00    -0.011 A 
ATOM     15  C   LIG    1        2.587   0.754   2.469  0.00  0.00    +0.010 A 
ATOM     16  C   LIG    1        3.385   0.752   3.596  0.00  0.00    +0.024 A 
BRANCH  11  18
ATOM     17  C   LIG    1        7.030   0.619   4.471  0.00  0.00    +0.129 C 
ATOM     18  N   LIG    1        5.578   0.751   4.605  0.00  0.00    -0.336 N 
ATOM     19  C   LIG    1        4.974   0.887   5.933  0.00  0.00    +0.129 C 
ENDBRANCH  11  18
ENDBRANCH   1  14
BRANCH   2  20
ATOM     20  O   LIG    1        1.670   3.088   0.020  0.00  0.00    -0.505 OA
ATOM     21  H   LIG    1        2.576   3.328   0.015  0.00  0.00    +0.292 HD
ENDBRANCH   2  20
TORSDOF 3
