REMARK  Name = ZINC05117007
REMARK                            x       y       z     vdW  Elec       q    Type
REMARK                         _______ _______ _______ _____ _____    ______ ____
ROOT
ATOM      1  C   LIG    1        1.159   2.064   0.002  0.00  0.00    +0.069 A 
ATOM      2  C   LIG    1        1.142   3.466   0.009  0.00  0.00    +0.074 A 
ATOM      3  C   LIG    1       -0.087   4.136   0.024  0.00  0.00    +0.131 A 
ATOM      4  N   LIG    1        0.182   5.469   0.029  0.00  0.00    -0.324 N 
ATOM      5  H   LIG    1       -0.522   6.216   0.040  0.00  0.00    +0.169 HD
ATOM      6  C   LIG    1        1.477   5.651   0.018  0.00  0.00    +0.169 A 
ATOM      7  C   LIG    1       -1.277   3.380   0.031  0.00  0.00    +0.276 A 
ATOM      8  N   LIG    1       -1.215   2.034   0.019  0.00  0.00    -0.309 N 
ATOM      9  H   LIG    1       -2.064   1.505   0.017  0.00  0.00    +0.170 HD
ATOM     10  O   LIG    1       -2.360   3.943   0.043  0.00  0.00    -0.266 OA
ATOM     11  N   LIG    1        2.113   4.439   0.006  0.00  0.00    -0.328 N 
ATOM     12  H   LIG    1        3.102   4.289  -0.004  0.00  0.00    +0.169 HD
ATOM     13  C   LIG    1       -0.017   1.378   0.010  0.00  0.00    +0.098 A 
ENDROOT
BRANCH   6  14
ATOM     14  N   LIG    1        2.109   6.881   0.019  0.00  0.00    -0.330 N 
ATOM     15  H   LIG    1        1.583   7.696   0.029  0.00  0.00    +0.145 HD
ATOM     16  H   LIG    1        3.077   6.929   0.011  0.00  0.00    +0.145 HD
ENDBRANCH   6  14
BRANCH  13  17
ATOM     17  N   LIG    1        0.002  -0.004   0.002  0.00  0.00    -0.344 N 
ATOM     18  H   LIG    1       -0.831  -0.500   0.007  0.00  0.00    +0.144 HD
ATOM     19  H   LIG    1        0.849  -0.478  -0.009  0.00  0.00    +0.144 HD
ENDBRANCH  13  17
TORSDOF 2
