REMARK  Name = ZINC05049216
REMARK                            x       y       z     vdW  Elec       q    Type
REMARK                         _______ _______ _______ _____ _____    ______ ____
ROOT
ATOM      1  C   LIG    1        5.248   8.558   0.040  0.00  0.00    +0.158 C 
ATOM      2  C   LIG    1        4.837   9.994  -0.277  0.00  0.00    +0.079 C 
ATOM      3  C   LIG    1        3.597  10.335   0.558  0.00  0.00    +0.133 C 
ATOM      4  C   LIG    1        2.417   9.533   0.016  0.00  0.00    +0.082 C 
ATOM      5  C   LIG    1        2.773   8.072  -0.094  0.00  0.00    +0.007 A 
ATOM      6  C   LIG    1        1.717   7.159  -0.207  0.00  0.00    +0.132 A 
ATOM      7  C   LIG    1        1.971   5.793  -0.321  0.00  0.00    +0.078 A 
ATOM      8  C   LIG    1        0.861   4.833  -0.442  0.00  0.00    +0.198 C 
ATOM      9  C   LIG    1        1.147   3.388  -0.562  0.00  0.00    +0.037 A 
ATOM     10  C   LIG    1        0.105   2.474  -0.677  0.00  0.00    +0.012 A 
ATOM     11  C   LIG    1        0.380   1.121  -0.794  0.00  0.00    +0.004 A 
ATOM     12  C   LIG    1        1.683   0.666  -0.788  0.00  0.00    +0.046 A 
ATOM     13  C   LIG    1        2.740   1.563  -0.675  0.00  0.00    +0.132 A 
ATOM     14  C   LIG    1        2.479   2.932  -0.561  0.00  0.00    +0.075 A 
ATOM     15  C   LIG    1        3.589   3.894  -0.442  0.00  0.00    +0.202 C 
ATOM     16  O   LIG    1        4.740   3.499  -0.442  0.00  0.00    -0.286 OA
ATOM     17  O   LIG    1       -0.289   5.228  -0.441  0.00  0.00    -0.286 OA
ATOM     18  C   LIG    1        3.304   5.335  -0.320  0.00  0.00    +0.078 A 
ATOM     19  C   LIG    1        4.343   6.256  -0.203  0.00  0.00    +0.134 A 
ATOM     20  C   LIG    1        4.071   7.626  -0.090  0.00  0.00    +0.030 A 
ENDROOT
BRANCH   3  21
ATOM     21  O   LIG    1        3.317  11.733   0.455  0.00  0.00    -0.381 OA
ATOM     22  H   LIG    1        2.544  12.018   0.961  0.00  0.00    +0.211 HD
ENDBRANCH   3  21
BRANCH   3  23
ATOM     23  C   LIG    1        3.840   9.971   2.000  0.00  0.00    +0.190 C 
ATOM     24  O   LIG    1        3.459   8.907   2.426  0.00  0.00    -0.292 OA
BRANCH  23  25
ATOM     25  C   LIG    1        4.558  10.934   2.910  0.00  0.00    +0.233 C 
BRANCH  25  26
ATOM     26  O   LIG    1        4.665  10.365   4.216  0.00  0.00    -0.387 OA
ATOM     27  H   LIG    1        5.118  10.931   4.856  0.00  0.00    +0.210 HD
ENDBRANCH  25  26
ENDBRANCH  23  25
ENDBRANCH   3  23
BRANCH   6  28
ATOM     28  O   LIG    1        0.437   7.607  -0.207  0.00  0.00    -0.506 OA
ATOM     29  H   LIG    1        0.039   7.659   0.672  0.00  0.00    +0.292 HD
ENDBRANCH   6  28
BRANCH  13  30
ATOM     30  O   LIG    1        4.019   1.112  -0.674  0.00  0.00    -0.494 OA
ATOM     31  C   LIG    1        4.208  -0.299  -0.794  0.00  0.00    +0.277 C 
ENDBRANCH  13  30
BRANCH  19  32
ATOM     32  O   LIG    1        5.628   5.823  -0.201  0.00  0.00    -0.506 OA
ATOM     33  H   LIG    1        6.002   5.696  -1.083  0.00  0.00    +0.292 HD
ENDBRANCH  19  32
BRANCH   1  34
ATOM     34  O   LIG    1        6.273   8.150  -0.869  0.00  0.00    -0.343 OA
BRANCH  34  40
ATOM     35  C   LIG    1        9.326   9.642   1.516  0.00  0.00    +0.040 C 
ATOM     36  C   LIG    1        9.166  10.140   0.078  0.00  0.00    +0.145 C 
ATOM     37  C   LIG    1       10.232   9.492  -0.809  0.00  0.00    +0.129 C 
ATOM     38  C   LIG    1       10.024   7.975  -0.818  0.00  0.00    -0.039 C 
ATOM     39  C   LIG    1        8.603   7.668  -1.299  0.00  0.00    +0.048 C 
ATOM     40  C   LIG    1        7.600   8.386  -0.393  0.00  0.00    +0.250 C 
ATOM     41  O   LIG    1        7.868   9.790  -0.406  0.00  0.00    -0.346 OA
BRANCH  38  42
ATOM     42  N   LIG    1       11.018   7.358  -1.715  0.00  0.00    +0.382 N 
ATOM     43  H   LIG    1       11.960   7.548  -1.356  0.00  0.00    -0.090 HD
ATOM     44  H   LIG    1       10.933   7.749  -2.652  0.00  0.00    -0.090 HD
ATOM     45  H   LIG    1       10.874   6.350  -1.755  0.00  0.00    -0.090 HD
ENDBRANCH  38  42
BRANCH  37  46
ATOM     46  O   LIG    1       11.531   9.794  -0.295  0.00  0.00    -0.391 OA
ATOM     47  H   LIG    1       11.731  10.739  -0.261  0.00  0.00    +0.210 HD
ENDBRANCH  37  46
ENDBRANCH  34  40
ENDBRANCH   1  34
TORSDOF 11
