REMARK  Name = ZINC04957092
REMARK                            x       y       z     vdW  Elec       q    Type
REMARK                         _______ _______ _______ _____ _____    ______ ____
ROOT
ATOM      1  C   LIG    1       -1.425   3.409   2.465  0.00  0.00    -0.007 A 
ATOM      2  C   LIG    1       -1.531   4.776   2.627  0.00  0.00    +0.007 A 
ATOM      3  C   LIG    1       -1.003   5.630   1.677  0.00  0.00    +0.000 A 
ATOM      4  C   LIG    1       -0.367   5.117   0.561  0.00  0.00    +0.004 A 
ATOM      5  C   LIG    1       -0.253   3.751   0.396  0.00  0.00    +0.046 A 
ATOM      6  C   LIG    1       -0.787   2.892   1.346  0.00  0.00    +0.123 A 
ENDROOT
BRANCH   6   7
ATOM      7  O   LIG    1       -0.682   1.547   1.184  0.00  0.00    -0.495 OA
ATOM      8  C   LIG    1       -0.013   1.086   0.008  0.00  0.00    +0.277 C 
ENDBRANCH   6   7
BRANCH   1   9
ATOM      9  C   LIG    1       -2.000   2.479   3.502  0.00  0.00    +0.022 C 
BRANCH   9  11
ATOM     10  C   LIG    1       -1.514   1.236   5.614  0.00  0.00    -0.014 C 
ATOM     11  C   LIG    1       -0.904   2.079   4.492  0.00  0.00    -0.074 C 
BRANCH  11  12
ATOM     12  N   LIG    1        0.110   1.275   3.787  0.00  0.00    +0.380 N 
ATOM     13  H   LIG    1       -0.329   0.420   3.425  0.00  0.00    -0.090 HD
ATOM     14  H   LIG    1        0.859   1.018   4.428  0.00  0.00    -0.090 HD
ATOM     15  H   LIG    1        0.496   1.805   3.008  0.00  0.00    -0.090 HD
ENDBRANCH  11  12
ENDBRANCH   9  11
ENDBRANCH   1   9
TORSDOF 4
