REMARK  Name = ZINC05740940
REMARK                            x       y       z     vdW  Elec       q    Type
REMARK                         _______ _______ _______ _____ _____    ______ ____
ROOT
ATOM      1  C   LIG    1        4.918   0.018   0.206  0.00  0.00    +0.139 C 
ATOM      2  S   LIG    1        5.034   1.657   0.683  0.00  0.00    -0.018 S 
ENDROOT
BRANCH   1   3
ATOM      3  N   LIG    1        3.751  -0.643   0.341  0.00  0.00    -0.296 N 
ATOM      4  H   LIG    1        3.692  -1.580   0.097  0.00  0.00    +0.154 HD
BRANCH   3   8
ATOM      5  C   LIG    1        0.390   1.343   1.806  0.00  0.00    +0.001 A 
ATOM      6  C   LIG    1        1.229   1.966   0.895  0.00  0.00    +0.002 A 
ATOM      7  C   LIG    1        2.342   1.311   0.408  0.00  0.00    +0.024 A 
ATOM      8  C   LIG    1        2.630   0.019   0.830  0.00  0.00    +0.047 A 
ATOM      9  C   LIG    1        1.782  -0.615   1.754  0.00  0.00    +0.080 A 
ATOM     10  C   LIG    1        0.658   0.063   2.237  0.00  0.00    +0.017 A 
BRANCH   9  11
ATOM     11  C   LIG    1        2.075  -1.983   2.209  0.00  0.00    +0.339 C 
ATOM     12  O   LIG    1        1.281  -2.570   2.931  0.00  0.00    -0.245 OA
BRANCH  11  13
ATOM     13  O   LIG    1        3.112  -2.533   1.865  0.00  0.00    -0.477 OA
ATOM     14  H   LIG    1        3.720  -2.084   1.312  0.00  0.00    +0.295 HD
ENDBRANCH  11  13
ENDBRANCH   9  11
ENDBRANCH   3   8
ENDBRANCH   1   3
BRANCH   1  15
ATOM     15  N   LIG    1        5.994  -0.613  -0.305  0.00  0.00    -0.297 N 
ATOM     16  H   LIG    1        5.946  -1.558  -0.518  0.00  0.00    +0.154 HD
BRANCH  15  17
ATOM     17  C   LIG    1        7.179   0.095  -0.528  0.00  0.00    +0.033 A 
ATOM     18  C   LIG    1        7.670   0.954   0.446  0.00  0.00    +0.025 A 
ATOM     19  C   LIG    1        8.841   1.652   0.222  0.00  0.00    +0.030 A 
ATOM     20  C   LIG    1        9.524   1.496  -0.970  0.00  0.00    +0.105 A 
ATOM     21  C   LIG    1        9.037   0.642  -1.942  0.00  0.00    +0.030 A 
ATOM     22  C   LIG    1        7.870  -0.064  -1.723  0.00  0.00    +0.025 A 
BRANCH  20  23
ATOM     23  S   LIG    1       11.017   2.389  -1.252  0.00  0.00    +0.056 S 
ATOM     24  O   LIG    1       10.970   3.534  -0.412  0.00  0.00    -0.153 OA
ATOM     25  O   LIG    1       11.173   2.484  -2.661  0.00  0.00    -0.153 OA
BRANCH  23  26
ATOM     26  N   LIG    1       12.262   1.447  -0.699  0.00  0.00    -0.204 NA
ATOM     27  H   LIG    1       12.116   0.835   0.038  0.00  0.00    +0.144 HD
ATOM     28  H   LIG    1       13.137   1.508  -1.114  0.00  0.00    +0.144 HD
ENDBRANCH  23  26
ENDBRANCH  20  23
ENDBRANCH  15  17
ENDBRANCH   1  15
TORSDOF 8
