REMARK  Name = ZINC05579377
REMARK                            x       y       z     vdW  Elec       q    Type
REMARK                         _______ _______ _______ _____ _____    ______ ____
ROOT
ATOM      1  C   LIG    1        0.016   0.870  -0.622  0.00  0.00    +0.020 C 
ATOM      2  C   LIG    1        0.198  -0.598  -0.231  0.00  0.00    +0.080 C 
ENDROOT
BRANCH   2   3
ATOM      3  C   LIG    1        0.789  -0.679   1.153  0.00  0.00    -0.013 C 
ATOM      4  C   LIG    1        0.075  -1.200   2.153  0.00  0.00    -0.054 C 
ATOM      5  C   LIG    1       -1.365  -1.585   1.930  0.00  0.00    +0.043 C 
BRANCH   4   6
ATOM      6  C   LIG    1        0.691  -1.398   3.465  0.00  0.00    +0.008 C 
ATOM      7  C   LIG    1       -0.031  -1.926   4.478  0.00  0.00    +0.069 C 
BRANCH   7   8
ATOM      8  C   LIG    1        0.584  -2.124   5.790  0.00  0.00    +0.259 C 
ATOM      9  N   LIG    1       -0.137  -2.651   6.800  0.00  0.00    -0.194 N 
ATOM     10  H   LIG    1       -1.063  -2.898   6.657  0.00  0.00    +0.183 HD
ATOM     11  O   LIG    1        1.747  -1.813   5.970  0.00  0.00    -0.269 OA
BRANCH   9  12
ATOM     12  O   LIG    1        0.460  -2.842   8.070  0.00  0.00    -0.295 OA
ATOM     13  H   LIG    1       -0.135  -3.225   8.730  0.00  0.00    +0.241 HD
ENDBRANCH   9  12
ENDBRANCH   7   8
ENDBRANCH   4   6
ENDBRANCH   2   3
BRANCH   2  14
ATOM     14  C   LIG    1        1.125  -1.268  -1.213  0.00  0.00    +0.170 C 
ATOM     15  O   LIG    1        2.309  -1.356  -0.966  0.00  0.00    -0.291 OA
BRANCH  14  16
ATOM     16  C   LIG    1        0.595  -1.814  -2.467  0.00  0.00    +0.018 A 
ATOM     17  C   LIG    1       -0.772  -1.708  -2.757  0.00  0.00    +0.013 A 
ATOM     18  C   LIG    1       -1.261  -2.218  -3.926  0.00  0.00    +0.024 A 
ATOM     19  C   LIG    1       -0.404  -2.841  -4.829  0.00  0.00    +0.029 A 
ATOM     20  C   LIG    1        0.956  -2.949  -4.545  0.00  0.00    +0.024 A 
ATOM     21  C   LIG    1        1.454  -2.437  -3.381  0.00  0.00    +0.013 A 
BRANCH  19  22
ATOM     22  N   LIG    1       -0.906  -3.358  -6.016  0.00  0.00    -0.336 N 
ATOM     23  C   LIG    1       -0.006  -4.015  -6.968  0.00  0.00    +0.129 C 
ATOM     24  C   LIG    1       -2.335  -3.247  -6.317  0.00  0.00    +0.129 C 
ENDBRANCH  19  22
ENDBRANCH  14  16
ENDBRANCH   2  14
TORSDOF 7
