REMARK  Name = ZINC05383893
REMARK                            x       y       z     vdW  Elec       q    Type
REMARK                         _______ _______ _______ _____ _____    ______ ____
ROOT
ATOM      1  N   LIG    1        2.566  -0.824  -6.148  0.00  0.00    -0.174 NA
ATOM      2  C   LIG    1        1.390  -0.903  -7.027  0.00  0.00    +0.128 C 
ATOM      3  C   LIG    1        0.625   0.423  -6.943  0.00  0.00    +0.122 C 
ATOM      4  N   LIG    1        1.578   1.527  -7.130  0.00  0.00    -0.327 N 
ATOM      5  C   LIG    1        2.753   1.606  -6.252  0.00  0.00    +0.122 C 
ATOM      6  C   LIG    1        3.515   0.282  -6.332  0.00  0.00    +0.128 C 
ENDROOT
BRANCH   4   7
ATOM      7  C   LIG    1        1.369   2.485  -8.129  0.00  0.00    +0.030 A 
ATOM      8  C   LIG    1        2.211   3.586  -8.222  0.00  0.00    +0.027 A 
ATOM      9  C   LIG    1        2.005   4.531  -9.208  0.00  0.00    +0.047 A 
ATOM     10  C   LIG    1        0.957   4.381 -10.104  0.00  0.00    +0.120 A 
ATOM     11  C   LIG    1        0.115   3.283 -10.011  0.00  0.00    +0.047 A 
ATOM     12  C   LIG    1        0.324   2.334  -9.030  0.00  0.00    +0.027 A 
BRANCH  10  13
ATOM     13  O   LIG    1        0.755   5.312 -11.075  0.00  0.00    -0.495 OA
ATOM     14  C   LIG    1       -0.343   5.095 -11.963  0.00  0.00    +0.277 C 
ENDBRANCH  10  13
ENDBRANCH   4   7
BRANCH   1  15
ATOM     15  S   LIG    1        2.812  -1.958  -4.967  0.00  0.00    +0.061 S 
ATOM     16  O   LIG    1        2.118  -3.129  -5.376  0.00  0.00    -0.153 OA
ATOM     17  O   LIG    1        4.206  -1.958  -4.688  0.00  0.00    -0.153 OA
BRANCH  15  21
ATOM     18  C   LIG    1        0.745  -0.469  -1.225  0.00  0.00    -0.042 A 
ATOM     19  C   LIG    1        0.056  -1.258  -2.128  0.00  0.00    +0.006 A 
ATOM     20  C   LIG    1        0.688  -1.713  -3.270  0.00  0.00    +0.029 A 
ATOM     21  C   LIG    1        2.007  -1.378  -3.511  0.00  0.00    +0.105 A 
ATOM     22  C   LIG    1        2.695  -0.588  -2.609  0.00  0.00    +0.029 A 
ATOM     23  C   LIG    1        2.062  -0.130  -1.468  0.00  0.00    +0.006 A 
BRANCH  18  25
ATOM     24  C   LIG    1        0.051   1.557   0.026  0.00  0.00    +0.015 C 
ATOM     25  C   LIG    1        0.056   0.027   0.020  0.00  0.00    -0.013 C 
ATOM     26  C   LIG    1       -1.384  -0.488   0.046  0.00  0.00    +0.015 C 
ATOM     27  C   LIG    1        0.803  -0.485   1.254  0.00  0.00    +0.015 C 
ENDBRANCH  18  25
ENDBRANCH  15  21
ENDBRANCH   1  15
TORSDOF 5
