REMARK  Name = ZINC05682074
REMARK                            x       y       z     vdW  Elec       q    Type
REMARK                         _______ _______ _______ _____ _____    ______ ____
ROOT
ATOM      1  C   LIG    1        0.249   4.158   0.577  0.00  0.00    -0.048 C 
ATOM      2  C   LIG    1       -0.660   3.471   1.234  0.00  0.00    -0.041 C 
ATOM      3  C   LIG    1       -0.761   1.975   1.170  0.00  0.00    -0.050 C 
ATOM      4  N   LIG    1       -0.028   1.476  -0.009  0.00  0.00    +0.386 N 
ATOM      5  H   LIG    1       -0.505   1.794  -0.860  0.00  0.00    -0.081 HD
ATOM      6  C   LIG    1        1.349   2.011   0.000  0.00  0.00    -0.073 C 
ATOM      7  C   LIG    1        1.273   3.508  -0.311  0.00  0.00    +0.017 C 
ENDROOT
BRANCH   1  11
ATOM      8  C   LIG    1        0.292   8.386   0.979  0.00  0.00    +0.000 A 
ATOM      9  C   LIG    1        0.567   7.588   2.074  0.00  0.00    +0.001 A 
ATOM     10  C   LIG    1        0.554   6.213   1.951  0.00  0.00    +0.008 A 
ATOM     11  C   LIG    1        0.264   5.630   0.717  0.00  0.00    -0.022 A 
ATOM     12  C   LIG    1       -0.007   6.441  -0.386  0.00  0.00    +0.008 A 
ATOM     13  C   LIG    1        0.004   7.814  -0.247  0.00  0.00    +0.001 A 
ENDBRANCH   1  11
BRANCH   4  14
ATOM     14  C   LIG    1        0.002  -0.004   0.002  0.00  0.00    -0.039 C 
ATOM     15  C   LIG    1        0.606  -0.499  -1.314  0.00  0.00    -0.013 C 
ATOM     16  C   LIG    1        0.627  -2.029  -1.322  0.00  0.00    -0.001 C 
ATOM     17  C   LIG    1       -0.802  -2.559  -1.186  0.00  0.00    +0.002 C 
ATOM     18  C   LIG    1       -1.406  -2.064   0.130  0.00  0.00    +0.030 C 
ATOM     19  C   LIG    1       -1.427  -0.534   0.139  0.00  0.00    +0.101 C 
BRANCH  19  20
ATOM     20  O   LIG    1       -2.216  -0.063  -0.955  0.00  0.00    -0.393 OA
ATOM     21  H   LIG    1       -3.136  -0.360  -0.933  0.00  0.00    +0.210 HD
ENDBRANCH  19  20
ENDBRANCH   4  14
TORSDOF 3
