REMARK  Name = ZINC05852266
REMARK                            x       y       z     vdW  Elec       q    Type
REMARK                         _______ _______ _______ _____ _____    ______ ____
ROOT
ATOM      1  C   LIG    1        1.824   5.806  -0.364  0.00  0.00    +0.139 C 
ATOM      2  N   LIG    1        1.993   4.366  -0.578  0.00  0.00    -0.267 N 
ATOM      3  C   LIG    1        3.014   3.972  -1.442  0.00  0.00    +0.079 A 
ATOM      4  C   LIG    1        3.263   4.733  -2.580  0.00  0.00    +0.027 A 
ATOM      5  C   LIG    1        4.309   4.408  -3.421  0.00  0.00    +0.002 A 
ATOM      6  C   LIG    1        5.115   3.322  -3.135  0.00  0.00    +0.004 A 
ATOM      7  C   LIG    1        4.866   2.552  -2.015  0.00  0.00    +0.048 A 
ATOM      8  C   LIG    1        3.810   2.866  -1.171  0.00  0.00    +0.150 A 
ATOM      9  O   LIG    1        3.572   2.076  -0.095  0.00  0.00    -0.453 OA
ATOM     10  C   LIG    1        2.400   1.402  -0.037  0.00  0.00    +0.141 A 
ATOM     11  C   LIG    1        2.404   0.014  -0.038  0.00  0.00    +0.049 A 
ATOM     12  C   LIG    1        1.214  -0.685  -0.016  0.00  0.00    +0.026 A 
ATOM     13  C   LIG    1        0.002  -0.004   0.002  0.00  0.00    +0.025 A 
ATOM     14  C   LIG    1       -0.017   1.380   0.010  0.00  0.00    +0.039 A 
ATOM     15  C   LIG    1        1.185   2.094   0.002  0.00  0.00    +0.081 A 
ATOM     16  C   LIG    1        1.161   3.562   0.069  0.00  0.00    +0.254 C 
ATOM     17  O   LIG    1        0.313   4.078   0.770  0.00  0.00    -0.270 OA
ENDROOT
BRANCH  13  18
ATOM     18  N   LIG    1       -1.201  -0.719   0.013  0.00  0.00    -0.358 N 
ATOM     19  H   LIG    1       -1.189  -1.689   0.007  0.00  0.00    +0.142 HD
ATOM     20  H   LIG    1       -2.047  -0.245   0.025  0.00  0.00    +0.142 HD
ENDBRANCH  13  18
TORSDOF 1
