REMARK  Name = ZINC04844909
REMARK                            x       y       z     vdW  Elec       q    Type
REMARK                         _______ _______ _______ _____ _____    ______ ____
ROOT
ATOM      1  C   LIG    1        0.910  -3.658  -3.039  0.00  0.00    +0.023 A 
ATOM      2  C   LIG    1        0.289  -4.401  -2.039  0.00  0.00    +0.042 A 
ATOM      3  C   LIG    1        0.153  -5.751  -2.151  0.00  0.00    +0.131 A 
ATOM      4  C   LIG    1        0.645  -6.408  -3.291  0.00  0.00    +0.034 A 
ATOM      5  C   LIG    1        0.523  -7.802  -3.443  0.00  0.00    +0.014 A 
ATOM      6  C   LIG    1        1.024  -8.373  -4.578  0.00  0.00    +0.020 A 
ATOM      7  C   LIG    1        1.636  -7.577  -5.545  0.00  0.00    +0.111 A 
ATOM      8  N   LIG    1        1.747  -6.279  -5.399  0.00  0.00    -0.251 NA
ATOM      9  C   LIG    1        1.278  -5.659  -4.313  0.00  0.00    +0.115 A 
ATOM     10  C   LIG    1        1.396  -4.261  -4.164  0.00  0.00    +0.148 A 
ENDROOT
BRANCH   3  11
ATOM     11  N   LIG    1       -0.510  -6.524  -1.076  0.00  0.00    +0.007 N 
ATOM     12  O   LIG    1       -1.222  -7.460  -1.356  0.00  0.00    -0.130 OA
BRANCH  11  13
ATOM     13  O   LIG    1       -0.338  -6.219   0.081  0.00  0.00    -0.396 OA
ATOM     14  H   LIG    1        0.214  -5.494   0.297  0.00  0.00    +0.329 HD
ENDBRANCH  11  13
ENDBRANCH   3  11
BRANCH  10  15
ATOM     15  O   LIG    1        1.994  -3.519  -5.132  0.00  0.00    -0.504 OA
ATOM     16  H   LIG    1        2.071  -2.591  -5.031  0.00  0.00    +0.292 HD
ENDBRANCH  10  15
BRANCH   1  17
ATOM     17  C   LIG    1        1.043  -2.165  -2.881  0.00  0.00    +0.144 C 
BRANCH  17  18
ATOM     18  C   LIG    1        2.367  -1.844  -2.237  0.00  0.00    +0.015 A 
ATOM     19  C   LIG    1        3.517  -1.419  -2.815  0.00  0.00    +0.013 A 
ATOM     20  C   LIG    1        4.621  -1.184  -2.017  0.00  0.00    +0.008 A 
ATOM     21  C   LIG    1        4.521  -1.386  -0.681  0.00  0.00    +0.045 A 
ATOM     22  S   LIG    1        2.826  -1.918  -0.513  0.00  0.00    -0.099 S 
ENDBRANCH  17  18
BRANCH  17  24
ATOM     23  C   LIG    1       -0.478  -0.396  -2.177  0.00  0.00    +0.213 C 
ATOM     24  N   LIG    1       -0.045  -1.665  -2.037  0.00  0.00    -0.304 N 
ATOM     25  H   LIG    1       -0.454  -2.247  -1.377  0.00  0.00    +0.150 HD
ATOM     26  O   LIG    1        0.033   0.331  -3.002  0.00  0.00    -0.276 OA
BRANCH  23  28
ATOM     27  C   LIG    1       -1.893   1.576  -1.668  0.00  0.00    +0.013 C 
ATOM     28  C   LIG    1       -1.597   0.118  -1.309  0.00  0.00    +0.092 C 
ENDBRANCH  23  28
ENDBRANCH  17  24
ENDBRANCH   1  17
TORSDOF 7
