REMARK  Name = ZINC05604124
REMARK                            x       y       z     vdW  Elec       q    Type
REMARK                         _______ _______ _______ _____ _____    ______ ____
ROOT
ATOM      1  C   LIG    1        1.296  -0.717  -0.926  0.00  0.00    +0.128 A 
ATOM      2  C   LIG    1        0.364  -0.378   0.051  0.00  0.00    +0.047 A 
ATOM      3  C   LIG    1        0.231   0.921   0.450  0.00  0.00    +0.011 A 
ATOM      4  C   LIG    1        1.034   1.916  -0.129  0.00  0.00    -0.024 A 
ATOM      5  C   LIG    1        1.972   1.568  -1.113  0.00  0.00    +0.011 A 
ATOM      6  C   LIG    1        2.096   0.265  -1.503  0.00  0.00    +0.047 A 
ENDROOT
BRANCH   4   7
ATOM      7  C   LIG    1        0.895   3.309   0.293  0.00  0.00    +0.026 C 
ATOM      8  C   LIG    1        2.021   4.069   0.548  0.00  0.00    +0.100 C 
ATOM      9  C   LIG    1        3.362   3.457   0.633  0.00  0.00    +0.256 C 
ATOM     10  N   LIG    1        4.415   4.263   0.879  0.00  0.00    -0.236 N 
ATOM     11  H   LIG    1        5.304   3.878   0.933  0.00  0.00    +0.159 HD
ATOM     12  C   LIG    1        4.262   5.583   1.056  0.00  0.00    +0.313 C 
ATOM     13  N   LIG    1        3.076   6.205   0.999  0.00  0.00    -0.236 N 
ATOM     14  H   LIG    1        3.038   7.165   1.137  0.00  0.00    +0.159 HD
ATOM     15  O   LIG    1        5.252   6.251   1.280  0.00  0.00    -0.252 OA
ATOM     16  O   LIG    1        3.513   2.260   0.480  0.00  0.00    -0.270 OA
ATOM     17  C   LIG    1        1.935   5.529   0.754  0.00  0.00    +0.256 C 
ATOM     18  O   LIG    1        0.865   6.105   0.705  0.00  0.00    -0.270 OA
ENDBRANCH   4   7
BRANCH   1  19
ATOM     19  O   LIG    1        1.424  -2.009  -1.317  0.00  0.00    -0.456 OA
BRANCH  19  23
ATOM     20  C   LIG    1       -1.412  -3.544  -3.890  0.00  0.00    +0.000 A 
ATOM     21  C   LIG    1       -0.371  -4.343  -3.454  0.00  0.00    +0.004 A 
ATOM     22  C   LIG    1        0.580  -3.831  -2.593  0.00  0.00    +0.046 A 
ATOM     23  C   LIG    1        0.490  -2.514  -2.165  0.00  0.00    +0.128 A 
ATOM     24  C   LIG    1       -0.559  -1.716  -2.599  0.00  0.00    +0.046 A 
ATOM     25  C   LIG    1       -1.504  -2.232  -3.464  0.00  0.00    +0.004 A 
ENDBRANCH  19  23
ENDBRANCH   1  19
TORSDOF 3
