REMARK  Name = ZINC05689279
REMARK                            x       y       z     vdW  Elec       q    Type
REMARK                         _______ _______ _______ _____ _____    ______ ____
ROOT
ATOM      1  C   LIG    1       -0.822   3.023   1.213  0.00  0.00    -0.065 C 
ATOM      2  C   LIG    1       -1.651   3.475   2.421  0.00  0.00    -0.010 C 
ATOM      3  C   LIG    1       -1.963   4.962   2.263  0.00  0.00    +0.037 C 
ATOM      4  C   LIG    1       -0.706   5.741   1.979  0.00  0.00    +0.001 A 
ATOM      5  C   LIG    1        0.454   5.142   1.537  0.00  0.00    -0.042 A 
ATOM      6  C   LIG    1        1.578   5.917   1.285  0.00  0.00    +0.007 A 
ATOM      7  C   LIG    1        1.550   7.283   1.477  0.00  0.00    +0.049 A 
ATOM      8  C   LIG    1        0.389   7.891   1.926  0.00  0.00    +0.159 A 
ATOM      9  C   LIG    1       -0.738   7.118   2.176  0.00  0.00    +0.162 A 
ATOM     10  C   LIG    1        0.564   3.655   1.317  0.00  0.00    +0.020 C 
ENDROOT
BRANCH   1  12
ATOM     11  C   LIG    1       -0.013   1.086   0.008  0.00  0.00    -0.096 C 
ATOM     12  N   LIG    1       -0.727   1.548   1.217  0.00  0.00    +0.378 N 
ATOM     13  H   LIG    1       -1.674   1.153   1.216  0.00  0.00    -0.082 HD
ATOM     14  C   LIG    1       -0.016   1.091   2.429  0.00  0.00    -0.096 C 
ENDBRANCH   1  12
BRANCH   8  15
ATOM     15  O   LIG    1        0.352   9.236   2.121  0.00  0.00    -0.503 OA
ATOM     16  H   LIG    1        0.078   9.739   1.342  0.00  0.00    +0.292 HD
ENDBRANCH   8  15
BRANCH   9  17
ATOM     17  O   LIG    1       -1.880   7.711   2.616  0.00  0.00    -0.503 OA
ATOM     18  H   LIG    1       -1.948   7.769   3.579  0.00  0.00    +0.292 HD
ENDBRANCH   9  17
TORSDOF 3
