REMARK  Name = ZINC05730833
REMARK                            x       y       z     vdW  Elec       q    Type
REMARK                         _______ _______ _______ _____ _____    ______ ____
ROOT
ATOM      1  C   LIG    1       -0.021  -4.273   2.017  0.00  0.00    +0.041 A 
ATOM      2  C   LIG    1       -0.009  -4.823   0.752  0.00  0.00    +0.024 A 
ATOM      3  C   LIG    1       -0.081  -6.201   0.575  0.00  0.00    +0.002 A 
ATOM      4  C   LIG    1       -0.165  -7.043   1.642  0.00  0.00    +0.008 A 
ATOM      5  C   LIG    1       -0.180  -6.524   2.947  0.00  0.00    -0.016 A 
ATOM      6  C   LIG    1       -0.266  -7.370   4.067  0.00  0.00    +0.008 A 
ATOM      7  C   LIG    1       -0.262  -6.834   5.318  0.00  0.00    +0.001 A 
ATOM      8  C   LIG    1       -0.190  -5.455   5.507  0.00  0.00    +0.001 A 
ATOM      9  C   LIG    1       -0.111  -4.606   4.446  0.00  0.00    +0.010 A 
ATOM     10  C   LIG    1       -0.101  -5.123   3.141  0.00  0.00    +0.003 A 
ENDROOT
BRANCH   1  11
ATOM     11  N   LIG    1        0.052  -2.891   2.184  0.00  0.00    -0.293 N 
ATOM     12  H   LIG    1        0.548  -2.518   2.929  0.00  0.00    +0.154 HD
BRANCH  11  17
ATOM     13  C   LIG    1       -1.147   1.428   0.199  0.00  0.00    +0.066 C 
ATOM     14  C   LIG    1       -1.202  -0.075   0.288  0.00  0.00    +0.047 A 
ATOM     15  C   LIG    1       -1.944  -0.808  -0.577  0.00  0.00    +0.071 A 
ATOM     16  S   LIG    1       -1.615  -2.459   0.018  0.00  0.00    -0.060 S 
ATOM     17  C   LIG    1       -0.585  -2.049   1.284  0.00  0.00    +0.163 A 
ATOM     18  N   LIG    1       -0.526  -0.737   1.210  0.00  0.00    -0.230 NA
ENDBRANCH  11  17
ENDBRANCH   1  11
TORSDOF 2
