REMARK  Name = ZINC05732241
REMARK                            x       y       z     vdW  Elec       q    Type
REMARK                         _______ _______ _______ _____ _____    ______ ____
ROOT
ATOM      1  C   LIG    1        0.607  -0.608  -1.058  0.00  0.00    +0.204 A 
ATOM      2  C   LIG    1       -0.134  -0.923  -2.196  0.00  0.00    +0.166 A 
ATOM      3  C   LIG    1        0.468  -1.537  -3.282  0.00  0.00    +0.096 A 
ATOM      4  C   LIG    1        1.819  -1.845  -3.245  0.00  0.00    +0.146 A 
ATOM      5  C   LIG    1        2.570  -1.530  -2.099  0.00  0.00    +0.109 A 
ATOM      6  C   LIG    1        4.004  -1.867  -2.084  0.00  0.00    +0.197 A 
ATOM      7  C   LIG    1        4.538  -2.494  -3.235  0.00  0.00    +0.098 A 
ATOM      8  C   LIG    1        3.725  -2.757  -4.293  0.00  0.00    +0.139 A 
ATOM      9  O   LIG    1        4.704  -1.617  -1.116  0.00  0.00    -0.287 OA
ATOM     10  O   LIG    1        2.420  -2.445  -4.296  0.00  0.00    -0.454 OA
ATOM     11  C   LIG    1        1.959  -0.904  -1.006  0.00  0.00    +0.177 A 
ENDROOT
BRANCH   8  12
ATOM     12  C   LIG    1        4.301  -3.410  -5.484  0.00  0.00    +0.018 A 
ATOM     13  C   LIG    1        5.655  -3.752  -5.510  0.00  0.00    +0.015 A 
ATOM     14  C   LIG    1        6.189  -4.361  -6.624  0.00  0.00    +0.046 A 
ATOM     15  C   LIG    1        5.382  -4.636  -7.722  0.00  0.00    +0.117 A 
ATOM     16  C   LIG    1        4.034  -4.297  -7.700  0.00  0.00    +0.046 A 
ATOM     17  C   LIG    1        3.491  -3.693  -6.588  0.00  0.00    +0.015 A 
BRANCH  15  18
ATOM     18  O   LIG    1        5.911  -5.237  -8.818  0.00  0.00    -0.507 OA
ATOM     19  H   LIG    1        5.871  -6.203  -8.795  0.00  0.00    +0.292 HD
ENDBRANCH  15  18
ENDBRANCH   8  12
BRANCH   1  21
ATOM     20  C   LIG    1       -0.017   1.425   0.010  0.00  0.00    +0.277 C 
ATOM     21  O   LIG    1        0.002  -0.004   0.002  0.00  0.00    -0.488 OA
ENDBRANCH   1  21
BRANCH   2  22
ATOM     22  O   LIG    1       -1.459  -0.625  -2.240  0.00  0.00    -0.503 OA
ATOM     23  H   LIG    1       -1.653   0.253  -2.595  0.00  0.00    +0.292 HD
ENDBRANCH   2  22
BRANCH  11  24
ATOM     24  O   LIG    1        2.686  -0.595   0.099  0.00  0.00    -0.503 OA
ATOM     25  H   LIG    1        2.710  -1.296   0.764  0.00  0.00    +0.292 HD
ENDBRANCH  11  24
TORSDOF 5
