REMARK  Name = ZINC05060148
REMARK                            x       y       z     vdW  Elec       q    Type
REMARK                         _______ _______ _______ _____ _____    ______ ____
ROOT
ATOM      1  S   LIG    1       -3.112  -0.165  -1.694  0.00  0.00    -0.148 S 
ENDROOT
BRANCH   1   2
ATOM      2  C   LIG    1       -2.527  -0.355   0.012  0.00  0.00    +0.108 C 
BRANCH   2   5
ATOM      3  C   LIG    1       -0.018   1.503   0.010  0.00  0.00    +0.086 C 
ATOM      4  C   LIG    1        0.002  -0.004   0.002  0.00  0.00    +0.107 A 
ATOM      5  C   LIG    1       -1.088  -0.804   0.003  0.00  0.00    +0.004 A 
ATOM      6  C   LIG    1       -0.630  -2.129  -0.007  0.00  0.00    +0.061 A 
ATOM      7  C   LIG    1        0.746  -2.068  -0.013  0.00  0.00    +0.212 A 
ATOM      8  O   LIG    1        1.102  -0.766  -0.013  0.00  0.00    -0.453 OA
BRANCH   7   9
ATOM      9  C   LIG    1        1.659  -3.210  -0.023  0.00  0.00    +0.372 C 
ATOM     10  O   LIG    1        1.212  -4.351  -0.027  0.00  0.00    -0.242 OA
BRANCH   9  11
ATOM     11  O   LIG    1        2.870  -3.026  -0.028  0.00  0.00    -0.475 OA
ATOM     12  H   LIG    1        3.211  -2.154  -0.025  0.00  0.00    +0.296 HD
ENDBRANCH   9  11
ENDBRANCH   7   9
ENDBRANCH   2   5
ENDBRANCH   1   2
BRANCH   1  13
ATOM     13  C   LIG    1       -4.835   0.372  -1.510  0.00  0.00    +0.143 C 
BRANCH  13  14
ATOM     14  C   LIG    1       -5.448   0.569  -2.872  0.00  0.00    +0.116 A 
ATOM     15  C   LIG    1       -6.095  -0.371  -3.577  0.00  0.00    +0.060 A 
ATOM     16  C   LIG    1       -6.511   0.278  -4.830  0.00  0.00    +0.100 A 
ATOM     17  C   LIG    1       -6.061   1.566  -4.743  0.00  0.00    +0.116 A 
ATOM     18  C   LIG    1       -6.242   2.635  -5.789  0.00  0.00    +0.087 C 
ATOM     19  O   LIG    1       -5.439   1.716  -3.571  0.00  0.00    -0.463 OA
BRANCH  16  20
ATOM     20  C   LIG    1       -7.255  -0.331  -5.942  0.00  0.00    +0.340 C 
ATOM     21  O   LIG    1       -7.596  -1.504  -5.880  0.00  0.00    -0.245 OA
BRANCH  20  22
ATOM     22  O   LIG    1       -7.533   0.336  -6.929  0.00  0.00    -0.477 OA
ATOM     23  H   LIG    1       -7.272   1.235  -6.976  0.00  0.00    +0.295 HD
ENDBRANCH  20  22
ENDBRANCH  16  20
ENDBRANCH  13  14
ENDBRANCH   1  13
TORSDOF 8
