REMARK  Name = ZINC05826864
REMARK                            x       y       z     vdW  Elec       q    Type
REMARK                         _______ _______ _______ _____ _____    ______ ____
ROOT
ATOM      1  C   LIG    1        3.634   1.539   1.157  0.00  0.00    +0.000 C 
ENDROOT
BRANCH   1   2
ATOM      2  C   LIG    1        2.199   1.009   1.168  0.00  0.00    +0.002 C 
BRANCH   2   3
ATOM      3  C   LIG    1        1.423   1.615  -0.003  0.00  0.00    +0.031 C 
BRANCH   3   4
ATOM      4  C   LIG    1       -0.013   1.086   0.008  0.00  0.00    +0.115 C 
BRANCH   4   5
ATOM      5  O   LIG    1       -0.682   1.547   1.184  0.00  0.00    -0.392 OA
ATOM      6  H   LIG    1       -0.732   2.510   1.256  0.00  0.00    +0.210 HD
ENDBRANCH   4   5
BRANCH   4   7
ATOM      7  C   LIG    1       -0.753   1.593  -1.232  0.00  0.00    +0.032 C 
BRANCH   7   8
ATOM      8  C   LIG    1       -2.147   0.964  -1.286  0.00  0.00    +0.015 C 
BRANCH   8   9
ATOM      9  C   LIG    1       -2.886   1.471  -2.526  0.00  0.00    +0.088 C 
BRANCH   9  11
ATOM     10  C   LIG    1       -5.297   0.383  -2.620  0.00  0.00    +0.004 C 
ATOM     11  C   LIG    1       -4.227   0.866  -2.578  0.00  0.00    -0.106 C 
ENDBRANCH   9  11
ENDBRANCH   8   9
ENDBRANCH   7   8
ENDBRANCH   4   7
ENDBRANCH   3   4
ENDBRANCH   2   3
ENDBRANCH   1   2
BRANCH   1  12
ATOM     12  C   LIG    1        4.410   0.933   2.328  0.00  0.00    +0.000 C 
BRANCH  12  13
ATOM     13  C   LIG    1        5.846   1.462   2.317  0.00  0.00    +0.000 C 
BRANCH  13  14
ATOM     14  C   LIG    1        6.622   0.856   3.489  0.00  0.00    +0.000 C 
BRANCH  14  15
ATOM     15  C   LIG    1        8.057   1.386   3.478  0.00  0.00    +0.000 C 
BRANCH  15  16
ATOM     16  C   LIG    1        8.833   0.780   4.649  0.00  0.00    +0.001 C 
BRANCH  16  17
ATOM     17  C   LIG    1       10.268   1.310   4.638  0.00  0.00    +0.011 C 
BRANCH  17  18
ATOM     18  C   LIG    1       11.045   0.704   5.809  0.00  0.00    +0.120 C 
BRANCH  18  19
ATOM     19  C   LIG    1       12.458   1.225   5.798  0.00  0.00    +0.305 C 
ATOM     20  O   LIG    1       12.809   2.002   4.942  0.00  0.00    -0.251 OA
BRANCH  19  21
ATOM     21  O   LIG    1       13.328   0.827   6.740  0.00  0.00    -0.481 OA
ATOM     22  H   LIG    1       13.056   0.224   7.404  0.00  0.00    +0.295 HD
ENDBRANCH  19  21
ENDBRANCH  18  19
ENDBRANCH  17  18
ENDBRANCH  16  17
ENDBRANCH  15  16
ENDBRANCH  14  15
ENDBRANCH  13  14
ENDBRANCH  12  13
ENDBRANCH   1  12
TORSDOF 17
