REMARK  Name = ZINC05114136
REMARK                            x       y       z     vdW  Elec       q    Type
REMARK                         _______ _______ _______ _____ _____    ______ ____
ROOT
ATOM      1  C   LIG    1        1.186  -0.742  -0.182  0.00  0.00    +0.102 C 
ATOM      2  C   LIG    1        0.040  -0.041   0.230  0.00  0.00    +0.134 C 
ATOM      3  C   LIG    1       -0.017   1.361   0.257  0.00  0.00    +0.089 C 
ATOM      4  C   LIG    1        1.071   2.105   0.044  0.00  0.00    +0.127 C 
ATOM      5  C   LIG    1        2.433   1.415  -0.059  0.00  0.00    +0.120 C 
ATOM      6  C   LIG    1        3.251   1.656   1.211  0.00  0.00    +0.033 C 
ATOM      7  C   LIG    1        3.036   2.188  -1.207  0.00  0.00    +0.058 A 
ATOM      8  C   LIG    1        4.051   1.949  -2.111  0.00  0.00    +0.128 A 
ATOM      9  C   LIG    1        4.365   2.897  -3.079  0.00  0.00    +0.092 A 
ATOM     10  C   LIG    1        3.657   4.084  -3.138  0.00  0.00    +0.136 A 
ATOM     11  C   LIG    1        2.624   4.334  -2.221  0.00  0.00    +0.120 A 
ATOM     12  C   LIG    1        2.312   3.378  -1.242  0.00  0.00    +0.152 A 
ATOM     13  O   LIG    1        1.382   3.386  -0.239  0.00  0.00    -0.458 OA
ATOM     14  C   LIG    1        2.415  -0.057  -0.379  0.00  0.00    +0.188 C 
ATOM     15  O   LIG    1        3.405  -0.632  -0.785  0.00  0.00    -0.290 OA
ENDROOT
BRANCH  11  16
ATOM     16  C   LIG    1        1.871   5.596  -2.287  0.00  0.00    +0.249 C 
ATOM     17  N   LIG    1        2.292   6.669  -1.589  0.00  0.00    -0.325 N 
ATOM     18  H   LIG    1        1.795   7.501  -1.632  0.00  0.00    +0.145 HD
ATOM     19  H   LIG    1        3.092   6.609  -1.043  0.00  0.00    +0.145 HD
ATOM     20  O   LIG    1        0.868   5.670  -2.971  0.00  0.00    -0.270 OA
ENDBRANCH  11  16
BRANCH   1  22
ATOM     21  C   LIG    1        1.883  -3.078   0.489  0.00  0.00    +0.092 C 
ATOM     22  C   LIG    1        1.116  -2.135  -0.402  0.00  0.00    +0.167 C 
ATOM     23  O   LIG    1        0.438  -2.573  -1.309  0.00  0.00    -0.292 OA
ENDBRANCH   1  22
BRANCH   2  24
ATOM     24  O   LIG    1       -1.047  -0.742   0.613  0.00  0.00    -0.506 OA
ATOM     25  H   LIG    1       -1.776  -0.109   0.876  0.00  0.00    +0.292 HD
ENDBRANCH   2  24
BRANCH   8  26
ATOM     26  O   LIG    1        4.746   0.784  -2.054  0.00  0.00    -0.506 OA
ATOM     27  H   LIG    1        4.368   0.074  -2.590  0.00  0.00    +0.292 HD
ENDBRANCH   8  26
BRANCH  10  28
ATOM     28  O   LIG    1        3.962   5.008  -4.083  0.00  0.00    -0.506 OA
ATOM     29  H   LIG    1        3.471   4.902  -4.909  0.00  0.00    +0.292 HD
ENDBRANCH  10  28
TORSDOF 5
