REMARK  Name = ZINC05705234
REMARK                            x       y       z     vdW  Elec       q    Type
REMARK                         _______ _______ _______ _____ _____    ______ ____
ROOT
ATOM      1  C   LIG    1        3.714  -0.558  -0.037  0.00  0.00    +0.204 C 
ATOM      2  O   LIG    1        3.777  -1.775  -0.044  0.00  0.00    -0.286 OA
ENDROOT
BRANCH   1   7
ATOM      3  C   LIG    1        0.002  -0.004   0.002  0.00  0.00    +0.004 A 
ATOM      4  C   LIG    1       -0.017   1.383   0.010  0.00  0.00    +0.020 A 
ATOM      5  C   LIG    1        1.181   2.078   0.002  0.00  0.00    +0.111 A 
ATOM      6  N   LIG    1        2.332   1.441  -0.013  0.00  0.00    -0.252 NA
ATOM      7  C   LIG    1        2.394   0.115  -0.020  0.00  0.00    +0.110 A 
ATOM      8  C   LIG    1        1.228  -0.648  -0.013  0.00  0.00    +0.031 A 
ENDBRANCH   1   7
BRANCH   1   9
ATOM      9  C   LIG    1        4.898   0.209  -0.044  0.00  0.00    +0.056 C 
ATOM     10  C   LIG    1        6.110  -0.410  -0.059  0.00  0.00    +0.050 C 
BRANCH  10  11
ATOM     11  C   LIG    1        7.295   0.359  -0.067  0.00  0.00    +0.128 A 
ATOM     12  C   LIG    1        8.586  -0.135  -0.076  0.00  0.00    +0.049 A 
ATOM     13  C   LIG    1        9.438   0.978  -0.083  0.00  0.00    +0.042 A 
ATOM     14  C   LIG    1        8.656   2.081  -0.069  0.00  0.00    +0.195 A 
ATOM     15  O   LIG    1        7.370   1.706  -0.059  0.00  0.00    -0.464 OA
ENDBRANCH  10  11
ENDBRANCH   1   9
TORSDOF 3
