REMARK  Name = ZINC05768418
REMARK                            x       y       z     vdW  Elec       q    Type
REMARK                         _______ _______ _______ _____ _____    ______ ____
ROOT
ATOM      1  C   LIG    1        9.916  -3.598  -0.172  0.00  0.00    +0.138 C 
ATOM      2  C   LIG    1        9.814  -2.865  -1.512  0.00  0.00    +0.035 C 
ATOM      3  C   LIG    1        8.460  -2.156  -1.598  0.00  0.00    -0.075 C 
ATOM      4  N   LIG    1        8.356  -1.184  -0.489  0.00  0.00    +0.380 N 
ATOM      5  H   LIG    1        9.155  -0.541  -0.534  0.00  0.00    -0.082 HD
ATOM      6  C   LIG    1        8.381  -1.891   0.809  0.00  0.00    -0.071 C 
ATOM      7  C   LIG    1        9.732  -2.592   0.967  0.00  0.00    +0.018 C 
ATOM      8  C   LIG    1       10.855  -1.554   0.918  0.00  0.00    +0.010 C 
ENDROOT
BRANCH   1   9
ATOM      9  C   LIG    1       11.271  -4.248  -0.056  0.00  0.00    -0.004 A 
ATOM     10  C   LIG    1       11.412  -5.431   0.645  0.00  0.00    +0.007 A 
ATOM     11  C   LIG    1       12.653  -6.030   0.748  0.00  0.00    +0.000 A 
ATOM     12  C   LIG    1       13.756  -5.441   0.158  0.00  0.00    +0.000 A 
ATOM     13  C   LIG    1       13.616  -4.255  -0.538  0.00  0.00    +0.000 A 
ATOM     14  C   LIG    1       12.373  -3.659  -0.645  0.00  0.00    +0.007 A 
ENDBRANCH   1   9
BRANCH   1  15
ATOM     15  O   LIG    1        8.882  -4.614  -0.095  0.00  0.00    -0.453 OA
BRANCH  15  16
ATOM     16  C   LIG    1        8.902  -5.577  -1.030  0.00  0.00    +0.308 C 
ATOM     17  O   LIG    1        9.808  -5.624  -1.829  0.00  0.00    -0.251 OA
BRANCH  16  19
ATOM     18  C   LIG    1        8.059  -7.575  -2.233  0.00  0.00    +0.015 C 
ATOM     19  C   LIG    1        7.796  -6.599  -1.084  0.00  0.00    +0.117 C 
ENDBRANCH  16  19
ENDBRANCH  15  16
ENDBRANCH   1  15
BRANCH   4  20
ATOM     20  C   LIG    1        7.106  -0.406  -0.616  0.00  0.00    -0.078 C 
BRANCH  20  21
ATOM     21  C   LIG    1        5.887  -1.317  -0.456  0.00  0.00    -0.011 C 
BRANCH  21  22
ATOM     22  C   LIG    1        4.609  -0.486  -0.590  0.00  0.00    +0.078 C 
BRANCH  22  23
ATOM     23  C   LIG    1        3.408  -1.383  -0.433  0.00  0.00    +0.163 C 
ATOM     24  O   LIG    1        3.559  -2.569  -0.233  0.00  0.00    -0.292 OA
BRANCH  23  25
ATOM     25  C   LIG    1        2.053  -0.819  -0.521  0.00  0.00    +0.018 A 
ATOM     26  C   LIG    1        0.936  -1.649  -0.375  0.00  0.00    +0.014 A 
ATOM     27  C   LIG    1       -0.331  -1.114  -0.458  0.00  0.00    +0.039 A 
ATOM     28  C   LIG    1       -0.500   0.244  -0.686  0.00  0.00    +0.123 A 
ATOM     29  F   LIG    1       -1.745   0.761  -0.773  0.00  0.00    -0.205 F 
ATOM     30  C   LIG    1        0.603   1.072  -0.832  0.00  0.00    +0.039 A 
ATOM     31  C   LIG    1        1.875   0.550  -0.750  0.00  0.00    +0.014 A 
ENDBRANCH  23  25
ENDBRANCH  22  23
ENDBRANCH  21  22
ENDBRANCH  20  21
ENDBRANCH   4  20
TORSDOF 9
