REMARK  Name = ZINC05647151
REMARK                            x       y       z     vdW  Elec       q    Type
REMARK                         _______ _______ _______ _____ _____    ______ ____
ROOT
ATOM      1  C   LIG    1       -0.001   4.174   0.025  0.00  0.00    +0.052 A 
ATOM      2  C   LIG    1       -1.214   3.553   0.034  0.00  0.00    +0.077 A 
ATOM      3  C   LIG    1       -1.283   2.144   0.032  0.00  0.00    +0.192 A 
ATOM      4  C   LIG    1       -0.017   1.392   0.010  0.00  0.00    +0.064 A 
ATOM      5  C   LIG    1        0.002  -0.004   0.002  0.00  0.00    +0.017 A 
ATOM      6  C   LIG    1        1.232  -0.636  -0.013  0.00  0.00    +0.021 A 
ATOM      7  C   LIG    1        2.389   0.127  -0.020  0.00  0.00    +0.113 A 
ATOM      8  N   LIG    1        2.348   1.443  -0.013  0.00  0.00    -0.237 NA
ATOM      9  C   LIG    1        1.197   2.103   0.002  0.00  0.00    +0.142 A 
ATOM     10  O   LIG    1       -2.358   1.567   0.044  0.00  0.00    -0.287 OA
ATOM     11  N   LIG    1        1.173   3.478   0.010  0.00  0.00    -0.339 N 
ATOM     12  H   LIG    1        2.012   3.965   0.005  0.00  0.00    +0.167 HD
ENDROOT
BRANCH   1  16
ATOM     13  C   LIG    1        0.133   8.418   0.049  0.00  0.00    +0.000 A 
ATOM     14  C   LIG    1       -1.088   7.768   0.057  0.00  0.00    +0.001 A 
ATOM     15  C   LIG    1       -1.139   6.389   0.049  0.00  0.00    +0.010 A 
ATOM     16  C   LIG    1        0.046   5.651   0.033  0.00  0.00    -0.002 A 
ATOM     17  C   LIG    1        1.274   6.314   0.031  0.00  0.00    +0.010 A 
ATOM     18  C   LIG    1        1.310   7.693   0.033  0.00  0.00    +0.001 A 
ENDBRANCH   1  16
TORSDOF 1
