REMARK  Name = ZINC04980705
REMARK                            x       y       z     vdW  Elec       q    Type
REMARK                         _______ _______ _______ _____ _____    ______ ____
ROOT
ATOM      1  C   LIG    1        0.729  -3.349  -1.094  0.00  0.00    +0.030 C 
ATOM      2  C   LIG    1        1.228  -4.585  -0.812  0.00  0.00    +0.079 C 
ATOM      3  C   LIG    1        0.519  -5.846  -0.518  0.00  0.00    +0.276 C 
ATOM      4  N   LIG    1        1.271  -6.899  -0.280  0.00  0.00    -0.154 NA
ATOM      5  C   LIG    1        2.593  -6.844  -0.298  0.00  0.00    +0.156 C 
ATOM      6  O   LIG    1       -0.701  -5.910  -0.499  0.00  0.00    -0.267 OA
ATOM      7  S   LIG    1        2.925  -5.136  -0.701  0.00  0.00    -0.051 S 
ENDROOT
BRANCH   1  13
ATOM      8  C   LIG    1        0.040   1.162  -2.135  0.00  0.00    +0.001 A 
ATOM      9  C   LIG    1        1.233   1.850  -2.306  0.00  0.00    +0.002 A 
ATOM     10  C   LIG    1        2.442   1.203  -2.168  0.00  0.00    +0.026 A 
ATOM     11  C   LIG    1        2.473  -0.151  -1.854  0.00  0.00    +0.047 A 
ATOM     12  C   LIG    1        1.265  -0.846  -1.681  0.00  0.00    +0.007 A 
ATOM     13  C   LIG    1        1.639  -2.237  -1.361  0.00  0.00    +0.001 A 
ATOM     14  C   LIG    1        3.007  -2.280  -1.365  0.00  0.00    +0.091 A 
ATOM     15  N   LIG    1        3.501  -1.050  -1.655  0.00  0.00    -0.360 N 
ATOM     16  H   LIG    1        4.445  -0.833  -1.714  0.00  0.00    +0.165 HD
ATOM     17  C   LIG    1        0.050  -0.180  -1.824  0.00  0.00    +0.010 A 
ENDBRANCH   1  13
BRANCH   5  18
ATOM     18  N   LIG    1        3.491  -7.856  -0.069  0.00  0.00    -0.294 N 
ATOM     19  H   LIG    1        4.450  -7.652   0.026  0.00  0.00    +0.154 HD
BRANCH  18  20
ATOM     20  C   LIG    1        3.045  -9.179   0.029  0.00  0.00    +0.051 A 
ATOM     21  C   LIG    1        1.847  -9.555  -0.565  0.00  0.00    +0.026 A 
ATOM     22  C   LIG    1        1.409 -10.861  -0.466  0.00  0.00    +0.022 A 
ATOM     23  C   LIG    1        2.162 -11.795   0.223  0.00  0.00    +0.042 A 
ATOM     24 CL   LIG    1        1.607 -13.435   0.345  0.00  0.00    -0.083 Cl
ATOM     25  C   LIG    1        3.356 -11.424   0.816  0.00  0.00    +0.041 A 
ATOM     26  C   LIG    1        3.803 -10.120   0.715  0.00  0.00    +0.063 A 
ATOM     27 CL   LIG    1        5.305  -9.657   1.452  0.00  0.00    -0.082 Cl
ENDBRANCH  18  20
ENDBRANCH   5  18
TORSDOF 3
