REMARK  Name = ZINC05195818
REMARK                            x       y       z     vdW  Elec       q    Type
REMARK                         _______ _______ _______ _____ _____    ______ ____
ROOT
ATOM      1  C   LIG    1       -1.227  -0.807   3.233  0.00  0.00    +0.040 A 
ATOM      2  C   LIG    1       -2.540  -0.355   3.328  0.00  0.00    +0.127 A 
ATOM      3  C   LIG    1       -3.396  -0.869   4.290  0.00  0.00    +0.093 A 
ATOM      4  C   LIG    1       -2.952  -1.842   5.172  0.00  0.00    +0.146 A 
ATOM      5  C   LIG    1       -1.623  -2.304   5.080  0.00  0.00    +0.101 A 
ATOM      6  C   LIG    1       -1.167  -3.297   5.979  0.00  0.00    +0.142 A 
ATOM      7  C   LIG    1       -2.069  -3.792   6.943  0.00  0.00    +0.067 A 
ATOM      8  C   LIG    1       -1.662  -4.781   7.860  0.00  0.00    +0.016 A 
ATOM      9  C   LIG    1       -2.539  -5.252   8.786  0.00  0.00    +0.168 A 
ATOM     10  C   LIG    1       -3.860  -4.752   8.832  0.00  0.00    +0.224 A 
ATOM     11  C   LIG    1       -4.274  -3.771   7.927  0.00  0.00    +0.101 A 
ATOM     12  O   LIG    1       -4.714  -5.218   9.743  0.00  0.00    -0.284 OA
ATOM     13  C   LIG    1       -3.389  -3.287   6.982  0.00  0.00    +0.143 A 
ATOM     14  O   LIG    1       -3.788  -2.339   6.108  0.00  0.00    -0.454 OA
ATOM     15  C   LIG    1       -0.763  -1.779   4.096  0.00  0.00    +0.138 A 
ENDROOT
BRANCH   2  16
ATOM     16  O   LIG    1       -2.986   0.597   2.471  0.00  0.00    -0.506 OA
ATOM     17  H   LIG    1       -3.373   0.245   1.658  0.00  0.00    +0.292 HD
ENDBRANCH   2  16
BRANCH   6  18
ATOM     18  O   LIG    1        0.099  -3.759   5.915  0.00  0.00    -0.505 OA
ATOM     19  H   LIG    1        0.688  -3.421   5.270  0.00  0.00    +0.292 HD
ENDBRANCH   6  18
BRANCH   9  20
ATOM     20  O   LIG    1       -2.144  -6.207   9.671  0.00  0.00    -0.503 OA
ATOM     21  H   LIG    1       -2.835  -6.479  10.290  0.00  0.00    +0.292 HD
ENDBRANCH   9  20
BRANCH  15  22
ATOM     22  O   LIG    1        0.515  -2.223   3.999  0.00  0.00    -0.506 OA
ATOM     23  H   LIG    1        1.146  -1.726   4.537  0.00  0.00    +0.292 HD
ENDBRANCH  15  22
BRANCH   1  24
ATOM     24  C   LIG    1       -0.311  -0.237   2.181  0.00  0.00    +0.069 C 
BRANCH  24  28
ATOM     25  C   LIG    1       -0.800   1.034  -0.288  0.00  0.00    +0.038 C 
ATOM     26  C   LIG    1       -0.707  -0.469  -0.217  0.00  0.00    -0.079 C 
ATOM     27  C   LIG    1       -0.938  -1.297  -1.455  0.00  0.00    +0.038 C 
ATOM     28  C   LIG    1       -0.424  -1.054   0.920  0.00  0.00    -0.023 C 
ENDBRANCH  24  28
ENDBRANCH   1  24
BRANCH   8  29
ATOM     29  C   LIG    1       -0.254  -5.317   7.814  0.00  0.00    +0.067 C 
BRANCH  29  30
ATOM     30  C   LIG    1        0.660  -4.393   8.576  0.00  0.00    -0.023 C 
ATOM     31  C   LIG    1        1.438  -4.869   9.517  0.00  0.00    -0.079 C 
ATOM     32  C   LIG    1        2.220  -3.928  10.396  0.00  0.00    +0.038 C 
ATOM     33  C   LIG    1        1.550  -6.358   9.720  0.00  0.00    +0.038 C 
ENDBRANCH  29  30
ENDBRANCH   8  29
TORSDOF 8
