REMARK  Name = ZINC05424029
REMARK                            x       y       z     vdW  Elec       q    Type
REMARK                         _______ _______ _______ _____ _____    ______ ____
ROOT
ATOM      1  C   LIG    1       -2.143   1.058   1.278  0.00  0.00    -0.041 A 
ATOM      2  C   LIG    1       -2.594   0.262   0.241  0.00  0.00    +0.013 A 
ATOM      3  C   LIG    1       -3.891  -0.216   0.251  0.00  0.00    -0.010 A 
ATOM      4  C   LIG    1       -4.736   0.100   1.297  0.00  0.00    +0.013 A 
ATOM      5  C   LIG    1       -4.285   0.895   2.335  0.00  0.00    -0.041 A 
ATOM      6  C   LIG    1       -2.987   1.370   2.327  0.00  0.00    +0.008 A 
ENDROOT
BRANCH   3   7
ATOM      7  C   LIG    1       -4.383  -1.082  -0.880  0.00  0.00    +0.071 C 
ATOM      8  C   LIG    1       -5.616  -0.474  -1.505  0.00  0.00    +0.136 C 
ATOM      9  C   LIG    1       -6.714  -1.443  -1.341  0.00  0.00    +0.028 A 
ATOM     10  C   LIG    1       -8.053  -1.378  -1.735  0.00  0.00    +0.012 A 
ATOM     11  C   LIG    1       -8.907  -2.429  -1.464  0.00  0.00    +0.001 A 
ATOM     12  C   LIG    1       -8.446  -3.554  -0.804  0.00  0.00    +0.001 A 
ATOM     13  C   LIG    1       -7.125  -3.640  -0.406  0.00  0.00    +0.012 A 
ATOM     14  C   LIG    1       -6.245  -2.587  -0.668  0.00  0.00    +0.033 A 
ATOM     15  C   LIG    1       -4.813  -2.431  -0.355  0.00  0.00    +0.198 C 
ATOM     16  O   LIG    1       -4.112  -3.236   0.219  0.00  0.00    -0.286 OA
BRANCH   8  17
ATOM     17  O   LIG    1       -5.689   0.611  -2.040  0.00  0.00    -0.505 OA
ATOM     18  H   LIG    1       -4.931   1.159  -2.095  0.00  0.00    +0.292 HD
ENDBRANCH   8  17
ENDBRANCH   3   7
BRANCH   1  20
ATOM     19  C   LIG    1       -0.013   1.086   0.008  0.00  0.00    +0.015 C 
ATOM     20  C   LIG    1       -0.729   1.579   1.267  0.00  0.00    -0.013 C 
ATOM     21  C   LIG    1       -0.750   3.109   1.275  0.00  0.00    +0.015 C 
ATOM     22  C   LIG    1        0.011   1.072   2.506  0.00  0.00    +0.015 C 
ENDBRANCH   1  20
BRANCH   5  23
ATOM     23  C   LIG    1       -5.207   1.240   3.475  0.00  0.00    -0.013 C 
ATOM     24  C   LIG    1       -5.372   2.759   3.556  0.00  0.00    +0.015 C 
ATOM     25  C   LIG    1       -4.612   0.722   4.786  0.00  0.00    +0.015 C 
ATOM     26  C   LIG    1       -6.572   0.591   3.242  0.00  0.00    +0.015 C 
ENDBRANCH   5  23
TORSDOF 4
