REMARK  Name = ZINC05115872
REMARK                            x       y       z     vdW  Elec       q    Type
REMARK                         _______ _______ _______ _____ _____    ______ ____
ROOT
ATOM      1  C   LIG    1        2.163   1.109   1.237  0.00  0.00    +0.120 C 
ATOM      2  C   LIG    1        3.621   1.589   1.208  0.00  0.00    +0.126 C 
ATOM      3  N   LIG    1        4.307   1.094   2.406  0.00  0.00    -0.335 N 
ATOM      4  H   LIG    1        5.281   1.356   2.399  0.00  0.00    +0.146 HD
ATOM      5  C   LIG    1        4.159  -0.294   2.585  0.00  0.00    +0.133 A 
ATOM      6  C   LIG    1        3.133  -0.995   2.026  0.00  0.00    +0.126 A 
ATOM      7  N   LIG    1        3.038  -2.346   2.250  0.00  0.00    -0.315 N 
ATOM      8  C   LIG    1        3.967  -2.977   3.017  0.00  0.00    +0.195 A 
ATOM      9  N   LIG    1        4.967  -2.315   3.558  0.00  0.00    -0.176 NA
ATOM     10  H   LIG    1        2.285  -2.866   1.848  0.00  0.00    +0.170 HD
ATOM     11  C   LIG    1        5.104  -0.994   3.373  0.00  0.00    +0.297 A 
ATOM     12  O   LIG    1        6.041  -0.396   3.883  0.00  0.00    -0.264 OA
ATOM     13  N   LIG    1        2.188  -0.363   1.238  0.00  0.00    -0.322 N 
ATOM     14  H   LIG    1        1.561  -0.875   0.703  0.00  0.00    +0.148 HD
ENDROOT
BRANCH   8  15
ATOM     15  N   LIG    1        3.859  -4.328   3.231  0.00  0.00    -0.329 N 
ATOM     16  H   LIG    1        3.126  -4.824   2.836  0.00  0.00    +0.145 HD
ATOM     17  H   LIG    1        4.517  -4.786   3.776  0.00  0.00    +0.145 HD
ENDBRANCH   8  15
BRANCH   1  18
ATOM     18  C   LIG    1        1.423   1.615  -0.003  0.00  0.00    +0.164 C 
BRANCH  18  20
ATOM     19  C   LIG    1       -0.753   1.593  -1.232  0.00  0.00    +0.040 C 
ATOM     20  C   LIG    1       -0.013   1.086   0.008  0.00  0.00    +0.142 C 
BRANCH  20  21
ATOM     21  O   LIG    1       -0.682   1.547   1.184  0.00  0.00    -0.389 OA
ATOM     22  H   LIG    1       -0.732   2.510   1.256  0.00  0.00    +0.210 HD
ENDBRANCH  20  21
ENDBRANCH  18  20
BRANCH  18  23
ATOM     23  O   LIG    1        2.091   1.155  -1.179  0.00  0.00    -0.387 OA
ATOM     24  H   LIG    1        2.142   0.192  -1.250  0.00  0.00    +0.210 HD
ENDBRANCH  18  23
ENDBRANCH   1  18
TORSDOF 5
