REMARK  Name = ZINC05762194
REMARK                            x       y       z     vdW  Elec       q    Type
REMARK                         _______ _______ _______ _____ _____    ______ ____
ROOT
ATOM      1  C   LIG    1        3.946  -1.296   1.395  0.00  0.00    +0.016 C 
ATOM      2  C   LIG    1        3.685  -0.763  -0.015  0.00  0.00    -0.010 C 
ATOM      3  C   LIG    1        3.545  -1.941  -0.982  0.00  0.00    +0.016 C 
ATOM      4  C   LIG    1        4.862   0.108  -0.450  0.00  0.00    +0.012 C 
ATOM      5  C   LIG    1        4.854   1.389   0.393  0.00  0.00    +0.012 C 
ATOM      6  C   LIG    1        3.656   2.236  -0.029  0.00  0.00    -0.010 C 
ATOM      7  C   LIG    1        3.504   3.412   0.937  0.00  0.00    +0.016 C 
ATOM      8  C   LIG    1        3.891   2.772  -1.443  0.00  0.00    +0.016 C 
ATOM      9  C   LIG    1        2.394   1.413  -0.013  0.00  0.00    -0.037 A 
ATOM     10  C   LIG    1        1.184   2.091   0.002  0.00  0.00    +0.013 A 
ATOM     11  C   LIG    1       -0.017   1.389   0.010  0.00  0.00    -0.018 A 
ATOM     12  C   LIG    1        0.002  -0.004   0.002  0.00  0.00    +0.009 A 
ATOM     13  C   LIG    1        1.208  -0.669  -0.011  0.00  0.00    +0.005 A 
ATOM     14  C   LIG    1        2.407   0.035  -0.016  0.00  0.00    -0.038 A 
ENDROOT
BRANCH  11  15
ATOM     15  C   LIG    1       -1.308   2.119   0.020  0.00  0.00    -0.017 A 
ATOM     16  C   LIG    1       -1.314   3.523   0.033  0.00  0.00    +0.009 A 
ATOM     17  C   LIG    1       -2.483   4.215   0.038  0.00  0.00    +0.009 A 
ATOM     18  C   LIG    1       -3.709   3.523   0.040  0.00  0.00    -0.017 A 
ATOM     19  C   LIG    1       -4.927   4.217   0.050  0.00  0.00    +0.023 A 
ATOM     20  C   LIG    1       -6.117   3.507   0.053  0.00  0.00    +0.059 A 
ATOM     21  C   LIG    1       -6.110   2.100   0.045  0.00  0.00    +0.015 A 
ATOM     22  C   LIG    1       -4.941   1.412   0.034  0.00  0.00    +0.009 A 
ATOM     23  C   LIG    1       -3.715   2.104   0.032  0.00  0.00    -0.017 A 
ATOM     24  C   LIG    1       -2.496   1.411   0.022  0.00  0.00    +0.017 A 
BRANCH  20  25
ATOM     25  C   LIG    1       -7.403   4.233   0.064  0.00  0.00    +0.337 C 
ATOM     26  O   LIG    1       -7.415   5.447   0.071  0.00  0.00    -0.245 OA
BRANCH  25  27
ATOM     27  O   LIG    1       -8.563   3.547   0.066  0.00  0.00    -0.477 OA
ATOM     28  H   LIG    1       -8.554   2.611   0.061  0.00  0.00    +0.295 HD
ENDBRANCH  25  27
ENDBRANCH  20  25
ENDBRANCH  11  15
TORSDOF 3
