REMARK  Name = ZINC05382972
REMARK                            x       y       z     vdW  Elec       q    Type
REMARK                         _______ _______ _______ _____ _____    ______ ____
ROOT
ATOM      1  C   LIG    1       -2.011   3.851  -0.011  0.00  0.00    -0.003 C 
ATOM      2  C   LIG    1       -2.921   2.863  -0.085  0.00  0.00    -0.019 C 
ATOM      3  C   LIG    1       -2.423   1.763  -0.999  0.00  0.00    +0.032 C 
ATOM      4  C   LIG    1       -0.875   1.975  -1.028  0.00  0.00    +0.007 C 
ATOM      5  C   LIG    1       -0.321   1.315   0.231  0.00  0.00    +0.001 C 
ATOM      6  C   LIG    1       -0.467  -0.203   0.165  0.00  0.00    +0.031 C 
ATOM      7  C   LIG    1        0.564  -0.804  -0.739  0.00  0.00    -0.027 C 
ATOM      8  C   LIG    1        1.690  -0.229  -1.026  0.00  0.00    -0.064 C 
ATOM      9  C   LIG    1        2.112   1.122  -0.513  0.00  0.00    -0.008 C 
ATOM     10  C   LIG    1        2.305   2.035  -1.722  0.00  0.00    +0.016 C 
ATOM     11  C   LIG    1        3.474   0.952   0.170  0.00  0.00    +0.015 C 
ATOM     12  C   LIG    1        4.479   0.283  -0.771  0.00  0.00    +0.046 C 
ATOM     13  C   LIG    1        3.991  -1.096  -1.202  0.00  0.00    +0.180 C 
ATOM     14  C   LIG    1        2.655  -0.967  -1.939  0.00  0.00    +0.075 C 
ATOM     15  C   LIG    1        1.125   1.704   0.473  0.00  0.00    +0.003 C 
ATOM     16  C   LIG    1        1.247   3.210   0.647  0.00  0.00    +0.005 C 
ATOM     17  C   LIG    1        0.491   4.033  -0.367  0.00  0.00    +0.012 C 
ATOM     18  C   LIG    1       -0.823   3.505  -0.867  0.00  0.00    -0.001 C 
ATOM     19  C   LIG    1       -1.076   4.114  -2.261  0.00  0.00    +0.016 C 
ENDROOT
BRANCH   1  21
ATOM     20  C   LIG    1       -3.372   5.205   1.700  0.00  0.00    +0.091 C 
ATOM     21  C   LIG    1       -2.183   5.065   0.785  0.00  0.00    +0.156 C 
ATOM     22  O   LIG    1       -1.367   5.960   0.709  0.00  0.00    -0.293 OA
ENDBRANCH   1  21
BRANCH  13  23
ATOM     23  O   LIG    1        4.969  -1.703  -2.089  0.00  0.00    -0.461 OA
BRANCH  23  24
ATOM     24  C   LIG    1        5.059  -3.042  -2.071  0.00  0.00    +0.304 C 
ATOM     25  C   LIG    1        6.051  -3.742  -2.964  0.00  0.00    +0.136 C 
ATOM     26  O   LIG    1        4.345  -3.686  -1.339  0.00  0.00    -0.251 OA
ENDBRANCH  23  24
ENDBRANCH  13  23
TORSDOF 3
