REMARK  Name = ZINC05851742
REMARK                            x       y       z     vdW  Elec       q    Type
REMARK                         _______ _______ _______ _____ _____    ______ ____
ROOT
ATOM      1  C   LIG    1        3.738   0.855   1.246  0.00  0.00    +0.018 C 
ATOM      2  C   LIG    1        2.640  -0.167   0.950  0.00  0.00    -0.002 C 
ATOM      3  C   LIG    1        1.611   0.450  -0.001  0.00  0.00    +0.036 C 
ATOM      4  C   LIG    1        2.305   1.213  -1.096  0.00  0.00    -0.026 A 
ATOM      5  C   LIG    1        2.396   0.681  -2.367  0.00  0.00    +0.005 A 
ATOM      6  C   LIG    1        3.008   1.403  -3.376  0.00  0.00    +0.000 A 
ATOM      7  C   LIG    1        3.532   2.656  -3.116  0.00  0.00    +0.002 A 
ATOM      8  C   LIG    1        3.450   3.191  -1.844  0.00  0.00    +0.024 A 
ATOM      9  C   LIG    1        2.841   2.465  -0.831  0.00  0.00    +0.040 A 
ATOM     10  N   LIG    1        2.763   2.986   0.468  0.00  0.00    -0.262 N 
ATOM     11  C   LIG    1        3.148   2.213   1.500  0.00  0.00    +0.206 C 
ATOM     12  O   LIG    1        3.014   2.612   2.637  0.00  0.00    -0.277 OA
ENDROOT
BRANCH   1  13
ATOM     13  N   LIG    1        4.487   0.420   2.441  0.00  0.00    +0.395 N 
ATOM     14  H1  LIG    1        4.562  -0.604   2.439  0.00  0.00    -0.084 HD
ATOM     15  H2  LIG    1        3.987   0.726   3.284  0.00  0.00    -0.084 HD
BRANCH  13  16
ATOM     16  CA  LIG    1        5.840   1.008   2.438  0.00  0.00    +0.040 C 
BRANCH  16  17
ATOM     17  C   LIG    1        6.193   1.445   3.837  0.00  0.00    +0.291 C 
ATOM     18  O   LIG    1        5.690   0.894   4.787  0.00  0.00    -0.253 OA
BRANCH  17  19
ATOM     19  OXT LIG    1        7.067   2.446   4.026  0.00  0.00    -0.482 OA
ATOM     20  HXT LIG    1        7.457   2.873   3.289  0.00  0.00    +0.295 HD
ENDBRANCH  17  19
ENDBRANCH  16  17
BRANCH  16  21
ATOM     21  C   LIG    1        6.848  -0.040   1.962  0.00  0.00    -0.000 C 
BRANCH  21  22
ATOM     22  C   LIG    1        6.562  -0.396   0.501  0.00  0.00    +0.034 C 
BRANCH  22  26
ATOM     23  C   LIG    1        9.428  -3.258  -0.855  0.00  0.00    +0.000 A 
ATOM     24  C   LIG    1        8.246  -3.683  -0.279  0.00  0.00    +0.000 A 
ATOM     25  C   LIG    1        7.319  -2.757   0.160  0.00  0.00    +0.003 A 
ATOM     26  C   LIG    1        7.573  -1.405   0.023  0.00  0.00    -0.047 A 
ATOM     27  C   LIG    1        8.753  -0.980  -0.559  0.00  0.00    +0.003 A 
ATOM     28  C   LIG    1        9.683  -1.906  -0.993  0.00  0.00    +0.000 A 
ENDBRANCH  22  26
ENDBRANCH  21  22
ENDBRANCH  16  21
ENDBRANCH  13  16
ENDBRANCH   1  13
BRANCH  10  29
ATOM     29  C   LIG    1        2.277   4.349   0.697  0.00  0.00    +0.233 C 
BRANCH  29  30
ATOM     30  C   LIG    1        0.783   4.324   0.894  0.00  0.00    +0.323 C 
ATOM     31  O   LIG    1        0.185   3.274   0.848  0.00  0.00    -0.249 OA
BRANCH  30  32
ATOM     32  O   LIG    1        0.115   5.467   1.116  0.00  0.00    -0.480 OA
ATOM     33  H   LIG    1        0.579   6.280   1.152  0.00  0.00    +0.295 HD
ENDBRANCH  30  32
ENDBRANCH  29  30
ENDBRANCH  10  29
TORSDOF 10
