REMARK  Name = ZINC05733766
REMARK                            x       y       z     vdW  Elec       q    Type
REMARK                         _______ _______ _______ _____ _____    ______ ____
ROOT
ATOM      1  C   LIG    1        2.508  -2.528   4.336  0.00  0.00    +0.181 A 
ATOM      2  C   LIG    1        3.217  -1.765   5.214  0.00  0.00    +0.211 A 
ATOM      3  C   LIG    1        3.945  -2.395   6.257  0.00  0.00    +0.238 A 
ATOM      4  C   LIG    1        3.890  -3.864   6.329  0.00  0.00    +0.109 A 
ATOM      5  C   LIG    1        4.577  -4.569   7.326  0.00  0.00    +0.135 A 
ATOM      6  C   LIG    1        4.500  -5.949   7.360  0.00  0.00    +0.092 A 
ATOM      7  C   LIG    1        3.745  -6.630   6.411  0.00  0.00    +0.127 A 
ATOM      8  C   LIG    1        3.062  -5.940   5.423  0.00  0.00    +0.092 A 
ATOM      9  C   LIG    1        3.127  -4.555   5.372  0.00  0.00    +0.147 A 
ATOM     10  O   LIG    1        4.591  -1.745   7.062  0.00  0.00    -0.283 OA
ATOM     11  O   LIG    1        2.463  -3.869   4.418  0.00  0.00    -0.451 OA
ENDROOT
BRANCH   1  15
ATOM     12  C   LIG    1        0.343  -0.591   1.235  0.00  0.00    +0.162 A 
ATOM     13  C   LIG    1        0.241  -0.134   2.542  0.00  0.00    +0.050 A 
ATOM     14  C   LIG    1        0.942  -0.760   3.551  0.00  0.00    +0.015 A 
ATOM     15  C   LIG    1        1.757  -1.857   3.259  0.00  0.00    +0.025 A 
ATOM     16  C   LIG    1        1.859  -2.317   1.942  0.00  0.00    +0.061 A 
ATOM     17  C   LIG    1        1.150  -1.687   0.937  0.00  0.00    +0.162 A 
BRANCH  12  19
ATOM     18  C   LIG    1       -1.157   1.148   0.620  0.00  0.00    +0.277 C 
ATOM     19  O   LIG    1       -0.350   0.030   0.245  0.00  0.00    -0.491 OA
ENDBRANCH  12  19
BRANCH  17  20
ATOM     20  O   LIG    1        1.243  -2.135  -0.343  0.00  0.00    -0.491 OA
ATOM     21  C   LIG    1        2.088  -3.264  -0.576  0.00  0.00    +0.277 C 
ENDBRANCH  17  20
ENDBRANCH   1  15
BRANCH   2  22
ATOM     22  O   LIG    1        3.228  -0.409   5.093  0.00  0.00    -0.488 OA
ATOM     23  C   LIG    1        4.475   0.202   4.755  0.00  0.00    +0.277 C 
ENDBRANCH   2  22
BRANCH   5  24
ATOM     24  O   LIG    1        5.314  -3.902   8.250  0.00  0.00    -0.506 OA
ATOM     25  H   LIG    1        4.820  -3.656   9.044  0.00  0.00    +0.292 HD
ENDBRANCH   5  24
BRANCH   7  26
ATOM     26  O   LIG    1        3.676  -7.986   6.454  0.00  0.00    -0.495 OA
ATOM     27  C   LIG    1        4.402  -8.639   7.497  0.00  0.00    +0.277 C 
ENDBRANCH   7  26
TORSDOF 6
