REMARK  Name = ZINC05420122
REMARK                            x       y       z     vdW  Elec       q    Type
REMARK                         _______ _______ _______ _____ _____    ______ ____
ROOT
ATOM      1  C   LIG    1        1.260   3.056  -0.182  0.00  0.00    +0.107 C 
ENDROOT
BRANCH   1   2
ATOM      2  C   LIG    1        2.757   3.103  -0.345  0.00  0.00    +0.309 C 
ATOM      3  O   LIG    1        3.371   4.086  -0.003  0.00  0.00    -0.251 OA
BRANCH   2   4
ATOM      4  O   LIG    1        3.409   2.054  -0.870  0.00  0.00    -0.480 OA
ATOM      5  H   LIG    1        2.932   1.291  -1.135  0.00  0.00    +0.295 HD
ENDBRANCH   2   4
ENDBRANCH   1   2
BRANCH   1   6
ATOM      6  C   LIG    1        0.594   3.723  -1.387  0.00  0.00    +0.018 C 
BRANCH   6   8
ATOM      7  C   LIG    1       -1.594   4.338  -2.424  0.00  0.00    +0.007 C 
ATOM      8  C   LIG    1       -0.925   3.580  -1.276  0.00  0.00    -0.016 C 
ATOM      9  C   LIG    1       -1.304   2.099  -1.353  0.00  0.00    +0.007 C 
ENDBRANCH   6   8
ENDBRANCH   1   6
BRANCH   1  10
ATOM     10  C   LIG    1        0.862   3.798   1.095  0.00  0.00    +0.080 C 
BRANCH  10  11
ATOM     11  S   LIG    1        1.529   2.921   2.537  0.00  0.00    -0.177 S 
ATOM     12  H   LIG    1        1.119   3.658   3.584  0.00  0.00    +0.102 HD
ENDBRANCH  10  11
ENDBRANCH   1  10
TORSDOF 6
