REMARK  Name = ZINC05729579
REMARK                            x       y       z     vdW  Elec       q    Type
REMARK                         _______ _______ _______ _____ _____    ______ ____
ROOT
ATOM      1  N   PHE A  1        3.229  -1.870   2.059  0.00  0.00    -0.268 NA
ATOM      2  C   UNK A  0        2.674  -1.525   3.171  0.00  0.00    +0.109 C 
ATOM      3  C   UNK A  0        2.872  -0.145   3.774  0.00  0.00    +0.203 C 
ATOM      4 CL   UNK A  0        3.851  -0.271   5.283  0.00  0.00    -0.106 Cl
ATOM      5  C   UNK A  0        1.503   0.412   4.095  0.00  0.00    +0.187 C 
ATOM      6  C   UNK A  0        0.482  -0.469   4.689  0.00  0.00    +0.030 A 
ATOM      7  C   UNK A  0       -0.623   0.079   5.338  0.00  0.00    +0.012 A 
ATOM      8  C   UNK A  0       -1.585  -0.752   5.883  0.00  0.00    +0.001 A 
ATOM      9  C   UNK A  0       -1.462  -2.127   5.789  0.00  0.00    +0.001 A 
ATOM     10  C   UNK A  0       -0.371  -2.692   5.153  0.00  0.00    +0.012 A 
ATOM     11  C   UNK A  0        0.609  -1.871   4.605  0.00  0.00    +0.034 A 
ATOM     12  O   UNK A  0        1.247   1.575   3.865  0.00  0.00    -0.290 OA
ATOM     13  C   UNK A  0        1.792  -2.458   3.938  0.00  0.00    +0.209 C 
ATOM     14  O   UNK A  0        2.035  -3.645   4.013  0.00  0.00    -0.285 OA
ENDROOT
BRANCH   1  15
ATOM     15  CA  PHE A  1        4.212  -0.987   1.426  0.00  0.00    +0.218 C 
BRANCH  15  16
ATOM     16  C   PHE A  1        5.487  -1.750   1.179  0.00  0.00    +0.330 C 
ATOM     17  O   PHE A  1        6.558  -1.167   1.189  0.00  0.00    -0.249 OA
BRANCH  16  18
ATOM     18  OXT PHE A  1        5.448  -2.950   0.969  0.00  0.00    -0.479 OA
ATOM     19  HXT PHE A  1        4.625  -3.398   0.961  0.00  0.00    +0.295 HD
ENDBRANCH  16  18
ENDBRANCH  15  16
BRANCH  15  20
ATOM     20  CB  PHE A  1        3.656  -0.477   0.095  0.00  0.00    +0.073 C 
BRANCH  20  24
ATOM     21  CZ  PHE A  1        0.236   1.977   0.823  0.00  0.00    +0.000 A 
ATOM     22  CE1 PHE A  1        1.497   2.543   0.780  0.00  0.00    +0.000 A 
ATOM     23  CD1 PHE A  1        2.603   1.749   0.545  0.00  0.00    +0.004 A 
ATOM     24  CG  PHE A  1        2.450   0.389   0.352  0.00  0.00    -0.045 A 
ATOM     25  CD2 PHE A  1        1.189  -0.177   0.396  0.00  0.00    +0.004 A 
ATOM     26  CE2 PHE A  1        0.083   0.617   0.630  0.00  0.00    +0.000 A 
ENDBRANCH  20  24
ENDBRANCH  15  20
ENDBRANCH   1  15
TORSDOF 5
