REMARK  Name = ZINC05833832
REMARK                            x       y       z     vdW  Elec       q    Type
REMARK                         _______ _______ _______ _____ _____    ______ ____
ROOT
ATOM      1  N   LIG    1        6.399   5.277   0.693  0.00  0.00    +0.380 N 
ATOM      2  H   LIG    1        6.718   5.357  -0.280  0.00  0.00    -0.082 HD
ATOM      3  C   LIG    1        5.053   4.668   0.708  0.00  0.00    -0.071 C 
ATOM      4  C   LIG    1        5.106   3.325  -0.024  0.00  0.00    +0.002 C 
ATOM      5  C   LIG    1        6.099   2.401   0.686  0.00  0.00    +0.004 C 
ATOM      6  C   LIG    1        7.473   3.076   0.730  0.00  0.00    -0.018 C 
ATOM      7  C   LIG    1        7.350   4.426   1.440  0.00  0.00    -0.079 C 
ENDROOT
BRANCH   4   8
ATOM      8  C   LIG    1        3.738   2.693  -0.018  0.00  0.00    -0.042 A 
ATOM      9  C   LIG    1        3.121   2.396   1.183  0.00  0.00    +0.007 A 
ATOM     10  C   LIG    1        1.863   1.823   1.193  0.00  0.00    +0.049 A 
ATOM     11  C   LIG    1        1.224   1.533  -0.001  0.00  0.00    +0.158 A 
ATOM     12  C   LIG    1        1.845   1.831  -1.210  0.00  0.00    +0.158 A 
ATOM     13  C   LIG    1        3.103   2.412  -1.214  0.00  0.00    +0.053 A 
BRANCH  11  14
ATOM     14  O   LIG    1       -0.011   0.963   0.007  0.00  0.00    -0.503 OA
ATOM     15  H   LIG    1        0.002  -0.004   0.002  0.00  0.00    +0.292 HD
ENDBRANCH  11  14
BRANCH  12  16
ATOM     16  O   LIG    1        1.219   1.555  -2.385  0.00  0.00    -0.503 OA
ATOM     17  H   LIG    1        0.668   2.277  -2.717  0.00  0.00    +0.292 HD
ENDBRANCH  12  16
ENDBRANCH   4   8
BRANCH   1  18
ATOM     18  C   LIG    1        6.350   6.626   1.293  0.00  0.00    -0.079 C 
BRANCH  18  20
ATOM     19  C   LIG    1        7.736   8.535   2.117  0.00  0.00    +0.002 C 
ATOM     20  C   LIG    1        7.778   7.126   1.521  0.00  0.00    -0.022 C 
ENDBRANCH  18  20
ENDBRANCH   1  18
TORSDOF 5
