REMARK  Name = ZINC05117282
REMARK                            x       y       z     vdW  Elec       q    Type
REMARK                         _______ _______ _______ _____ _____    ______ ____
ROOT
ATOM      1  C   LIG    1       -0.017   1.387   0.010  0.00  0.00    +0.047 A 
ATOM      2  C   LIG    1        1.164   2.101   0.002  0.00  0.00    +0.031 A 
ATOM      3  C   LIG    1        2.377   1.430  -0.013  0.00  0.00    +0.068 A 
ATOM      4  C   LIG    1        2.405   0.026  -0.021  0.00  0.00    +0.094 A 
ATOM      5  N   LIG    1        3.711  -0.348  -0.035  0.00  0.00    -0.215 NA
ATOM      6  C   LIG    1        4.474   0.716  -0.037  0.00  0.00    +0.191 A 
ATOM      7  C   LIG    1        1.203  -0.686  -0.013  0.00  0.00    +0.075 A 
ATOM      8  N   LIG    1        3.702   1.841  -0.023  0.00  0.00    -0.326 N 
ATOM      9  H   LIG    1        4.020   2.758  -0.021  0.00  0.00    +0.169 HD
ATOM     10  C   LIG    1        0.002  -0.004   0.002  0.00  0.00    +0.119 A 
ENDROOT
BRANCH   6  11
ATOM     11  N   LIG    1        5.853   0.702  -0.050  0.00  0.00    -0.329 N 
ATOM     12  H   LIG    1        6.347   1.537  -0.049  0.00  0.00    +0.145 HD
ATOM     13  H   LIG    1        6.330  -0.143  -0.059  0.00  0.00    +0.145 HD
ENDBRANCH   6  11
BRANCH  10  14
ATOM     14  O   LIG    1       -1.169  -0.696   0.010  0.00  0.00    -0.507 OA
ATOM     15  H   LIG    1       -1.516  -0.891  -0.871  0.00  0.00    +0.292 HD
ENDBRANCH  10  14
TORSDOF 2
