REMARK  Name = ZINC05462666
REMARK                            x       y       z     vdW  Elec       q    Type
REMARK                         _______ _______ _______ _____ _____    ______ ____
ROOT
ATOM      1  C   LIG    1        2.151   1.562  -1.251  0.00  0.00    +0.019 C 
ATOM      2  C   LIG    1        1.422   2.058  -0.001  0.00  0.00    +0.098 C 
ATOM      3  C   LIG    1       -0.019   1.526   0.010  0.00  0.00    +0.181 C 
ATOM      4  C   LIG    1        0.002  -0.004   0.002  0.00  0.00    +0.052 C 
ATOM      5  O   LIG    1       -0.706   1.999  -1.147  0.00  0.00    -0.488 OA
ATOM      6  C   LIG    1       -0.705   3.330  -1.406  0.00  0.00    +0.136 A 
ATOM      7  C   LIG    1       -1.684   3.861  -2.196  0.00  0.00    +0.056 A 
ATOM      8  C   LIG    1       -1.697   5.235  -2.487  0.00  0.00    +0.004 A 
ATOM      9  C   LIG    1       -0.691   6.082  -1.960  0.00  0.00    +0.067 A 
ATOM     10  C   LIG    1        0.316   5.536  -1.142  0.00  0.00    +0.142 A 
ATOM     11  C   LIG    1       -0.710   7.460  -2.259  0.00  0.00    +0.132 A 
ATOM     12  C   LIG    1       -1.705   7.977  -3.059  0.00  0.00    +0.092 A 
ATOM     13  C   LIG    1       -2.699   7.154  -3.582  0.00  0.00    +0.129 A 
ATOM     14  C   LIG    1       -2.708   5.789  -3.306  0.00  0.00    +0.036 A 
ATOM     15  C   LIG    1        0.303   4.167  -0.869  0.00  0.00    +0.101 A 
ATOM     16  C   LIG    1        1.340   3.573  -0.017  0.00  0.00    +0.176 C 
ATOM     17  O   LIG    1        2.094   4.260   0.642  0.00  0.00    -0.291 OA
ENDROOT
BRANCH  14  18
ATOM     18  C   LIG    1       -3.768   4.924  -3.865  0.00  0.00    +0.036 A 
ATOM     19  C   LIG    1       -4.967   4.713  -3.146  0.00  0.00    +0.004 A 
ATOM     20  C   LIG    1       -5.170   5.323  -1.897  0.00  0.00    +0.056 A 
ATOM     21  C   LIG    1       -6.327   5.115  -1.205  0.00  0.00    +0.136 A 
ATOM     22  C   LIG    1       -7.333   4.276  -1.744  0.00  0.00    +0.101 A 
ATOM     23  C   LIG    1       -8.565   4.059  -0.974  0.00  0.00    +0.176 C 
ATOM     24  C   LIG    1       -8.794   4.974   0.215  0.00  0.00    +0.098 C 
ATOM     25  C   LIG    1       -9.320   6.328  -0.265  0.00  0.00    +0.019 C 
ATOM     26  C   LIG    1       -7.440   5.157   0.915  0.00  0.00    +0.181 C 
ATOM     27  C   LIG    1       -7.607   6.095   2.112  0.00  0.00    +0.052 C 
ATOM     28  O   LIG    1       -9.358   3.191  -1.274  0.00  0.00    -0.291 OA
ATOM     29  C   LIG    1       -7.161   3.661  -2.985  0.00  0.00    +0.142 A 
ATOM     30  O   LIG    1       -6.504   5.720  -0.004  0.00  0.00    -0.488 OA
ATOM     31  C   LIG    1       -5.969   3.878  -3.699  0.00  0.00    +0.067 A 
ATOM     32  C   LIG    1       -5.761   3.275  -4.957  0.00  0.00    +0.132 A 
ATOM     33  C   LIG    1       -4.585   3.497  -5.640  0.00  0.00    +0.092 A 
ATOM     34  C   LIG    1       -3.595   4.317  -5.107  0.00  0.00    +0.129 A 
BRANCH  29  35
ATOM     35  O   LIG    1       -8.130   2.865  -3.494  0.00  0.00    -0.505 OA
ATOM     36  H   LIG    1       -8.777   3.333  -4.040  0.00  0.00    +0.292 HD
ENDBRANCH  29  35
BRANCH  32  37
ATOM     37  O   LIG    1       -6.718   2.477  -5.494  0.00  0.00    -0.506 OA
ATOM     38  H   LIG    1       -7.358   2.947  -6.046  0.00  0.00    +0.292 HD
ENDBRANCH  32  37
BRANCH  34  39
ATOM     39  O   LIG    1       -2.446   4.524  -5.801  0.00  0.00    -0.506 OA
ATOM     40  H   LIG    1       -1.749   3.882  -5.609  0.00  0.00    +0.292 HD
ENDBRANCH  34  39
ENDBRANCH  14  18
BRANCH  10  41
ATOM     41  O   LIG    1        1.284   6.328  -0.626  0.00  0.00    -0.505 OA
ATOM     42  H   LIG    1        2.066   6.412  -1.190  0.00  0.00    +0.292 HD
ENDBRANCH  10  41
BRANCH  11  43
ATOM     43  O   LIG    1        0.251   8.277  -1.757  0.00  0.00    -0.506 OA
ATOM     44  H   LIG    1        0.031   8.662  -0.897  0.00  0.00    +0.292 HD
ENDBRANCH  11  43
BRANCH  13  45
ATOM     45  O   LIG    1       -3.669   7.687  -4.369  0.00  0.00    -0.506 OA
ATOM     46  H   LIG    1       -4.448   7.989  -3.882  0.00  0.00    +0.292 HD
ENDBRANCH  13  45
TORSDOF 7
