REMARK  Name = ZINC05390793
REMARK                            x       y       z     vdW  Elec       q    Type
REMARK                         _______ _______ _______ _____ _____    ______ ____
ROOT
ATOM      1  C   LIG    1       -2.502   1.005   0.066  0.00  0.00    +0.232 C 
ATOM      2  N   LIG    1       -3.681   1.562   0.066  0.00  0.00    -0.205 NA
ATOM      3  C   LIG    1       -4.636   0.588   0.044  0.00  0.00    +0.152 C 
ATOM      4  C   LIG    1       -3.894  -0.688   0.041  0.00  0.00    +0.364 C 
ATOM      5  O   LIG    1       -4.358  -1.812   0.028  0.00  0.00    -0.243 OA
ATOM      6  C   LIG    1       -6.003   0.759   0.034  0.00  0.00    +0.044 C 
ATOM      7  O   LIG    1       -2.589  -0.339   0.055  0.00  0.00    -0.402 OA
ENDROOT
BRANCH   1  10
ATOM      8  C   LIG    1       -0.045   3.844   0.109  0.00  0.00    +0.002 A 
ATOM      9  C   LIG    1       -1.238   3.150   0.098  0.00  0.00    +0.013 A 
ATOM     10  C   LIG    1       -1.230   1.754   0.083  0.00  0.00    +0.038 A 
ATOM     11  C   LIG    1       -0.012   1.069   0.087  0.00  0.00    +0.033 A 
ATOM     12  C   LIG    1        1.173   1.775   0.098  0.00  0.00    +0.042 A 
ATOM     13 CL   LIG    1        2.688   0.927   0.096  0.00  0.00    -0.084 Cl
ATOM     14  C   LIG    1        1.157   3.160   0.108  0.00  0.00    +0.020 A 
ENDBRANCH   1  10
BRANCH   6  15
ATOM     15  C   LIG    1       -6.574   2.104   0.154  0.00  0.00    -0.005 A 
ATOM     16  C   LIG    1       -5.743   3.237   0.163  0.00  0.00    +0.011 A 
ATOM     17  C   LIG    1       -6.334   4.481   0.274  0.00  0.00    +0.020 A 
ATOM     18  C   LIG    1       -7.711   4.571   0.382  0.00  0.00    +0.111 A 
ATOM     19  N   LIG    1       -8.469   3.491   0.375  0.00  0.00    -0.263 NA
ATOM     20  C   LIG    1       -7.959   2.283   0.267  0.00  0.00    +0.118 A 
ENDBRANCH   6  15
TORSDOF 2
