REMARK  Name = ZINC05760031
REMARK                            x       y       z     vdW  Elec       q    Type
REMARK                         _______ _______ _______ _____ _____    ______ ____
ROOT
ATOM      1  C   LIG    1       -0.938  -1.836  -0.200  0.00  0.00    -0.018 C 
ENDROOT
BRANCH   1   2
ATOM      2  C   LIG    1       -1.331  -0.502   0.438  0.00  0.00    +0.005 C 
BRANCH   2   4
ATOM      3  C   LIG    1       -2.219   1.788  -0.018  0.00  0.00    +0.007 C 
ATOM      4  C   LIG    1       -1.711   0.495  -0.659  0.00  0.00    -0.017 C 
ATOM      5  C   LIG    1       -0.484   0.799  -1.520  0.00  0.00    +0.007 C 
ENDBRANCH   2   4
ENDBRANCH   1   2
BRANCH   1   6
ATOM      6  C   LIG    1       -0.422  -2.787   0.882  0.00  0.00    -0.082 C 
BRANCH   6   7
ATOM      7  N   LIG    1        0.830  -2.258   1.442  0.00  0.00    +0.378 N 
ATOM      8  H   LIG    1        1.221  -2.930   2.085  0.00  0.00    -0.090 HD
ATOM      9  H   LIG    1        0.642  -1.395   1.929  0.00  0.00    -0.090 HD
ATOM     10  H   LIG    1        1.486  -2.086   0.695  0.00  0.00    -0.090 HD
ENDBRANCH   6   7
ENDBRANCH   1   6
BRANCH   1  11
ATOM     11  C   LIG    1       -2.160  -2.455  -0.881  0.00  0.00    +0.122 C 
BRANCH  11  12
ATOM     12  C   LIG    1       -1.742  -3.687  -1.641  0.00  0.00    +0.305 C 
ATOM     13  O   LIG    1       -0.560  -3.970  -1.740  0.00  0.00    -0.251 OA
BRANCH  12  14
ATOM     14  O   LIG    1       -2.584  -4.401  -2.158  0.00  0.00    -0.481 OA
ATOM     15  H   LIG    1       -3.493  -4.183  -2.082  0.00  0.00    +0.295 HD
ENDBRANCH  12  14
ENDBRANCH  11  12
ENDBRANCH   1  11
TORSDOF 7
