REMARK  Name = ZINC05705162
REMARK                            x       y       z     vdW  Elec       q    Type
REMARK                         _______ _______ _______ _____ _____    ______ ____
ROOT
ATOM      1  C   LIG    1        1.078   7.422   0.027  0.00  0.00    +0.233 C 
ATOM      2  O   LIG    1        0.426   7.336   1.048  0.00  0.00    -0.283 OA
ENDROOT
BRANCH   1   8
ATOM      3  C   LIG    1       -2.095   4.640  -4.837  0.00  0.00    +0.001 A 
ATOM      4  C   LIG    1       -2.808   4.438  -3.656  0.00  0.00    +0.001 A 
ATOM      5  C   LIG    1       -2.349   4.922  -2.470  0.00  0.00    +0.008 A 
ATOM      6  C   LIG    1       -1.143   5.647  -2.433  0.00  0.00    -0.017 A 
ATOM      7  C   LIG    1       -0.646   6.164  -1.229  0.00  0.00    +0.020 A 
ATOM      8  C   LIG    1        0.548   6.875  -1.234  0.00  0.00    +0.026 A 
ATOM      9  C   LIG    1        1.254   7.077  -2.436  0.00  0.00    +0.012 A 
ATOM     10  C   LIG    1        0.786   6.582  -3.608  0.00  0.00    +0.009 A 
ATOM     11  C   LIG    1       -0.421   5.857  -3.636  0.00  0.00    -0.018 A 
ATOM     12  C   LIG    1       -0.925   5.337  -4.839  0.00  0.00    +0.008 A 
ENDBRANCH   1   8
BRANCH   1  13
ATOM     13  C   LIG    1        2.415   8.082   0.050  0.00  0.00    +0.233 C 
ATOM     14  O   LIG    1        3.424   7.409   0.004  0.00  0.00    -0.283 OA
BRANCH  13  15
ATOM     15  C   LIG    1        2.511   9.550   0.128  0.00  0.00    +0.026 A 
ATOM     16  C   LIG    1        3.772  10.174   0.048  0.00  0.00    +0.012 A 
ATOM     17  C   LIG    1        3.884  11.523   0.113  0.00  0.00    +0.009 A 
ATOM     18  C   LIG    1        2.734  12.320   0.273  0.00  0.00    -0.018 A 
ATOM     19  C   LIG    1        2.828  13.719   0.348  0.00  0.00    +0.008 A 
ATOM     20  C   LIG    1        1.699  14.465   0.503  0.00  0.00    +0.001 A 
ATOM     21  C   LIG    1        0.446  13.862   0.590  0.00  0.00    +0.001 A 
ATOM     22  C   LIG    1        0.315  12.509   0.521  0.00  0.00    +0.008 A 
ATOM     23  C   LIG    1        1.459  11.706   0.360  0.00  0.00    -0.017 A 
ATOM     24  C   LIG    1        1.358  10.309   0.286  0.00  0.00    +0.020 A 
ENDBRANCH  13  15
ENDBRANCH   1  13
TORSDOF 3
