REMARK  Name = ZINC05732271
REMARK                            x       y       z     vdW  Elec       q    Type
REMARK                         _______ _______ _______ _____ _____    ______ ____
ROOT
ATOM      1  C   LIG    1       -2.678   3.302  -4.260  0.00  0.00    +0.251 C 
ATOM      2  N   LIG    1       -2.494   2.597  -3.126  0.00  0.00    -0.313 N 
ATOM      3  H   LIG    1       -2.502   1.627  -3.152  0.00  0.00    +0.149 HD
ATOM      4  O   LIG    1       -2.667   4.518  -4.228  0.00  0.00    -0.270 OA
ENDROOT
BRANCH   1  12
ATOM      5  C   LIG    1       -4.190   2.265  -5.949  0.00  0.00    +0.154 A 
ATOM      6  C   LIG    1       -4.381   1.610  -7.155  0.00  0.00    +0.085 A 
ATOM      7 CL   LIG    1       -5.987   1.200  -7.672  0.00  0.00    -0.080 Cl
ATOM      8  C   LIG    1       -3.296   1.278  -7.947  0.00  0.00    +0.047 A 
ATOM      9  C   LIG    1       -2.012   1.599  -7.547  0.00  0.00    +0.085 A 
ATOM     10 CL   LIG    1       -0.661   1.175  -8.552  0.00  0.00    -0.080 Cl
ATOM     11  C   LIG    1       -1.799   2.259  -6.347  0.00  0.00    +0.151 A 
ATOM     12  C   LIG    1       -2.892   2.601  -5.537  0.00  0.00    +0.122 A 
BRANCH   5  14
ATOM     13  C   LIG    1       -5.865   3.857  -5.397  0.00  0.00    +0.277 C 
ATOM     14  O   LIG    1       -5.255   2.584  -5.171  0.00  0.00    -0.493 OA
ENDBRANCH   5  14
BRANCH  11  15
ATOM     15  O   LIG    1       -0.538   2.575  -5.957  0.00  0.00    -0.504 OA
ATOM     16  H   LIG    1       -0.107   1.889  -5.428  0.00  0.00    +0.292 HD
ENDBRANCH  11  15
ENDBRANCH   1  12
BRANCH   2  17
ATOM     17  C   LIG    1       -2.281   3.294  -1.856  0.00  0.00    +0.089 C 
BRANCH  17  18
ATOM     18  C   LIG    1       -1.936   2.277  -0.767  0.00  0.00    -0.051 C 
ATOM     19  N   LIG    1       -0.676   1.587  -1.101  0.00  0.00    +0.384 N 
ATOM     20  H   LIG    1       -0.117   2.184  -1.721  0.00  0.00    -0.081 HD
ATOM     21  C   LIG    1        0.073   1.337   0.143  0.00  0.00    -0.078 C 
ATOM     22  C   LIG    1       -0.742   1.955   1.298  0.00  0.00    -0.020 C 
ATOM     23  C   LIG    1       -1.638   2.996   0.572  0.00  0.00    -0.016 C 
BRANCH  19  24
ATOM     24  C   LIG    1       -0.961   0.302  -1.792  0.00  0.00    -0.044 C 
BRANCH  24  25
ATOM     25  C   LIG    1        0.310  -0.191  -2.486  0.00  0.00    +0.195 C 
ATOM     26  F   LIG    1        0.045  -1.397  -3.143  0.00  0.00    -0.251 F 
ENDBRANCH  24  25
ENDBRANCH  19  24
ENDBRANCH  17  18
ENDBRANCH   2  17
TORSDOF 7
