REMARK  Name = ZINC05843264
REMARK                            x       y       z     vdW  Elec       q    Type
REMARK                         _______ _______ _______ _____ _____    ______ ____
ROOT
ATOM      1  N   LIG    1        2.750   0.237  -0.579  0.00  0.00    -0.264 N 
ATOM      2  C   LIG    1        1.897  -0.514  -1.387  0.00  0.00    +0.079 A 
ATOM      3  C   LIG    1        2.419  -1.147  -2.510  0.00  0.00    +0.027 A 
ATOM      4  C   LIG    1        1.616  -1.958  -3.288  0.00  0.00    +0.002 A 
ATOM      5  C   LIG    1        0.288  -2.144  -2.955  0.00  0.00    +0.004 A 
ATOM      6  C   LIG    1       -0.243  -1.506  -1.849  0.00  0.00    +0.048 A 
ATOM      7  C   LIG    1        0.554  -0.679  -1.070  0.00  0.00    +0.150 A 
ATOM      8  O   LIG    1       -0.001  -0.040  -0.011  0.00  0.00    -0.453 OA
ATOM      9  C   LIG    1       -0.034   1.312  -0.023  0.00  0.00    +0.141 A 
ATOM     10  C   LIG    1       -1.257   1.968  -0.026  0.00  0.00    +0.049 A 
ATOM     11  C   LIG    1       -1.307   3.347  -0.070  0.00  0.00    +0.026 A 
ATOM     12  C   LIG    1       -0.132   4.090  -0.112  0.00  0.00    +0.025 A 
ATOM     13  C   LIG    1        1.095   3.449  -0.097  0.00  0.00    +0.039 A 
ATOM     14  C   LIG    1        1.151   2.054  -0.038  0.00  0.00    +0.081 A 
ATOM     15  C   LIG    1        2.456   1.379   0.027  0.00  0.00    +0.255 C 
ATOM     16  O   LIG    1        3.330   1.907   0.687  0.00  0.00    -0.270 OA
ENDROOT
BRANCH  12  17
ATOM     17  N   LIG    1       -0.191   5.487  -0.169  0.00  0.00    -0.358 N 
ATOM     18  H   LIG    1       -1.050   5.937  -0.180  0.00  0.00    +0.142 HD
ATOM     19  H   LIG    1        0.628   6.006  -0.198  0.00  0.00    +0.142 HD
ENDBRANCH  12  17
BRANCH   1  21
ATOM     20  C   LIG    1        4.147  -1.118   0.902  0.00  0.00    +0.025 C 
ATOM     21  C   LIG    1        4.104  -0.287  -0.382  0.00  0.00    +0.111 C 
ENDBRANCH   1  21
TORSDOF 2
