REMARK  Name = ZINC05115792
REMARK                            x       y       z     vdW  Elec       q    Type
REMARK                         _______ _______ _______ _____ _____    ______ ____
ROOT
ATOM      1  C   LIG    1       -1.216   5.539   4.946  0.00  0.00    +0.015 A 
ATOM      2  C   LIG    1       -1.027   4.572   5.914  0.00  0.00    +0.121 A 
ATOM      3  N   LIG    1       -0.133   4.778   6.870  0.00  0.00    -0.223 NA
ATOM      4  C   LIG    1        0.577   5.896   6.909  0.00  0.00    +0.214 A 
ATOM      5  N   LIG    1        0.426   6.847   6.000  0.00  0.00    -0.200 NA
ATOM      6  C   LIG    1       -0.449   6.704   5.010  0.00  0.00    +0.125 A 
ENDROOT
BRANCH   4   7
ATOM      7  N   LIG    1        1.500   6.073   7.925  0.00  0.00    -0.327 N 
ATOM      8  H   LIG    1        2.027   6.887   7.965  0.00  0.00    +0.145 HD
ATOM      9  H   LIG    1        1.621   5.384   8.597  0.00  0.00    +0.145 HD
ENDBRANCH   4   7
BRANCH   6  10
ATOM     10  N   LIG    1       -0.601   7.699   4.058  0.00  0.00    -0.343 N 
ATOM     11  H   LIG    1       -0.064   8.505   4.109  0.00  0.00    +0.144 HD
ATOM     12  H   LIG    1       -1.244   7.588   3.340  0.00  0.00    +0.144 HD
ENDBRANCH   6  10
BRANCH   1  13
ATOM     13  C   LIG    1       -2.223   5.338   3.843  0.00  0.00    +0.075 C 
BRANCH  13  18
ATOM     14  C   LIG    1       -0.787   2.892   1.346  0.00  0.00    +0.120 A 
ATOM     15  C   LIG    1       -0.253   3.751   0.396  0.00  0.00    +0.045 A 
ATOM     16  C   LIG    1       -0.368   5.117   0.561  0.00  0.00    +0.004 A 
ATOM     17  C   LIG    1       -1.003   5.630   1.677  0.00  0.00    +0.004 A 
ATOM     18  C   LIG    1       -1.531   4.776   2.627  0.00  0.00    -0.039 A 
ATOM     19  C   LIG    1       -1.425   3.409   2.465  0.00  0.00    +0.049 A 
BRANCH  14  21
ATOM     20  C   LIG    1       -0.013   1.086   0.008  0.00  0.00    +0.277 C 
ATOM     21  O   LIG    1       -0.682   1.547   1.184  0.00  0.00    -0.495 OA
ENDBRANCH  14  21
ENDBRANCH  13  18
ENDBRANCH   1  13
TORSDOF 5
