REMARK  Name = ZINC05234409
REMARK                            x       y       z     vdW  Elec       q    Type
REMARK                         _______ _______ _______ _____ _____    ______ ____
ROOT
ATOM      1  C   LIG    1       -4.079   2.628   2.482  0.00  0.00    +0.121 A 
ATOM      2  C   LIG    1       -4.158   3.311   1.277  0.00  0.00    +0.046 A 
ATOM      3  C   LIG    1       -3.562   2.788   0.146  0.00  0.00    +0.007 A 
ATOM      4  C   LIG    1       -2.885   1.584   0.214  0.00  0.00    -0.049 A 
ATOM      5  C   LIG    1       -2.809   0.898   1.413  0.00  0.00    +0.007 A 
ATOM      6  C   LIG    1       -3.400   1.420   2.547  0.00  0.00    +0.046 A 
ENDROOT
BRANCH   1   7
ATOM      7  O   LIG    1       -4.665   3.140   3.595  0.00  0.00    -0.492 OA
BRANCH   7   9
ATOM      8  C   LIG    1       -5.261   3.111   5.937  0.00  0.00    +0.048 C 
ATOM      9  C   LIG    1       -4.543   2.382   4.800  0.00  0.00    +0.225 C 
ENDBRANCH   7   9
ENDBRANCH   1   7
BRANCH   4  10
ATOM     10  C   LIG    1       -2.234   1.016  -1.020  0.00  0.00    +0.018 C 
BRANCH  10  11
ATOM     11  C   LIG    1       -0.795   1.527  -1.120  0.00  0.00    -0.074 C 
ATOM     12  C   LIG    1       -0.175   1.052  -2.435  0.00  0.00    -0.014 C 
BRANCH  11  13
ATOM     13  N   LIG    1       -0.025   1.014   0.027  0.00  0.00    +0.380 N 
ATOM     14  H   LIG    1       -0.476   1.316   0.899  0.00  0.00    -0.090 HD
ATOM     15  H   LIG    1        0.925   1.379   0.001  0.00  0.00    -0.090 HD
ATOM     16  H   LIG    1        0.002  -0.004   0.002  0.00  0.00    -0.090 HD
ENDBRANCH  11  13
ENDBRANCH  10  11
ENDBRANCH   4  10
TORSDOF 5
