REMARK  Name = ZINC04824606
REMARK                            x       y       z     vdW  Elec       q    Type
REMARK                         _______ _______ _______ _____ _____    ______ ____
ROOT
ATOM      1  N   LIG    1        1.398  -4.993  -0.040  0.00  0.00    -0.314 N 
ATOM      2  H   LIG    1        0.547  -4.538   0.061  0.00  0.00    +0.152 HD
ENDROOT
BRANCH   1  10
ATOM      3  C   LIG    1        3.286  -4.232  -6.242  0.00  0.00    +0.001 A 
ATOM      4  C   LIG    1        4.461  -3.502  -6.262  0.00  0.00    +0.001 A 
ATOM      5  C   LIG    1        5.035  -3.066  -5.081  0.00  0.00    +0.012 A 
ATOM      6  C   LIG    1        4.428  -3.363  -3.864  0.00  0.00    +0.033 A 
ATOM      7  C   LIG    1        3.233  -4.104  -3.844  0.00  0.00    +0.033 A 
ATOM      8  C   LIG    1        2.582  -4.424  -2.556  0.00  0.00    +0.196 C 
ATOM      9  C   LIG    1        3.185  -3.965  -1.296  0.00  0.00    +0.058 A 
ATOM     10  C   LIG    1        2.576  -4.263  -0.071  0.00  0.00    +0.043 A 
ATOM     11  C   LIG    1        3.159  -3.822   1.120  0.00  0.00    +0.027 A 
ATOM     12  C   LIG    1        4.327  -3.097   1.098  0.00  0.00    +0.048 A 
ATOM     13  C   LIG    1        4.948  -2.790  -0.112  0.00  0.00    +0.128 A 
ATOM     14  C   LIG    1        4.383  -3.221  -1.315  0.00  0.00    +0.076 A 
ATOM     15  O   LIG    1        1.549  -5.065  -2.539  0.00  0.00    -0.287 OA
ATOM     16  C   LIG    1        5.033  -2.902  -2.597  0.00  0.00    +0.198 C 
ATOM     17  O   LIG    1        6.066  -2.261  -2.614  0.00  0.00    -0.286 OA
ATOM     18  C   LIG    1        2.669  -4.535  -5.042  0.00  0.00    +0.012 A 
BRANCH  13  19
ATOM     19  O   LIG    1        6.099  -2.073  -0.122  0.00  0.00    -0.506 OA
ATOM     20  H   LIG    1        6.900  -2.614  -0.075  0.00  0.00    +0.292 HD
ENDBRANCH  13  19
ENDBRANCH   1  10
BRANCH   1  21
ATOM     21  C   LIG    1        1.436  -6.385  -0.155  0.00  0.00    +0.031 A 
ATOM     22  C   LIG    1        2.655  -7.050  -0.166  0.00  0.00    +0.025 A 
ATOM     23  C   LIG    1        2.689  -8.426  -0.280  0.00  0.00    +0.030 A 
ATOM     24  C   LIG    1        1.510  -9.142  -0.382  0.00  0.00    +0.106 A 
ATOM     25  C   LIG    1        0.294  -8.483  -0.371  0.00  0.00    +0.030 A 
ATOM     26  C   LIG    1        0.253  -7.108  -0.252  0.00  0.00    +0.025 A 
BRANCH  24  27
ATOM     27  S   LIG    1        1.558 -10.897  -0.527  0.00  0.00    +0.061 S 
ATOM     28  O   LIG    1        2.833 -11.226  -1.062  0.00  0.00    -0.153 OA
ATOM     29  O   LIG    1        0.344 -11.285  -1.157  0.00  0.00    -0.153 OA
BRANCH  27  30
ATOM     30  N   LIG    1        1.514 -11.517   1.008  0.00  0.00    -0.172 NA
BRANCH  30  31
ATOM     31  C   LIG    1        2.762 -11.760   1.735  0.00  0.00    +0.137 C 
BRANCH  31  32
ATOM     32  C   LIG    1        3.078 -10.555   2.623  0.00  0.00    +0.173 C 
BRANCH  32  33
ATOM     33  O   LIG    1        2.072 -10.428   3.630  0.00  0.00    -0.394 OA
ATOM     34  H   LIG    1        2.209  -9.683   4.231  0.00  0.00    +0.209 HD
ENDBRANCH  32  33
ENDBRANCH  31  32
ENDBRANCH  30  31
BRANCH  30  35
ATOM     35  C   LIG    1        0.227 -11.821   1.639  0.00  0.00    +0.137 C 
BRANCH  35  36
ATOM     36  C   LIG    1       -0.109 -13.298   1.425  0.00  0.00    +0.173 C 
BRANCH  36  37
ATOM     37  O   LIG    1        0.849 -14.108   2.110  0.00  0.00    -0.394 OA
ATOM     38  H   LIG    1        0.698 -15.059   2.018  0.00  0.00    +0.209 HD
ENDBRANCH  36  37
ENDBRANCH  35  36
ENDBRANCH  30  35
ENDBRANCH  27  30
ENDBRANCH  24  27
ENDBRANCH   1  21
TORSDOF 11
