REMARK  Name = ZINC04810567
REMARK                            x       y       z     vdW  Elec       q    Type
REMARK                         _______ _______ _______ _____ _____    ______ ____
ROOT
ATOM      1  C   LIG    1       -0.017   1.382   0.010  0.00  0.00    +0.001 A 
ATOM      2  C   LIG    1        1.165   2.099   0.002  0.00  0.00    +0.001 A 
ATOM      3  C   LIG    1        2.385   1.442  -0.013  0.00  0.00    +0.014 A 
ATOM      4  C   LIG    1        2.420   0.056  -0.021  0.00  0.00    +0.049 A 
ATOM      5  C   LIG    1        1.215  -0.675  -0.013  0.00  0.00    +0.049 A 
ATOM      6  C   LIG    1        1.606  -2.100  -0.025  0.00  0.00    +0.254 C 
ATOM      7  N   LIG    1        2.949  -2.175  -0.039  0.00  0.00    -0.234 N 
ATOM      8  O   LIG    1        0.843  -3.045  -0.023  0.00  0.00    -0.270 OA
ATOM      9  C   LIG    1        3.503  -0.949  -0.038  0.00  0.00    +0.254 C 
ATOM     10  O   LIG    1        4.693  -0.709  -0.049  0.00  0.00    -0.270 OA
ATOM     11  C   LIG    1        0.002  -0.004   0.002  0.00  0.00    +0.014 A 
ENDROOT
BRANCH   7  12
ATOM     12  C   LIG    1        3.709  -3.428  -0.053  0.00  0.00    +0.119 C 
BRANCH  12  13
ATOM     13  C   LIG    1        3.959  -3.857  -1.501  0.00  0.00    +0.041 C 
BRANCH  13  14
ATOM     14  C   LIG    1        4.752  -5.165  -1.515  0.00  0.00    +0.124 C 
BRANCH  14  15
ATOM     15  N   LIG    1        4.991  -5.575  -2.901  0.00  0.00    -0.337 N 
ATOM     16  C   LIG    1        4.179  -6.369  -3.665  0.00  0.00    +0.106 A 
ATOM     17  C   LIG    1        4.773  -6.492  -4.867  0.00  0.00    +0.130 A 
ATOM     18  N   LIG    1        5.917  -5.791  -4.839  0.00  0.00    -0.244 NA
ATOM     19  C   LIG    1        6.051  -5.235  -3.666  0.00  0.00    +0.199 A 
ENDBRANCH  14  15
ENDBRANCH  13  14
ENDBRANCH  12  13
ENDBRANCH   7  12
TORSDOF 4
