REMARK  Name = ZINC05765089
REMARK                            x       y       z     vdW  Elec       q    Type
REMARK                         _______ _______ _______ _____ _____    ______ ____
ROOT
ATOM      1  C   LIG    1       -0.018   1.503   0.010  0.00  0.00    +0.045 C 
ATOM      2  C   LIG    1        0.002  -0.004   0.002  0.00  0.00    -0.033 A 
ATOM      3  C   LIG    1       -0.097  -0.685  -1.179  0.00  0.00    +0.049 A 
ATOM      4  C   LIG    1       -0.079  -2.077  -1.188  0.00  0.00    +0.121 A 
ATOM      5  C   LIG    1        0.035  -2.789  -0.005  0.00  0.00    +0.092 A 
ATOM      6  C   LIG    1        0.133  -2.114   1.204  0.00  0.00    +0.143 A 
ATOM      7  O   LIG    1        0.235  -2.806   2.357  0.00  0.00    -0.454 OA
ATOM      8  C   LIG    1        0.659  -2.224   3.500  0.00  0.00    +0.146 A 
ATOM      9  C   LIG    1        1.067  -3.010   4.569  0.00  0.00    +0.092 A 
ATOM     10  C   LIG    1        1.477  -2.418   5.754  0.00  0.00    +0.124 A 
ATOM     11  C   LIG    1        1.489  -1.035   5.891  0.00  0.00    +0.091 A 
ATOM     12  C   LIG    1        1.090  -0.232   4.838  0.00  0.00    +0.135 A 
ATOM     13  C   LIG    1        0.679  -0.825   3.636  0.00  0.00    +0.106 A 
ATOM     14  C   LIG    1        0.261   0.000   2.488  0.00  0.00    +0.204 A 
ATOM     15  O   LIG    1        0.037   1.192   2.596  0.00  0.00    -0.286 OA
ATOM     16  C   LIG    1        0.128  -0.709   1.199  0.00  0.00    +0.068 A 
ENDROOT
BRANCH   4  17
ATOM     17  O   LIG    1       -0.174  -2.743  -2.367  0.00  0.00    -0.507 OA
ATOM     18  H   LIG    1        0.678  -2.924  -2.787  0.00  0.00    +0.292 HD
ENDBRANCH   4  17
BRANCH  10  19
ATOM     19  O   LIG    1        1.873  -3.199   6.791  0.00  0.00    -0.507 OA
ATOM     20  H   LIG    1        1.158  -3.448   7.391  0.00  0.00    +0.292 HD
ENDBRANCH  10  19
BRANCH  12  21
ATOM     21  O   LIG    1        1.097   1.118   4.966  0.00  0.00    -0.506 OA
ATOM     22  H   LIG    1        0.268   1.486   5.300  0.00  0.00    +0.292 HD
ENDBRANCH  12  21
TORSDOF 3
