REMARK  Name = ZINC05223557
REMARK                            x       y       z     vdW  Elec       q    Type
REMARK                         _______ _______ _______ _____ _____    ______ ____
ROOT
ATOM      1  C   LIG    1        2.383   0.037  -0.021  0.00  0.00    +0.113 A 
ATOM      2  C   LIG    1        1.235  -0.684  -0.013  0.00  0.00    +0.094 A 
ATOM      3  I   LIG    1        1.294  -2.778  -0.026  0.00  0.00    -0.037 I 
ATOM      4  C   LIG    1        0.002  -0.004   0.002  0.00  0.00    +0.267 A 
ATOM      5  O   LIG    1       -1.157  -0.699   0.010  0.00  0.00    -0.267 OA
ATOM      6  N   LIG    1       -0.016   1.320   0.009  0.00  0.00    -0.274 N 
ATOM      7  H   LIG    1       -0.892   1.802   0.020  0.00  0.00    +0.173 HD
ATOM      8  C   LIG    1        1.120   2.017   0.002  0.00  0.00    +0.331 A 
ATOM      9  O   LIG    1        1.077   3.236   0.009  0.00  0.00    -0.246 OA
ATOM     10  N   LIG    1        2.315   1.397  -0.013  0.00  0.00    -0.273 N 
ENDROOT
BRANCH  10  11
ATOM     11  C1* LIG    1        3.547   2.189  -0.020  0.00  0.00    +0.226 C 
ATOM     12  C2* LIG    1        3.595   3.098  -1.274  0.00  0.00    +0.088 C 
ATOM     13  C3* LIG    1        5.126   3.307  -1.428  0.00  0.00    +0.150 C 
ATOM     14  C4* LIG    1        5.692   1.953  -0.950  0.00  0.00    +0.175 C 
ATOM     15  O4* LIG    1        4.692   1.329  -0.136  0.00  0.00    -0.348 OA
BRANCH  13  16
ATOM     16  O3* LIG    1        5.471   3.549  -2.794  0.00  0.00    -0.389 OA
ATOM     17  H3* LIG    1        5.067   4.344  -3.167  0.00  0.00    +0.210 HD
ENDBRANCH  13  16
BRANCH  14  18
ATOM     18  C5* LIG    1        6.963   2.181  -0.130  0.00  0.00    +0.190 C 
BRANCH  18  19
ATOM     19  O5* LIG    1        7.544   0.921   0.210  0.00  0.00    -0.392 OA
ATOM     20  H5* LIG    1        8.355   0.990   0.731  0.00  0.00    +0.210 HD
ENDBRANCH  18  19
ENDBRANCH  14  18
ENDBRANCH  10  11
TORSDOF 4
