REMARK  Name = ZINC05161777
REMARK                            x       y       z     vdW  Elec       q    Type
REMARK                         _______ _______ _______ _____ _____    ______ ____
ROOT
ATOM      1  C   LIG    1       -0.077   5.324   0.032  0.00  0.00    +0.008 C 
ATOM      2  C   LIG    1       -1.252   5.974   0.047  0.00  0.00    +0.008 C 
ENDROOT
BRANCH   1   5
ATOM      3  C   LIG    1       -1.220   1.748   0.017  0.00  0.00    +0.002 A 
ATOM      4  C   LIG    1       -1.248   3.127   0.031  0.00  0.00    +0.008 A 
ATOM      5  C   LIG    1       -0.052   3.850   0.023  0.00  0.00    -0.023 A 
ATOM      6  C   LIG    1        1.168   3.171   0.008  0.00  0.00    +0.030 A 
ATOM      7  C   LIG    1        1.184   1.785   0.000  0.00  0.00    +0.025 A 
ATOM      8  C   LIG    1       -0.013   1.076   0.008  0.00  0.00    +0.023 A 
BRANCH   7   9
ATOM      9  N   LIG    1        2.401   1.100  -0.015  0.00  0.00    -0.358 N 
ATOM     10  H   LIG    1        3.236   1.595  -0.020  0.00  0.00    +0.142 HD
ATOM     11  H   LIG    1        2.412   0.130  -0.019  0.00  0.00    +0.142 HD
ENDBRANCH   7   9
ENDBRANCH   1   5
BRANCH   2  12
ATOM     12  C   LIG    1       -1.278   7.447   0.055  0.00  0.00    -0.025 A 
ATOM     13  C   LIG    1       -0.081   8.169   0.054  0.00  0.00    +0.010 A 
ATOM     14  C   LIG    1       -0.109   9.546   0.057  0.00  0.00    +0.023 A 
ATOM     15  C   LIG    1       -1.327  10.219   0.072  0.00  0.00    +0.025 A 
ATOM     16  C   LIG    1       -2.520   9.504   0.079  0.00  0.00    +0.023 A 
ATOM     17  C   LIG    1       -2.500   8.127   0.070  0.00  0.00    +0.010 A 
BRANCH  15  18
ATOM     18  N   LIG    1       -1.351  11.613   0.082  0.00  0.00    -0.358 N 
ATOM     19  H   LIG    1       -0.520  12.113   0.077  0.00  0.00    +0.142 HD
ATOM     20  H   LIG    1       -2.200  12.084   0.092  0.00  0.00    +0.142 HD
ENDBRANCH  15  18
ENDBRANCH   2  12
TORSDOF 4
