REMARK  Name = ZINC05513488
REMARK                            x       y       z     vdW  Elec       q    Type
REMARK                         _______ _______ _______ _____ _____    ______ ____
ROOT
ATOM      1  C   LIG    1        0.002  -0.004   0.002  0.00  0.00    +0.158 C 
ENDROOT
BRANCH   1   8
ATOM      2  C   LIG    1        2.071  -0.708  -1.218  0.00  0.00    +0.005 A 
ATOM      3  C   LIG    1        3.382  -1.146  -1.233  0.00  0.00    +0.015 A 
ATOM      4  C   LIG    1        4.048  -1.374  -0.042  0.00  0.00    +0.018 A 
ATOM      5 BR   LIG    1        5.839  -1.980  -0.062  0.00  0.00    -0.050 Br
ATOM      6  C   LIG    1        3.404  -1.158   1.163  0.00  0.00    +0.015 A 
ATOM      7  C   LIG    1        2.095  -0.715   1.177  0.00  0.00    +0.005 A 
ATOM      8  C   LIG    1        1.429  -0.487  -0.014  0.00  0.00    -0.036 A 
ENDBRANCH   1   8
BRANCH   1   9
ATOM      9  C   LIG    1       -0.018   1.503   0.010  0.00  0.00    +0.243 C 
ATOM     10  N   LIG    1        1.056   2.208   0.004  0.00  0.00    -0.275 N 
ATOM     11  H   LIG    1        2.010   1.830  -0.007  0.00  0.00    +0.304 HD
ATOM     12  C   LIG    1        0.713   3.641   0.015  0.00  0.00    +0.276 C 
ATOM     13  C   LIG    1       -0.829   3.655   0.030  0.00  0.00    +0.268 C 
ATOM     14  N   LIG    1       -1.175   2.224   0.019  0.00  0.00    -0.237 N 
ATOM     15  H   LIG    1       -2.073   1.856   0.021  0.00  0.00    +0.291 HD
ENDBRANCH   1   9
TORSDOF 2
