REMARK  Name = ZINC04812114
REMARK                            x       y       z     vdW  Elec       q    Type
REMARK                         _______ _______ _______ _____ _____    ______ ____
ROOT
ATOM      1  C   LIG    1       -1.182  -2.102  -0.104  0.00  0.00    +0.394 C 
ATOM      2  N   LIG    1       -2.136  -2.797   0.441  0.00  0.00    +0.154 NA
ENDROOT
BRANCH   1   3
ATOM      3  C   LIG    1       -0.004  -2.788  -0.683  0.00  0.00    +0.242 A 
ATOM      4  C   LIG    1        0.180  -4.240  -0.788  0.00  0.00    +0.196 A 
ATOM      5  N   LIG    1        1.335  -4.467  -1.352  0.00  0.00    -0.033 NA
ATOM      6  O   LIG    1        1.937  -3.216  -1.631  0.00  0.00    -0.240 OA
ATOM      7  N   LIG    1        1.048  -2.204  -1.194  0.00  0.00    -0.039 NA
BRANCH   4   8
ATOM      8  N   LIG    1       -0.721  -5.207  -0.361  0.00  0.00    -0.338 N 
ATOM      9  H   LIG    1       -0.511  -6.148  -0.473  0.00  0.00    +0.144 HD
ATOM     10  H   LIG    1       -1.558  -4.942   0.050  0.00  0.00    +0.144 HD
ENDBRANCH   4   8
ENDBRANCH   1   3
BRANCH   1  11
ATOM     11  N   LIG    1       -1.267  -0.720  -0.143  0.00  0.00    -0.195 N 
ATOM     12  H   LIG    1       -2.135  -0.287  -0.160  0.00  0.00    +0.299 HD
BRANCH  11  19
ATOM     13  C   LIG    1       -0.096   1.292  -0.786  0.00  0.00    +0.050 A 
ATOM     14  C   LIG    1        1.056   2.052  -0.799  0.00  0.00    +0.024 A 
ATOM     15  C   LIG    1        2.205   1.581  -0.188  0.00  0.00    +0.041 A 
ATOM     16 CL   LIG    1        3.652   2.540  -0.207  0.00  0.00    -0.084 Cl
ATOM     17  C   LIG    1        2.203   0.347   0.437  0.00  0.00    +0.024 A 
ATOM     18  C   LIG    1        1.053  -0.418   0.454  0.00  0.00    +0.050 A 
ATOM     19  C   LIG    1       -0.102   0.053  -0.158  0.00  0.00    +0.119 A 
ENDBRANCH  11  19
ENDBRANCH   1  11
BRANCH   2  20
ATOM     20  O   LIG    1       -3.318  -2.154   0.881  0.00  0.00    -0.311 OA
ATOM     21  H   LIG    1       -3.937  -2.739   1.340  0.00  0.00    +0.361 HD
ENDBRANCH   2  20
TORSDOF 5
