REMARK  Name = ZINC05579280
REMARK                            x       y       z     vdW  Elec       q    Type
REMARK                         _______ _______ _______ _____ _____    ______ ____
ROOT
ATOM      1  N   LIG    1        1.651  -4.999  -0.034  0.00  0.00    -0.192 N 
ATOM      2  H   LIG    1        2.365  -4.321  -0.035  0.00  0.00    +0.176 HD
ENDROOT
BRANCH   1   3
ATOM      3  C   LIG    1        1.976  -6.348  -0.043  0.00  0.00    +0.202 A 
ATOM      4  N   LIG    1        1.188  -7.415  -0.051  0.00  0.00    -0.123 NA
ATOM      5  N   LIG    1        1.657  -8.586  -0.059  0.00  0.00    -0.119 NA
ATOM      6  C   LIG    1        2.952  -8.825  -0.060  0.00  0.00    +0.256 A 
ATOM      7  S   LIG    1        3.578  -7.147  -0.057  0.00  0.00    -0.009 S 
BRANCH   6   8
ATOM      8  S   LIG    1        3.822 -10.357  -0.070  0.00  0.00    +0.081 S 
ATOM      9  O   LIG    1        4.978 -10.174   0.735  0.00  0.00    -0.151 OA
ATOM     10  O   LIG    1        3.896 -10.773  -1.427  0.00  0.00    -0.151 OA
BRANCH   8  11
ATOM     11  N   LIG    1        2.871 -11.465   0.713  0.00  0.00    -0.202 NA
ATOM     12  H   LIG    1        3.176 -12.380   0.814  0.00  0.00    +0.144 HD
ATOM     13  H   LIG    1        2.010 -11.198   1.070  0.00  0.00    +0.144 HD
ENDBRANCH   8  11
ENDBRANCH   6   8
ENDBRANCH   1   3
BRANCH   1  14
ATOM     14  S   LIG    1        0.063  -4.530  -0.023  0.00  0.00    +0.074 S 
ATOM     15  O   LIG    1       -0.490  -4.937  -1.267  0.00  0.00    -0.150 OA
ATOM     16  O   LIG    1       -0.476  -4.950   1.223  0.00  0.00    -0.150 OA
BRANCH  14  21
ATOM     17  C   LIG    1       -0.018   1.503   0.010  0.00  0.00    +0.044 C 
ATOM     18  C   LIG    1        0.002  -0.004   0.002  0.00  0.00    -0.050 A 
ATOM     19  C   LIG    1        0.006  -0.689  -1.199  0.00  0.00    +0.005 A 
ATOM     20  C   LIG    1        0.025  -2.071  -1.206  0.00  0.00    +0.029 A 
ATOM     21  C   LIG    1        0.040  -2.768  -0.013  0.00  0.00    +0.109 A 
ATOM     22  C   LIG    1        0.037  -2.084   1.188  0.00  0.00    +0.029 A 
ATOM     23  C   LIG    1        0.023  -0.702   1.195  0.00  0.00    +0.005 A 
ENDBRANCH  14  21
ENDBRANCH   1  14
TORSDOF 5
