REMARK  Name = ZINC05430812
REMARK                            x       y       z     vdW  Elec       q    Type
REMARK                         _______ _______ _______ _____ _____    ______ ____
ROOT
ATOM      1  C   LIG    1       -0.864  -0.562   3.381  0.00  0.00    +0.040 A 
ATOM      2  C   LIG    1       -2.186  -0.132   3.400  0.00  0.00    +0.127 A 
ATOM      3  C   LIG    1       -3.106  -0.708   4.262  0.00  0.00    +0.093 A 
ATOM      4  C   LIG    1       -2.717  -1.727   5.120  0.00  0.00    +0.146 A 
ATOM      5  C   LIG    1       -1.383  -2.169   5.093  0.00  0.00    +0.106 A 
ATOM      6  C   LIG    1       -0.988  -3.268   5.992  0.00  0.00    +0.204 A 
ATOM      7  C   LIG    1       -2.094  -4.002   6.640  0.00  0.00    +0.072 A 
ATOM      8  C   LIG    1       -3.386  -3.454   6.581  0.00  0.00    +0.143 A 
ATOM      9  C   LIG    1       -4.438  -4.140   7.175  0.00  0.00    +0.096 A 
ATOM     10  C   LIG    1       -4.207  -5.341   7.821  0.00  0.00    +0.162 A 
ATOM     11  C   LIG    1       -2.920  -5.879   7.885  0.00  0.00    +0.166 A 
ATOM     12  C   LIG    1       -1.865  -5.212   7.296  0.00  0.00    +0.016 A 
ATOM     13  O   LIG    1        0.180  -3.553   6.190  0.00  0.00    -0.286 OA
ATOM     14  O   LIG    1       -3.615  -2.276   5.963  0.00  0.00    -0.454 OA
ATOM     15  C   LIG    1       -0.457  -1.581   4.221  0.00  0.00    +0.138 A 
ENDROOT
BRANCH   2  16
ATOM     16  O   LIG    1       -2.580   0.863   2.565  0.00  0.00    -0.506 OA
ATOM     17  H   LIG    1       -2.898   0.553   1.706  0.00  0.00    +0.292 HD
ENDBRANCH   2  16
BRANCH  10  18
ATOM     18  O   LIG    1       -5.242  -6.004   8.399  0.00  0.00    -0.503 OA
ATOM     19  H   LIG    1       -5.686  -6.630   7.810  0.00  0.00    +0.292 HD
ENDBRANCH  10  18
BRANCH  11  20
ATOM     20  O   LIG    1       -2.706  -7.059   8.527  0.00  0.00    -0.491 OA
ATOM     21  C   LIG    1       -2.813  -8.251   7.746  0.00  0.00    +0.277 C 
ENDBRANCH  11  20
BRANCH  15  22
ATOM     22  O   LIG    1        0.832  -2.006   4.206  0.00  0.00    -0.506 OA
ATOM     23  H   LIG    1        1.409  -1.536   4.823  0.00  0.00    +0.292 HD
ENDBRANCH  15  22
BRANCH   1  24
ATOM     24  C   LIG    1        0.123   0.078   2.439  0.00  0.00    +0.069 C 
BRANCH  24  28
ATOM     25  C   LIG    1       -0.172   1.491   0.017  0.00  0.00    +0.038 C 
ATOM     26  C   LIG    1       -0.071  -0.013   0.007  0.00  0.00    -0.079 C 
ATOM     27  C   LIG    1       -0.191  -0.767  -1.292  0.00  0.00    +0.038 C 
ATOM     28  C   LIG    1        0.121  -0.664   1.128  0.00  0.00    -0.023 C 
ENDBRANCH  24  28
ENDBRANCH   1  24
BRANCH  12  29
ATOM     29  C   LIG    1       -0.474  -5.788   7.359  0.00  0.00    +0.067 C 
BRANCH  29  30
ATOM     30  C   LIG    1        0.225  -5.279   8.594  0.00  0.00    -0.023 C 
ATOM     31  C   LIG    1        0.736  -6.125   9.453  0.00  0.00    -0.079 C 
ATOM     32  C   LIG    1        1.434  -5.615  10.688  0.00  0.00    +0.038 C 
ATOM     33  C   LIG    1        0.626  -7.607   9.207  0.00  0.00    +0.038 C 
ENDBRANCH  29  30
ENDBRANCH  12  29
TORSDOF 8
