REMARK  Name = ZINC05101601
REMARK                            x       y       z     vdW  Elec       q    Type
REMARK                         _______ _______ _______ _____ _____    ______ ____
ROOT
ATOM      1  C   LIG    1        1.189   4.491   0.051  0.00  0.00    +0.145 A 
ATOM      2  C   LIG    1        0.560   3.245   0.049  0.00  0.00    +0.066 A 
ATOM      3  C   LIG    1        1.042   1.857   0.069  0.00  0.00    +0.053 A 
ATOM      4  C   LIG    1       -0.050   1.083   0.055  0.00  0.00    +0.196 A 
ATOM      5  O   LIG    1       -1.158   1.845   0.022  0.00  0.00    -0.459 OA
ATOM      6  C   LIG    1       -0.842   3.155   0.024  0.00  0.00    +0.183 A 
ATOM      7  C   LIG    1       -1.608   4.321   0.001  0.00  0.00    +0.205 A 
ATOM      8  C   LIG    1       -0.993   5.558   0.003  0.00  0.00    +0.177 A 
ATOM      9  C   LIG    1        0.411   5.655   0.028  0.00  0.00    +0.109 A 
ENDROOT
BRANCH   1  11
ATOM     10  C   LIG    1        3.213   4.604  -1.186  0.00  0.00    +0.277 C 
ATOM     11  O   LIG    1        2.543   4.574   0.075  0.00  0.00    -0.494 OA
ENDBRANCH   1  11
BRANCH   7  12
ATOM     12  O   LIG    1       -2.967   4.239  -0.024  0.00  0.00    -0.488 OA
ATOM     13  C   LIG    1       -3.591   4.190  -1.308  0.00  0.00    +0.277 C 
ENDBRANCH   7  12
BRANCH   8  14
ATOM     14  O   LIG    1       -1.747   6.688  -0.021  0.00  0.00    -0.503 OA
ATOM     15  H   LIG    1       -1.950   7.007  -0.911  0.00  0.00    +0.292 HD
ENDBRANCH   8  14
BRANCH   9  16
ATOM     16  C   LIG    1        1.060   6.977   0.029  0.00  0.00    +0.193 C 
ATOM     17  O   LIG    1        1.404   7.487  -1.022  0.00  0.00    -0.287 OA
BRANCH  16  18
ATOM     18  C   LIG    1        1.291   7.677   1.294  0.00  0.00    +0.052 C 
ATOM     19  C   LIG    1        1.785   8.933   1.288  0.00  0.00    +0.012 C 
BRANCH  19  20
ATOM     20  C   LIG    1        2.017   9.637   2.560  0.00  0.00    -0.025 A 
ATOM     21  C   LIG    1        1.723   9.011   3.775  0.00  0.00    +0.008 A 
ATOM     22  C   LIG    1        1.949   9.675   4.962  0.00  0.00    +0.001 A 
ATOM     23  C   LIG    1        2.455  10.963   4.952  0.00  0.00    +0.000 A 
ATOM     24  C   LIG    1        2.744  11.592   3.754  0.00  0.00    +0.001 A 
ATOM     25  C   LIG    1        2.529  10.939   2.558  0.00  0.00    +0.008 A 
ENDBRANCH  19  20
ENDBRANCH  16  18
ENDBRANCH   9  16
TORSDOF 6
