REMARK  Name = ZINC05581788
REMARK                            x       y       z     vdW  Elec       q    Type
REMARK                         _______ _______ _______ _____ _____    ______ ____
ROOT
ATOM      1  C   LIG    1        1.250  -2.160  -0.022  0.00  0.00    +0.053 A 
ATOM      2  C   LIG    1        2.458  -2.803  -0.136  0.00  0.00    +0.077 A 
ATOM      3  C   LIG    1        2.507  -4.211  -0.146  0.00  0.00    +0.190 A 
ATOM      4  C   LIG    1        1.238  -4.950  -0.033  0.00  0.00    +0.049 A 
ATOM      5  C   LIG    1        1.213  -6.346  -0.038  0.00  0.00    +0.063 A 
ATOM      6  C   LIG    1        0.009  -7.009   0.070  0.00  0.00    +0.167 A 
ATOM      7  C   LIG    1       -1.184  -6.287   0.185  0.00  0.00    +0.168 A 
ATOM      8  O   LIG    1       -2.218  -7.173   0.276  0.00  0.00    -0.453 OA
ATOM      9  C   LIG    1       -1.695  -8.428  -0.196  0.00  0.00    +0.466 C 
ATOM     10  C   LIG    1       -1.167  -4.905   0.191  0.00  0.00    +0.076 A 
ATOM     11  O   LIG    1       -0.286  -8.343   0.090  0.00  0.00    -0.453 OA
ATOM     12  C   LIG    1        0.040  -4.223   0.082  0.00  0.00    +0.054 A 
ATOM     13  O   LIG    1        3.571  -4.802  -0.246  0.00  0.00    -0.287 OA
ATOM     14  N   LIG    1        0.074  -2.844   0.090  0.00  0.00    -0.354 N 
ATOM     15  H   LIG    1       -0.756  -2.349   0.173  0.00  0.00    +0.166 HD
ENDROOT
BRANCH   1  21
ATOM     16  C   LIG    1        1.756   1.414  -1.056  0.00  0.00    +0.001 A 
ATOM     17  C   LIG    1        1.172   2.087   0.003  0.00  0.00    +0.003 A 
ATOM     18  C   LIG    1        0.613   1.385   1.054  0.00  0.00    +0.039 A 
ATOM     19  C   LIG    1        0.633   0.003   1.054  0.00  0.00    +0.132 A 
ATOM     20  F   LIG    1        0.087  -0.684   2.081  0.00  0.00    -0.205 F 
ATOM     21  C   LIG    1        1.222  -0.683  -0.013  0.00  0.00    +0.034 A 
ATOM     22  C   LIG    1        1.785   0.035  -1.070  0.00  0.00    +0.013 A 
ENDBRANCH   1  21
TORSDOF 1
