REMARK  Name = ZINC05732362
REMARK                            x       y       z     vdW  Elec       q    Type
REMARK                         _______ _______ _______ _____ _____    ______ ____
ROOT
ATOM      1  C   LIG    1       -0.460   2.923   1.512  0.00  0.00    +0.127 A 
ATOM      2  C   LIG    1       -0.081   3.765   0.472  0.00  0.00    +0.092 A 
ATOM      3  C   LIG    1       -0.344   5.120   0.545  0.00  0.00    +0.135 A 
ATOM      4  C   LIG    1       -0.994   5.638   1.673  0.00  0.00    +0.109 A 
ATOM      5  C   LIG    1       -1.375   4.784   2.723  0.00  0.00    +0.147 A 
ATOM      6  O   LIG    1       -2.001   5.290   3.806  0.00  0.00    -0.451 OA
ATOM      7  C   LIG    1       -2.281   6.599   3.928  0.00  0.00    +0.181 A 
ATOM      8  C   LIG    1       -1.954   7.509   2.968  0.00  0.00    +0.211 A 
ATOM      9  C   LIG    1       -1.292   7.074   1.790  0.00  0.00    +0.238 A 
ATOM     10  O   LIG    1       -0.983   7.860   0.909  0.00  0.00    -0.283 OA
ATOM     11  C   LIG    1       -1.108   3.427   2.629  0.00  0.00    +0.092 A 
ENDROOT
BRANCH   7  12
ATOM     12  C   LIG    1       -2.969   7.068   5.145  0.00  0.00    +0.025 A 
ATOM     13  C   LIG    1       -4.109   6.404   5.606  0.00  0.00    +0.015 A 
ATOM     14  C   LIG    1       -4.750   6.843   6.744  0.00  0.00    +0.050 A 
ATOM     15  C   LIG    1       -4.265   7.944   7.436  0.00  0.00    +0.158 A 
ATOM     16  C   LIG    1       -3.129   8.611   6.983  0.00  0.00    +0.159 A 
ATOM     17  C   LIG    1       -2.478   8.174   5.845  0.00  0.00    +0.060 A 
BRANCH  15  18
ATOM     18  O   LIG    1       -4.901   8.373   8.558  0.00  0.00    -0.503 OA
ATOM     19  H   LIG    1       -4.518   9.245   9.108  0.00  0.00    +0.292 HD
ENDBRANCH  15  18
BRANCH  16  20
ATOM     20  O   LIG    1       -2.657   9.690   7.664  0.00  0.00    -0.503 OA
ATOM     21  H   LIG    1       -1.760  10.217   7.306  0.00  0.00    +0.292 HD
ENDBRANCH  16  20
ENDBRANCH   7  12
BRANCH   1  23
ATOM     22  C   LIG    1        0.468   1.135   0.251  0.00  0.00    +0.277 C 
ATOM     23  O   LIG    1       -0.197   1.594   1.430  0.00  0.00    -0.495 OA
ENDBRANCH   1  23
BRANCH   3  24
ATOM     24  O   LIG    1        0.025   5.944  -0.469  0.00  0.00    -0.506 OA
ATOM     25  H   LIG    1       -0.186   7.021  -0.407  0.00  0.00    +0.292 HD
ENDBRANCH   3  24
BRANCH   8  26
ATOM     26  O   LIG    1       -2.259   8.825   3.137  0.00  0.00    -0.488 OA
ATOM     27  C   LIG    1       -3.479   9.288   2.554  0.00  0.00    +0.277 C 
ENDBRANCH   8  26
TORSDOF 6
