REMARK  Name = ZINC05172103
REMARK                            x       y       z     vdW  Elec       q    Type
REMARK                         _______ _______ _______ _____ _____    ______ ____
ROOT
ATOM      1  N   LIG    1       -8.334  -1.931  -0.469  0.00  0.00    -0.224 N 
ATOM      2  C   LIG    1       -8.127  -0.801   0.186  0.00  0.00    +0.263 C 
ATOM      3  C   LIG    1       -6.726  -0.371   0.339  0.00  0.00    +0.078 C 
ATOM      4  S   LIG    1       -5.873  -1.702  -0.495  0.00  0.00    -0.061 S 
ATOM      5  C   LIG    1       -6.219   0.734   0.953  0.00  0.00    +0.028 C 
ATOM      6  O   LIG    1       -9.049  -0.146   0.637  0.00  0.00    -0.269 OA
ATOM      7  C   LIG    1       -7.309  -2.657  -0.961  0.00  0.00    +0.125 C 
ATOM      8  S   LIG    1       -7.370  -4.135  -1.822  0.00  0.00    -0.027 S 
ENDROOT
BRANCH   5   9
ATOM      9  C   LIG    1       -4.792   1.038   0.850  0.00  0.00    -0.016 A 
ATOM     10  C   LIG    1       -4.012   0.453  -0.147  0.00  0.00    +0.012 A 
ATOM     11  C   LIG    1       -2.662   0.740  -0.246  0.00  0.00    +0.047 A 
ATOM     12  C   LIG    1       -2.041   1.607   0.629  0.00  0.00    +0.128 A 
ATOM     13  C   LIG    1       -2.773   2.227   1.664  0.00  0.00    +0.024 A 
ATOM     14  C   LIG    1       -2.159   3.117   2.559  0.00  0.00    +0.012 A 
ATOM     15  C   LIG    1       -2.899   3.701   3.543  0.00  0.00    +0.001 A 
ATOM     16  C   LIG    1       -4.259   3.434   3.670  0.00  0.00    +0.001 A 
ATOM     17  C   LIG    1       -4.888   2.579   2.812  0.00  0.00    +0.009 A 
ATOM     18  C   LIG    1       -4.157   1.962   1.792  0.00  0.00    -0.007 A 
BRANCH  12  19
ATOM     19  O   LIG    1       -0.715   1.861   0.498  0.00  0.00    -0.495 OA
ATOM     20  C   LIG    1       -0.030   1.197  -0.566  0.00  0.00    +0.277 C 
ENDBRANCH  12  19
ENDBRANCH   5   9
BRANCH   1  24
ATOM     21  C   LIG    1      -12.240  -3.291  -1.009  0.00  0.00    +0.120 A 
ATOM     22  C   LIG    1      -11.642  -2.498  -1.978  0.00  0.00    +0.047 A 
ATOM     23  C   LIG    1      -10.348  -2.047  -1.799  0.00  0.00    +0.027 A 
ATOM     24  C   LIG    1       -9.647  -2.388  -0.650  0.00  0.00    +0.043 A 
ATOM     25  C   LIG    1      -10.245  -3.186   0.316  0.00  0.00    +0.027 A 
ATOM     26  C   LIG    1      -11.540  -3.631   0.139  0.00  0.00    +0.047 A 
BRANCH  21  28
ATOM     27  C   LIG    1      -14.066  -4.546  -0.148  0.00  0.00    +0.277 C 
ATOM     28  O   LIG    1      -13.513  -3.735  -1.185  0.00  0.00    -0.495 OA
ENDBRANCH  21  28
ENDBRANCH   1  24
TORSDOF 4
