REMARK  Name = ZINC04814419
REMARK                            x       y       z     vdW  Elec       q    Type
REMARK                         _______ _______ _______ _____ _____    ______ ____
ROOT
ATOM      1  C   LIG    1        5.137   1.002  -0.158  0.00  0.00    +0.101 C 
ATOM      2  C   LIG    1        4.569   1.608  -1.462  0.00  0.00    +0.110 C 
ATOM      3  C   LIG    1        5.632   2.586  -1.911  0.00  0.00    +0.217 C 
ATOM      4  N   LIG    1        6.788   2.338  -1.272  0.00  0.00    -0.298 N 
ATOM      5  O   LIG    1        5.465   3.467  -2.728  0.00  0.00    -0.276 OA
ATOM      6  C   LIG    1        6.657   1.199  -0.355  0.00  0.00    +0.121 C 
ENDROOT
BRANCH   1  15
ATOM      7  C   LIG    1        2.079  -4.618   1.321  0.00  0.00    +0.000 A 
ATOM      8  C   LIG    1        3.135  -4.534   0.432  0.00  0.00    +0.002 A 
ATOM      9  C   LIG    1        3.744  -3.322   0.189  0.00  0.00    +0.024 A 
ATOM     10  C   LIG    1        3.300  -2.168   0.839  0.00  0.00    +0.039 A 
ATOM     11  C   LIG    1        2.241  -2.262   1.728  0.00  0.00    -0.024 A 
ATOM     12  C   LIG    1        1.960  -0.887   2.289  0.00  0.00    +0.056 C 
ATOM     13  C   LIG    1        2.994   0.027   1.611  0.00  0.00    +0.118 C 
ATOM     14  N   LIG    1        3.772  -0.856   0.737  0.00  0.00    -0.271 N 
ATOM     15  C   LIG    1        4.793  -0.461  -0.049  0.00  0.00    +0.225 C 
ATOM     16  O   LIG    1        5.435  -1.283  -0.668  0.00  0.00    -0.275 OA
ATOM     17  C   LIG    1        1.634  -3.480   1.968  0.00  0.00    +0.005 A 
ENDBRANCH   1  15
BRANCH   4  18
ATOM     18  C   LIG    1        8.021   3.105  -1.466  0.00  0.00    +0.076 C 
ATOM     19  C   LIG    1        7.774   4.569  -1.095  0.00  0.00    +0.022 C 
ATOM     20  C   LIG    1        9.061   5.370  -1.298  0.00  0.00    +0.002 C 
ATOM     21  C   LIG    1        9.493   5.281  -2.763  0.00  0.00    +0.000 C 
ATOM     22  C   LIG    1        9.740   3.817  -3.133  0.00  0.00    +0.002 C 
ATOM     23  C   LIG    1        8.453   3.015  -2.931  0.00  0.00    +0.022 C 
ENDBRANCH   4  18
TORSDOF 2
