REMARK  Name = ZINC05029798
REMARK                            x       y       z     vdW  Elec       q    Type
REMARK                         _______ _______ _______ _____ _____    ______ ____
ROOT
ATOM      1  N   LIG    1        0.001   0.018  -2.413  0.00  0.00    -0.242 N 
ATOM      2  H   LIG    1       -0.020   0.988  -2.400  0.00  0.00    +0.174 HD
ENDROOT
BRANCH   1   5
ATOM      3  C   LIG    1       -0.007   1.506   0.009  0.00  0.00    +0.069 C 
ATOM      4  C   LIG    1        0.025  -0.000   0.002  0.00  0.00    +0.080 A 
ATOM      5  C   LIG    1        0.029  -0.691  -1.223  0.00  0.00    +0.158 A 
ATOM      6  N   LIG    1        0.057  -2.011  -1.248  0.00  0.00    -0.227 NA
ATOM      7  C   LIG    1        0.083  -2.694  -0.097  0.00  0.00    +0.091 A 
ATOM      8  C   LIG    1        0.115  -4.099  -0.090  0.00  0.00    +0.030 A 
ATOM      9  C   LIG    1        0.141  -4.768   1.095  0.00  0.00    +0.002 A 
ATOM     10  C   LIG    1        0.138  -4.079   2.307  0.00  0.00    +0.002 A 
ATOM     11  C   LIG    1        0.108  -2.719   2.338  0.00  0.00    +0.030 A 
ATOM     12  C   LIG    1        0.080  -1.994   1.135  0.00  0.00    +0.090 A 
ATOM     13  N   LIG    1        0.056  -0.654   1.137  0.00  0.00    -0.247 NA
ENDBRANCH   1   5
BRANCH   1  14
ATOM     14  N   LIG    1        0.004  -0.665  -3.637  0.00  0.00    -0.312 N 
ATOM     15  H   LIG    1        0.026  -1.634  -3.651  0.00  0.00    +0.184 HD
ATOM     16  C   LIG    1       -0.021   0.000  -4.752  0.00  0.00    +0.110 C 
BRANCH  16  17
ATOM     17  C   LIG    1        0.094  -0.712  -6.037  0.00  0.00    +0.034 A 
ATOM     18  C   LIG    1        0.183   0.006  -7.232  0.00  0.00    +0.013 A 
ATOM     19  C   LIG    1        0.291  -0.666  -8.431  0.00  0.00    +0.001 A 
ATOM     20  C   LIG    1        0.309  -2.050  -8.456  0.00  0.00    +0.004 A 
ATOM     21  C   LIG    1        0.222  -2.772  -7.280  0.00  0.00    +0.046 A 
ATOM     22  C   LIG    1        0.119  -2.113  -6.066  0.00  0.00    +0.125 A 
BRANCH  22  23
ATOM     23  O   LIG    1        0.039  -2.821  -4.910  0.00  0.00    -0.506 OA
ATOM     24  H   LIG    1       -0.865  -3.041  -4.646  0.00  0.00    +0.292 HD
ENDBRANCH  22  23
ENDBRANCH  16  17
ENDBRANCH   1  14
TORSDOF 4
