REMARK  Name = ZINC04814420
REMARK                            x       y       z     vdW  Elec       q    Type
REMARK                         _______ _______ _______ _____ _____    ______ ____
ROOT
ATOM      1  C   LIG    1        5.137   1.002  -0.158  0.00  0.00    +0.101 C 
ATOM      2  C   LIG    1        4.751   1.759   1.133  0.00  0.00    +0.110 C 
ATOM      3  C   LIG    1        6.015   1.743   1.965  0.00  0.00    +0.217 C 
ATOM      4  N   LIG    1        7.071   1.426   1.195  0.00  0.00    -0.298 N 
ATOM      5  O   LIG    1        6.068   1.980   3.153  0.00  0.00    -0.276 OA
ATOM      6  C   LIG    1        6.668   1.208  -0.200  0.00  0.00    +0.121 C 
ENDROOT
BRANCH   1  15
ATOM      7  C   LIG    1        2.217  -4.822  -0.979  0.00  0.00    +0.000 A 
ATOM      8  C   LIG    1        3.425  -4.659  -0.325  0.00  0.00    +0.002 A 
ATOM      9  C   LIG    1        3.966  -3.401  -0.170  0.00  0.00    +0.024 A 
ATOM     10  C   LIG    1        3.298  -2.281  -0.671  0.00  0.00    +0.039 A 
ATOM     11  C   LIG    1        2.089  -2.455  -1.324  0.00  0.00    -0.024 A 
ATOM     12  C   LIG    1        1.581  -1.101  -1.765  0.00  0.00    +0.056 C 
ATOM     13  C   LIG    1        2.652  -0.110  -1.283  0.00  0.00    +0.118 C 
ATOM     14  N   LIG    1        3.668  -0.933  -0.621  0.00  0.00    -0.271 N 
ATOM     15  C   LIG    1        4.793  -0.461  -0.049  0.00  0.00    +0.225 C 
ATOM     16  O   LIG    1        5.528  -1.214   0.555  0.00  0.00    -0.275 OA
ATOM     17  C   LIG    1        1.551  -3.719  -1.478  0.00  0.00    +0.005 A 
ENDBRANCH   1  15
BRANCH   4  18
ATOM     18  C   LIG    1        8.447   1.313   1.685  0.00  0.00    +0.076 C 
ATOM     19  C   LIG    1        8.517   0.230   2.764  0.00  0.00    +0.022 C 
ATOM     20  C   LIG    1        9.954   0.112   3.276  0.00  0.00    +0.002 C 
ATOM     21  C   LIG    1       10.395   1.451   3.869  0.00  0.00    +0.000 C 
ATOM     22  C   LIG    1       10.325   2.534   2.790  0.00  0.00    +0.002 C 
ATOM     23  C   LIG    1        8.888   2.652   2.279  0.00  0.00    +0.022 C 
ENDBRANCH   4  18
TORSDOF 2
