REMARK  Name = ZINC05618789
REMARK                            x       y       z     vdW  Elec       q    Type
REMARK                         _______ _______ _______ _____ _____    ______ ____
ROOT
ATOM      1  C   LIG    1       -6.504   1.887   3.679  0.00  0.00    +0.144 C 
ENDROOT
BRANCH   1   5
ATOM      2  C   LIG    1       -9.640   1.648   0.788  0.00  0.00    +0.000 A 
ATOM      3  C   LIG    1       -9.772   2.480   1.885  0.00  0.00    +0.000 A 
ATOM      4  C   LIG    1       -8.757   2.557   2.820  0.00  0.00    +0.007 A 
ATOM      5  C   LIG    1       -7.610   1.802   2.659  0.00  0.00    -0.007 A 
ATOM      6  C   LIG    1       -7.476   0.974   1.561  0.00  0.00    +0.007 A 
ATOM      7  C   LIG    1       -8.493   0.893   0.628  0.00  0.00    +0.000 A 
ENDBRANCH   1   5
BRANCH   1   8
ATOM      8  C   LIG    1       -7.098   1.919   5.064  0.00  0.00    -0.007 A 
ATOM      9  C   LIG    1       -8.302   1.288   5.314  0.00  0.00    +0.007 A 
ATOM     10  C   LIG    1       -8.845   1.313   6.585  0.00  0.00    +0.000 A 
ATOM     11  C   LIG    1       -8.188   1.980   7.603  0.00  0.00    +0.000 A 
ATOM     12  C   LIG    1       -6.987   2.616   7.352  0.00  0.00    +0.000 A 
ATOM     13  C   LIG    1       -6.442   2.586   6.082  0.00  0.00    +0.007 A 
ENDBRANCH   1   8
BRANCH   1  14
ATOM     14  C   LIG    1       -5.606   0.684   3.546  0.00  0.00    -0.007 A 
ATOM     15  C   LIG    1       -6.155  -0.576   3.398  0.00  0.00    +0.007 A 
ATOM     16  C   LIG    1       -5.330  -1.678   3.271  0.00  0.00    +0.000 A 
ATOM     17  C   LIG    1       -3.957  -1.522   3.303  0.00  0.00    +0.000 A 
ATOM     18  C   LIG    1       -3.408  -0.263   3.456  0.00  0.00    +0.000 A 
ATOM     19  C   LIG    1       -4.232   0.840   3.578  0.00  0.00    +0.007 A 
ENDBRANCH   1  14
BRANCH   1  20
ATOM     20  O   LIG    1       -5.743   3.076   3.459  0.00  0.00    -0.357 OA
BRANCH  20  21
ATOM     21  C   LIG    1       -5.134   3.146   2.168  0.00  0.00    +0.196 C 
BRANCH  21  22
ATOM     22  C   LIG    1       -4.349   4.454   2.045  0.00  0.00    +0.175 C 
ATOM     23  C   LIG    1       -3.781   4.616   0.612  0.00  0.00    +0.150 C 
ATOM     24  C   LIG    1       -2.574   5.556   0.847  0.00  0.00    +0.088 C 
ATOM     25  C   LIG    1       -2.255   5.396   2.346  0.00  0.00    +0.226 C 
ATOM     26  O   LIG    1       -3.168   4.419   2.874  0.00  0.00    -0.348 OA
BRANCH  25  27
ATOM     27  N   LIG    1       -0.876   4.931   2.515  0.00  0.00    -0.274 N 
ATOM     28  C   LIG    1        0.040   5.740   3.130  0.00  0.00    +0.098 A 
ATOM     29  C   LIG    1        1.311   5.312   3.287  0.00  0.00    +0.088 A 
ATOM     30  C   LIG    1        1.670   4.029   2.809  0.00  0.00    +0.254 A 
ATOM     31  N   LIG    1        0.737   3.262   2.208  0.00  0.00    -0.275 N 
ATOM     32  H   LIG    1        0.981   2.353   1.871  0.00  0.00    +0.173 HD
ATOM     33  O   LIG    1        2.810   3.621   2.939  0.00  0.00    -0.268 OA
ATOM     34  C   LIG    1       -0.522   3.716   2.061  0.00  0.00    +0.331 A 
ATOM     35  O   LIG    1       -1.351   3.015   1.513  0.00  0.00    -0.246 OA
ENDBRANCH  25  27
BRANCH  23  36
ATOM     36  O   LIG    1       -3.352   3.358   0.087  0.00  0.00    -0.389 OA
ATOM     37  H   LIG    1       -2.908   3.419  -0.769  0.00  0.00    +0.210 HD
ENDBRANCH  23  36
ENDBRANCH  21  22
ENDBRANCH  20  21
ENDBRANCH   1  20
TORSDOF 8
