REMARK  Name = ZINC05133378
REMARK                            x       y       z     vdW  Elec       q    Type
REMARK                         _______ _______ _______ _____ _____    ______ ____
ROOT
ATOM      1  C   LIG    1       -0.017   1.383   0.010  0.00  0.00    +0.049 A 
ATOM      2  C   LIG    1        1.170   2.090   0.002  0.00  0.00    +0.049 A 
ATOM      3  C   LIG    1        2.380   1.413  -0.013  0.00  0.00    +0.117 A 
ATOM      4  C   LIG    1        2.399   0.026  -0.020  0.00  0.00    +0.049 A 
ATOM      5  C   LIG    1        1.212  -0.681  -0.012  0.00  0.00    +0.049 A 
ATOM      6  C   LIG    1        0.002  -0.004   0.002  0.00  0.00    +0.117 A 
ENDROOT
BRANCH   3   7
ATOM      7  O   LIG    1        3.549   2.108  -0.021  0.00  0.00    -0.507 OA
ATOM      8  H   LIG    1        3.895   2.306   0.860  0.00  0.00    +0.292 HD
ENDBRANCH   3   7
BRANCH   6   9
ATOM      9  O   LIG    1       -1.166  -0.700   0.010  0.00  0.00    -0.507 OA
ATOM     10  H   LIG    1       -1.513  -0.896  -0.871  0.00  0.00    +0.292 HD
ENDBRANCH   6   9
TORSDOF 2
