REMARK  Name = ZINC05202360
REMARK                            x       y       z     vdW  Elec       q    Type
REMARK                         _______ _______ _______ _____ _____    ______ ____
ROOT
ATOM      1  C   LIG    1        3.152  -1.564   0.212  0.00  0.00    +0.104 C 
ATOM      2  C   LIG    1        3.356  -2.331   1.502  0.00  0.00    +0.032 C 
ATOM      3  C   LIG    1        2.018  -2.730   2.122  0.00  0.00    +0.038 C 
ATOM      4  C   LIG    1        1.101  -3.265   1.052  0.00  0.00    -0.032 A 
ATOM      5  C   LIG    1        0.874  -4.622   0.950  0.00  0.00    +0.054 A 
ATOM      6  C   LIG    1        0.020  -5.113  -0.029  0.00  0.00    +0.165 A 
ATOM      7  C   LIG    1       -0.612  -4.242  -0.911  0.00  0.00    +0.202 A 
ATOM      8  C   LIG    1       -0.384  -2.876  -0.817  0.00  0.00    +0.173 A 
ATOM      9  C   LIG    1        0.480  -2.388   0.168  0.00  0.00    +0.031 A 
ATOM     10  C   LIG    1        0.736  -0.920   0.265  0.00  0.00    -0.009 A 
ATOM     11  C   LIG    1       -0.363  -0.101   0.271  0.00  0.00    +0.012 A 
ATOM     12  C   LIG    1       -0.507   1.233   0.395  0.00  0.00    +0.050 A 
ATOM     13  C   LIG    1        0.453   2.178   0.580  0.00  0.00    +0.167 A 
ATOM     14  C   LIG    1        1.819   1.936   0.672  0.00  0.00    +0.221 A 
ATOM     15  O   LIG    1        2.518   2.914   0.897  0.00  0.00    -0.284 OA
ATOM     16  C   LIG    1        2.484   0.749   0.543  0.00  0.00    +0.060 A 
ATOM     17  C   LIG    1        2.068  -0.515   0.352  0.00  0.00    -0.016 A 
ENDROOT
BRANCH   1  20
ATOM     18  C   LIG    1        5.965   0.036  -1.832  0.00  0.00    +0.109 C 
ATOM     19  C   LIG    1        4.673  -0.640  -1.452  0.00  0.00    +0.210 C 
ATOM     20  N   LIG    1        4.408  -0.908  -0.158  0.00  0.00    -0.309 N 
ATOM     21  H   LIG    1        5.049  -0.666   0.529  0.00  0.00    +0.149 HD
ATOM     22  O   LIG    1        3.871  -0.942  -2.310  0.00  0.00    -0.276 OA
ENDBRANCH   1  20
BRANCH   6  23
ATOM     23  O   LIG    1       -0.200  -6.451  -0.126  0.00  0.00    -0.491 OA
ATOM     24  C   LIG    1        0.479  -7.289   0.811  0.00  0.00    +0.277 C 
ENDBRANCH   6  23
BRANCH   7  25
ATOM     25  O   LIG    1       -1.451  -4.729  -1.865  0.00  0.00    -0.501 OA
ATOM     26  H   LIG    1       -2.373  -4.796  -1.581  0.00  0.00    +0.292 HD
ENDBRANCH   7  25
BRANCH   8  27
ATOM     27  O   LIG    1       -0.997  -2.019  -1.676  0.00  0.00    -0.491 OA
ATOM     28  C   LIG    1       -0.365  -1.805  -2.939  0.00  0.00    +0.277 C 
ENDBRANCH   8  27
BRANCH  13  29
ATOM     29  O   LIG    1        0.043   3.466   0.684  0.00  0.00    -0.491 OA
ATOM     30  C   LIG    1       -1.362   3.710   0.588  0.00  0.00    +0.277 C 
ENDBRANCH  13  29
TORSDOF 5
