REMARK  Name = ZINC04962622
REMARK                            x       y       z     vdW  Elec       q    Type
REMARK                         _______ _______ _______ _____ _____    ______ ____
ROOT
ATOM      1  C   LIG    1       -0.091   5.865  -1.409  0.00  0.00    +0.014 C 
ENDROOT
BRANCH   1   2
ATOM      2  C   LIG    1       -0.070   5.347   0.031  0.00  0.00    +0.035 C 
BRANCH   2   6
ATOM      3  C   LIG    1       -0.013   1.076   0.008  0.00  0.00    +0.000 A 
ATOM      4  C   LIG    1       -1.219   1.751   0.017  0.00  0.00    +0.000 A 
ATOM      5  C   LIG    1       -1.238   3.133   0.030  0.00  0.00    +0.003 A 
ATOM      6  C   LIG    1       -0.050   3.840   0.023  0.00  0.00    -0.047 A 
ATOM      7  C   LIG    1        1.156   3.165   0.008  0.00  0.00    +0.003 A 
ATOM      8  C   LIG    1        1.175   1.783   0.000  0.00  0.00    +0.000 A 
ENDBRANCH   2   6
ENDBRANCH   1   2
BRANCH   1   9
ATOM      9  C   LIG    1       -0.112   7.395  -1.400  0.00  0.00    +0.098 C 
BRANCH   9  10
ATOM     10  C   LIG    1       -0.132   7.905  -2.818  0.00  0.00    +0.235 C 
ATOM     11  N   LIG    1       -0.153   9.231  -3.057  0.00  0.00    -0.197 N 
ATOM     12  H   LIG    1       -0.154   9.857  -2.316  0.00  0.00    +0.182 HD
ATOM     13  O   LIG    1       -0.131   7.122  -3.744  0.00  0.00    -0.274 OA
BRANCH  11  14
ATOM     14  O   LIG    1       -0.172   9.710  -4.389  0.00  0.00    -0.295 OA
ATOM     15  H   LIG    1       -0.186  10.674  -4.460  0.00  0.00    +0.241 HD
ENDBRANCH  11  14
ENDBRANCH   9  10
ENDBRANCH   1   9
TORSDOF 5
