REMARK  Name = ZINC05682768
REMARK                            x       y       z     vdW  Elec       q    Type
REMARK                         _______ _______ _______ _____ _____    ______ ____
ROOT
ATOM      1  C   LIG    1        5.507  -1.710   1.381  0.00  0.00    -0.071 C 
ATOM      2  C   LIG    1        5.967  -2.026   2.826  0.00  0.00    -0.017 C 
ATOM      3  C   LIG    1        7.501  -2.166   2.643  0.00  0.00    -0.017 C 
ATOM      4  C   LIG    1        7.820  -1.109   1.564  0.00  0.00    -0.071 C 
ATOM      5  N   LIG    1        6.571  -0.849   0.823  0.00  0.00    +0.383 N 
ATOM      6  H   LIG    1        6.311   0.121   0.925  0.00  0.00    -0.085 HD
ATOM      7  H   LIG    1        6.703  -1.063  -0.154  0.00  0.00    -0.085 HD
ENDROOT
BRANCH   1   8
ATOM      8  C   LIG    1        4.171  -0.963   1.399  0.00  0.00    -0.011 C 
BRANCH   8   9
ATOM      9  C   LIG    1        3.711  -0.707  -0.038  0.00  0.00    +0.033 C 
BRANCH   9  13
ATOM     10  C   LIG    1       -0.017   1.378   0.010  0.00  0.00    +0.000 A 
ATOM     11  C   LIG    1        1.171   2.086   0.002  0.00  0.00    +0.000 A 
ATOM     12  C   LIG    1        2.377   1.411  -0.013  0.00  0.00    +0.003 A 
ATOM     13  C   LIG    1        2.396   0.029  -0.020  0.00  0.00    -0.047 A 
ATOM     14  C   LIG    1        1.208  -0.679  -0.012  0.00  0.00    +0.003 A 
ATOM     15  C   LIG    1        0.002  -0.004   0.002  0.00  0.00    +0.000 A 
ENDBRANCH   9  13
ENDBRANCH   8   9
ENDBRANCH   1   8
BRANCH   4  16
ATOM     16  C   LIG    1        8.891  -1.645   0.611  0.00  0.00    -0.011 C 
BRANCH  16  17
ATOM     17  C   LIG    1        9.263  -0.558  -0.400  0.00  0.00    +0.033 C 
BRANCH  17  18
ATOM     18  C   LIG    1       10.318  -1.085  -1.338  0.00  0.00    -0.047 A 
ATOM     19  C   LIG    1       11.656  -0.938  -1.027  0.00  0.00    +0.003 A 
ATOM     20  C   LIG    1       12.623  -1.422  -1.888  0.00  0.00    +0.000 A 
ATOM     21  C   LIG    1       12.252  -2.053  -3.060  0.00  0.00    +0.000 A 
ATOM     22  C   LIG    1       10.913  -2.201  -3.371  0.00  0.00    +0.000 A 
ATOM     23  C   LIG    1        9.946  -1.721  -2.508  0.00  0.00    +0.003 A 
ENDBRANCH  17  18
ENDBRANCH  16  17
ENDBRANCH   4  16
TORSDOF 6
