REMARK  Name = ZINC04886884
REMARK                            x       y       z     vdW  Elec       q    Type
REMARK                         _______ _______ _______ _____ _____    ______ ____
ROOT
ATOM      1  O   LIG    1        7.587   1.756  -0.051  0.00  0.00    -0.357 OA
ENDROOT
BRANCH   1   2
ATOM      2  C   LIG    1        6.809   0.568   0.110  0.00  0.00    +0.196 C 
BRANCH   2   6
ATOM      3  C   LIG    1        4.153   0.494  -2.313  0.00  0.00    +0.226 C 
ATOM      4  C   LIG    1        3.968  -0.808  -1.493  0.00  0.00    +0.088 C 
ATOM      5  C   LIG    1        5.425  -1.150  -1.094  0.00  0.00    +0.150 C 
ATOM      6  C   LIG    1        6.178   0.188  -1.231  0.00  0.00    +0.175 C 
ATOM      7  O   LIG    1        5.215   1.182  -1.617  0.00  0.00    -0.348 OA
BRANCH   3  11
ATOM      8  C   LIG    1        1.769   4.616  -1.036  0.00  0.00    +0.051 C 
ATOM      9  C   LIG    1        1.790   3.258  -1.688  0.00  0.00    +0.030 A 
ATOM     10  C   LIG    1        2.923   2.523  -1.702  0.00  0.00    +0.101 A 
ATOM     11  N   LIG    1        2.925   1.291  -2.299  0.00  0.00    -0.274 N 
ATOM     12  C   LIG    1        1.809   0.806  -2.873  0.00  0.00    +0.331 A 
ATOM     13  N   LIG    1        0.666   1.518  -2.874  0.00  0.00    -0.275 N 
ATOM     14  H   LIG    1       -0.154   1.142  -3.305  0.00  0.00    +0.173 HD
ATOM     15  O   LIG    1        1.833  -0.290  -3.398  0.00  0.00    -0.246 OA
ATOM     16  C   LIG    1        0.623   2.735  -2.296  0.00  0.00    +0.257 A 
ATOM     17  O   LIG    1       -0.409   3.382  -2.301  0.00  0.00    -0.267 OA
ENDBRANCH   3  11
BRANCH   5  18
ATOM     18  O   LIG    1        5.973  -2.126  -1.982  0.00  0.00    -0.389 OA
ATOM     19  H   LIG    1        5.537  -2.987  -1.938  0.00  0.00    +0.210 HD
ENDBRANCH   5  18
ENDBRANCH   2   6
ENDBRANCH   1   2
BRANCH   1  20
ATOM     20  C   LIG    1        8.224   2.200   1.149  0.00  0.00    +0.144 C 
BRANCH  20  21
ATOM     21  C   LIG    1        9.012   3.453   0.865  0.00  0.00    -0.007 A 
ATOM     22  C   LIG    1        9.187   4.399   1.858  0.00  0.00    +0.007 A 
ATOM     23  C   LIG    1        9.914   5.546   1.599  0.00  0.00    +0.000 A 
ATOM     24  C   LIG    1       10.458   5.751   0.345  0.00  0.00    +0.000 A 
ATOM     25  C   LIG    1       10.279   4.807  -0.649  0.00  0.00    +0.000 A 
ATOM     26  C   LIG    1        9.556   3.658  -0.389  0.00  0.00    +0.007 A 
ENDBRANCH  20  21
BRANCH  20  27
ATOM     27  C   LIG    1        9.153   1.125   1.652  0.00  0.00    -0.007 A 
ATOM     28  C   LIG    1        9.636   1.179   2.946  0.00  0.00    +0.007 A 
ATOM     29  C   LIG    1       10.484   0.191   3.409  0.00  0.00    +0.000 A 
ATOM     30  C   LIG    1       10.857  -0.846   2.575  0.00  0.00    +0.000 A 
ATOM     31  C   LIG    1       10.378  -0.898   1.280  0.00  0.00    +0.000 A 
ATOM     32  C   LIG    1        9.526   0.088   0.818  0.00  0.00    +0.007 A 
ENDBRANCH  20  27
BRANCH  20  33
ATOM     33  C   LIG    1        7.179   2.491   2.195  0.00  0.00    -0.007 A 
ATOM     34  C   LIG    1        6.933   1.574   3.200  0.00  0.00    +0.007 A 
ATOM     35  C   LIG    1        5.977   1.843   4.162  0.00  0.00    +0.000 A 
ATOM     36  C   LIG    1        5.260   3.024   4.113  0.00  0.00    +0.000 A 
ATOM     37  C   LIG    1        5.503   3.938   3.105  0.00  0.00    +0.000 A 
ATOM     38  C   LIG    1        6.462   3.672   2.146  0.00  0.00    +0.007 A 
ENDBRANCH  20  33
ENDBRANCH   1  20
TORSDOF 8
