REMARK  Name = ZINC05548948
REMARK                            x       y       z     vdW  Elec       q    Type
REMARK                         _______ _______ _______ _____ _____    ______ ____
ROOT
ATOM      1  C   LIG    1        0.815   1.237  -0.141  0.00  0.00    +0.068 C 
ATOM      2  C   LIG    1       -0.010  -0.015   0.009  0.00  0.00    +0.063 C 
ATOM      3  N   LIG    1       -0.388  -0.405   1.187  0.00  0.00    -0.185 NA
ENDROOT
BRANCH   2   4
ATOM      4  C   LIG    1       -0.386  -0.797  -1.183  0.00  0.00    -0.003 A 
ATOM      5  C   LIG    1       -1.654  -1.377  -1.270  0.00  0.00    +0.010 A 
ATOM      6  C   LIG    1       -2.000  -2.107  -2.389  0.00  0.00    +0.001 A 
ATOM      7  C   LIG    1       -1.094  -2.265  -3.422  0.00  0.00    +0.000 A 
ATOM      8  C   LIG    1        0.164  -1.694  -3.343  0.00  0.00    +0.001 A 
ATOM      9  C   LIG    1        0.521  -0.956  -2.233  0.00  0.00    +0.010 A 
ENDBRANCH   2   4
BRANCH   3  10
ATOM     10  N   LIG    1       -1.028  -1.642   1.343  0.00  0.00    -0.218 N 
ATOM     11  H   LIG    1       -1.117  -2.241   0.586  0.00  0.00    +0.176 HD
BRANCH  10  12
ATOM     12  C   LIG    1       -1.521  -1.998   2.546  0.00  0.00    +0.147 C 
ATOM     13  S   LIG    1       -2.303  -3.510   2.737  0.00  0.00    -0.017 S 
BRANCH  12  14
ATOM     14  N   LIG    1       -1.398  -1.166   3.599  0.00  0.00    -0.339 N 
ATOM     15  H   LIG    1       -1.752  -1.423   4.464  0.00  0.00    +0.144 HD
ATOM     16  H   LIG    1       -0.955  -0.310   3.491  0.00  0.00    +0.144 HD
ENDBRANCH  12  14
ENDBRANCH  10  12
ENDBRANCH   3  10
TORSDOF 4
