REMARK  Name = ZINC05784821
REMARK                            x       y       z     vdW  Elec       q    Type
REMARK                         _______ _______ _______ _____ _____    ______ ____
ROOT
ATOM      1  C   LIG    1       -1.262  -0.760   0.011  0.00  0.00    +0.181 A 
ATOM      2  C   LIG    1       -2.459  -0.076   0.125  0.00  0.00    +0.203 A 
ATOM      3  C   LIG    1       -3.666  -0.787   0.134  0.00  0.00    +0.177 A 
ATOM      4  C   LIG    1       -3.617  -2.194   0.023  0.00  0.00    +0.108 A 
ATOM      5  C   LIG    1       -4.802  -2.958   0.026  0.00  0.00    +0.177 A 
ATOM      6  C   LIG    1       -4.734  -4.319  -0.083  0.00  0.00    +0.207 A 
ATOM      7  C   LIG    1       -3.485  -4.958  -0.197  0.00  0.00    +0.227 A 
ATOM      8  C   LIG    1       -2.305  -4.209  -0.201  0.00  0.00    +0.101 A 
ATOM      9  O   LIG    1       -3.427  -6.288  -0.302  0.00  0.00    -0.284 OA
ATOM     10  C   LIG    1       -2.362  -2.833  -0.091  0.00  0.00    +0.147 A 
ATOM     11  O   LIG    1       -1.229  -2.099  -0.099  0.00  0.00    -0.451 OA
ENDROOT
BRANCH   1  17
ATOM     12  C   LIG    1        0.139   1.125  -0.812  0.00  0.00    +0.015 A 
ATOM     13  C   LIG    1        1.323   1.830  -0.818  0.00  0.00    +0.050 A 
ATOM     14  C   LIG    1        2.381   1.424  -0.018  0.00  0.00    +0.158 A 
ATOM     15  C   LIG    1        2.252   0.299   0.797  0.00  0.00    +0.159 A 
ATOM     16  C   LIG    1        1.069  -0.414   0.808  0.00  0.00    +0.060 A 
ATOM     17  C   LIG    1        0.002  -0.004   0.002  0.00  0.00    +0.025 A 
BRANCH  14  18
ATOM     18  O   LIG    1        3.546   2.123  -0.028  0.00  0.00    -0.503 OA
ATOM     19  H   LIG    1        3.583   2.835   0.625  0.00  0.00    +0.292 HD
ENDBRANCH  14  18
BRANCH  15  20
ATOM     20  O   LIG    1        3.292  -0.096   1.579  0.00  0.00    -0.503 OA
ATOM     21  H   LIG    1        3.292   0.299   2.462  0.00  0.00    +0.292 HD
ENDBRANCH  15  20
ENDBRANCH   1  17
BRANCH   2  22
ATOM     22  O   LIG    1       -2.464   1.280   0.230  0.00  0.00    -0.501 OA
ATOM     23  H   LIG    1       -3.348   1.666   0.306  0.00  0.00    +0.292 HD
ENDBRANCH   2  22
BRANCH   3  24
ATOM     24  O   LIG    1       -4.848  -0.142   0.246  0.00  0.00    -0.503 OA
ATOM     25  H   LIG    1       -4.868   0.792   0.318  0.00  0.00    +0.292 HD
ENDBRANCH   3  24
BRANCH   5  26
ATOM     26  O   LIG    1       -6.009  -2.344   0.136  0.00  0.00    -0.503 OA
ATOM     27  H   LIG    1       -6.762  -2.951   0.129  0.00  0.00    +0.292 HD
ENDBRANCH   5  26
BRANCH   6  28
ATOM     28  O   LIG    1       -5.877  -5.059  -0.080  0.00  0.00    -0.501 OA
ATOM     29  H   LIG    1       -5.730  -6.011  -0.161  0.00  0.00    +0.292 HD
ENDBRANCH   6  28
TORSDOF 7
