REMARK  Name = ZINC04899474
REMARK                            x       y       z     vdW  Elec       q    Type
REMARK                         _______ _______ _______ _____ _____    ______ ____
ROOT
ATOM      1  C   LIG    1        4.142  -0.948  -1.487  0.00  0.00    +0.163 C 
ENDROOT
BRANCH   1   2
ATOM      2  C   LIG    1        5.513  -1.573  -1.506  0.00  0.00    +0.237 C 
ATOM      3  N   LIG    1        6.558  -0.921  -0.960  0.00  0.00    -0.288 N 
ATOM      4  C   LIG    1        6.503   0.402  -0.313  0.00  0.00    +0.109 C 
ATOM      5  C   LIG    1        7.944   0.959  -0.425  0.00  0.00    +0.021 C 
ATOM      6  C   LIG    1        8.791  -0.324  -0.217  0.00  0.00    +0.033 C 
ATOM      7  C   LIG    1        7.942  -1.415  -0.904  0.00  0.00    +0.162 C 
ATOM      8  O   LIG    1        5.676  -2.663  -2.013  0.00  0.00    -0.274 OA
BRANCH   7   9
ATOM      9  C   LIG    1        7.999  -2.691  -0.104  0.00  0.00    +0.231 C 
ATOM     10  N   LIG    1        9.177  -3.321   0.077  0.00  0.00    -0.328 N 
ATOM     11  H   LIG    1        9.213  -4.143   0.592  0.00  0.00    +0.145 HD
ATOM     12  H   LIG    1        9.987  -2.954  -0.308  0.00  0.00    +0.145 HD
ATOM     13  O   LIG    1        6.985  -3.151   0.377  0.00  0.00    -0.274 OA
ENDBRANCH   7   9
ENDBRANCH   1   2
BRANCH   1  14
ATOM     14  N   LIG    1        3.186  -1.848  -2.137  0.00  0.00    -0.302 N 
ATOM     15  H   LIG    1        3.362  -2.801  -2.170  0.00  0.00    +0.150 HD
ATOM     16  C   LIG    1        2.062  -1.351  -2.690  0.00  0.00    +0.234 C 
ATOM     17  O   LIG    1        1.841  -0.159  -2.650  0.00  0.00    -0.274 OA
BRANCH  16  18
ATOM     18  C   LIG    1        1.079  -2.277  -3.359  0.00  0.00    +0.159 C 
ATOM     19  C   LIG    1        1.530  -2.583  -4.804  0.00  0.00    +0.041 C 
ATOM     20  C   LIG    1        0.763  -1.508  -5.609  0.00  0.00    +0.098 C 
ATOM     21  C   LIG    1       -0.430  -1.176  -4.740  0.00  0.00    +0.214 C 
ATOM     22  O   LIG    1       -1.423  -0.591  -5.117  0.00  0.00    -0.276 OA
ATOM     23  N   LIG    1       -0.229  -1.622  -3.488  0.00  0.00    -0.304 N 
ATOM     24  H   LIG    1       -0.866  -1.524  -2.763  0.00  0.00    +0.149 HD
ENDBRANCH  16  18
ENDBRANCH   1  14
BRANCH   1  25
ATOM     25  C   LIG    1        3.711  -0.707  -0.039  0.00  0.00    +0.067 C 
BRANCH  25  29
ATOM     26  C   LIG    1       -0.017   1.378   0.010  0.00  0.00    +0.000 A 
ATOM     27  C   LIG    1        1.171   2.086   0.002  0.00  0.00    +0.000 A 
ATOM     28  C   LIG    1        2.377   1.411  -0.014  0.00  0.00    +0.004 A 
ATOM     29  C   LIG    1        2.396   0.029  -0.022  0.00  0.00    -0.045 A 
ATOM     30  C   LIG    1        1.208  -0.679  -0.014  0.00  0.00    +0.004 A 
ATOM     31  C   LIG    1        0.002  -0.004   0.002  0.00  0.00    +0.000 A 
ENDBRANCH  25  29
ENDBRANCH   1  25
TORSDOF 6
