REMARK  Name = ZINC05462669
REMARK                            x       y       z     vdW  Elec       q    Type
REMARK                         _______ _______ _______ _____ _____    ______ ____
ROOT
ATOM      1  C   LIG    1       -0.019   1.526   0.010  0.00  0.00    +0.019 C 
ATOM      2  C   LIG    1        0.002  -0.004   0.002  0.00  0.00    +0.098 C 
ATOM      3  C   LIG    1       -1.434  -0.547   0.040  0.00  0.00    +0.181 C 
ATOM      4  C   LIG    1       -2.204  -0.038  -1.180  0.00  0.00    +0.052 C 
ATOM      5  O   LIG    1       -2.078  -0.097   1.232  0.00  0.00    -0.488 OA
ATOM      6  C   LIG    1       -1.467  -0.316   2.423  0.00  0.00    +0.136 A 
ATOM      7  C   LIG    1       -2.213  -0.330   3.566  0.00  0.00    +0.056 A 
ATOM      8  C   LIG    1       -1.603  -0.547   4.812  0.00  0.00    +0.004 A 
ATOM      9  C   LIG    1       -0.203  -0.752   4.891  0.00  0.00    +0.067 A 
ATOM     10  C   LIG    1        0.565  -0.741   3.712  0.00  0.00    +0.142 A 
ATOM     11  C   LIG    1        0.404  -0.966   6.146  0.00  0.00    +0.132 A 
ATOM     12  C   LIG    1       -0.366  -0.975   7.289  0.00  0.00    +0.092 A 
ATOM     13  C   LIG    1       -1.743  -0.776   7.223  0.00  0.00    +0.129 A 
ATOM     14  C   LIG    1       -2.371  -0.562   5.999  0.00  0.00    +0.036 A 
ATOM     15  C   LIG    1       -0.069  -0.525   2.488  0.00  0.00    +0.101 A 
ATOM     16  C   LIG    1        0.711  -0.518   1.242  0.00  0.00    +0.176 C 
ATOM     17  O   LIG    1        1.861  -0.904   1.205  0.00  0.00    -0.291 OA
ENDROOT
BRANCH  14  18
ATOM     18  C   LIG    1       -3.833  -0.352   5.941  0.00  0.00    +0.036 A 
ATOM     19  C   LIG    1       -4.368   0.954   6.031  0.00  0.00    +0.004 A 
ATOM     20  C   LIG    1       -3.522   2.066   6.183  0.00  0.00    +0.056 A 
ATOM     21  C   LIG    1       -4.043   3.324   6.270  0.00  0.00    +0.136 A 
ATOM     22  C   LIG    1       -5.444   3.518   6.202  0.00  0.00    +0.101 A 
ATOM     23  C   LIG    1       -5.978   4.883   6.284  0.00  0.00    +0.176 C 
ATOM     24  C   LIG    1       -5.010   5.966   6.723  0.00  0.00    +0.098 C 
ATOM     25  C   LIG    1       -4.842   5.931   8.243  0.00  0.00    +0.019 C 
ATOM     26  C   LIG    1       -3.665   5.678   6.039  0.00  0.00    +0.181 C 
ATOM     27  C   LIG    1       -3.844   5.726   4.520  0.00  0.00    +0.052 C 
ATOM     28  O   LIG    1       -7.135   5.132   6.015  0.00  0.00    -0.291 OA
ATOM     29  C   LIG    1       -6.308   2.432   6.055  0.00  0.00    +0.142 A 
ATOM     30  O   LIG    1       -3.208   4.382   6.424  0.00  0.00    -0.488 OA
ATOM     31  C   LIG    1       -5.772   1.134   5.970  0.00  0.00    +0.067 A 
ATOM     32  C   LIG    1       -6.614   0.012   5.824  0.00  0.00    +0.132 A 
ATOM     33  C   LIG    1       -6.071  -1.251   5.740  0.00  0.00    +0.092 A 
ATOM     34  C   LIG    1       -4.691  -1.438   5.791  0.00  0.00    +0.129 A 
BRANCH  29  35
ATOM     35  O   LIG    1       -7.647   2.625   5.995  0.00  0.00    -0.505 OA
ATOM     36  H   LIG    1       -7.998   3.492   6.053  0.00  0.00    +0.292 HD
ENDBRANCH  29  35
BRANCH  32  37
ATOM     37  O   LIG    1       -7.960   0.177   5.767  0.00  0.00    -0.506 OA
ATOM     38  H   LIG    1       -8.304   0.303   4.871  0.00  0.00    +0.292 HD
ENDBRANCH  32  37
BRANCH  34  39
ATOM     39  O   LIG    1       -4.179  -2.692   5.699  0.00  0.00    -0.506 OA
ATOM     40  H   LIG    1       -4.078  -3.139   6.551  0.00  0.00    +0.292 HD
ENDBRANCH  34  39
ENDBRANCH  14  18
BRANCH  10  41
ATOM     41  O   LIG    1        1.904  -0.937   3.765  0.00  0.00    -0.505 OA
ATOM     42  H   LIG    1        2.169  -1.864   3.692  0.00  0.00    +0.292 HD
ENDBRANCH  10  41
BRANCH  11  43
ATOM     43  O   LIG    1        1.744  -1.162   6.229  0.00  0.00    -0.506 OA
ATOM     44  H   LIG    1        2.254  -0.348   6.341  0.00  0.00    +0.292 HD
ENDBRANCH  11  43
BRANCH  13  45
ATOM     45  O   LIG    1       -2.480  -0.790   8.364  0.00  0.00    -0.506 OA
ATOM     46  H   LIG    1       -2.571   0.076   8.784  0.00  0.00    +0.292 HD
ENDBRANCH  13  45
TORSDOF 7
