REMARK  Name = ZINC05832987
REMARK                            x       y       z     vdW  Elec       q    Type
REMARK                         _______ _______ _______ _____ _____    ______ ____
ROOT
ATOM      1  C   LIG    1        1.466   2.021   0.000  0.00  0.00    -0.064 C 
ATOM      2  C   LIG    1        0.037   1.467  -0.041  0.00  0.00    -0.010 C 
ATOM      3  C   LIG    1        0.112  -0.059  -0.050  0.00  0.00    +0.037 C 
ATOM      4  C   LIG    1        0.994  -0.553   1.068  0.00  0.00    +0.001 A 
ATOM      5  C   LIG    1        1.894   0.263   1.717  0.00  0.00    -0.042 A 
ATOM      6  C   LIG    1        2.684  -0.256   2.735  0.00  0.00    +0.007 A 
ATOM      7  C   LIG    1        2.575  -1.580   3.108  0.00  0.00    +0.049 A 
ATOM      8  C   LIG    1        1.668  -2.404   2.461  0.00  0.00    +0.159 A 
ATOM      9  C   LIG    1        0.878  -1.888   1.441  0.00  0.00    +0.162 A 
ATOM     10  C   LIG    1        2.060   1.720   1.375  0.00  0.00    +0.020 C 
ENDROOT
BRANCH   1  11
ATOM     11  N   LIG    1        1.425   3.484  -0.201  0.00  0.00    +0.382 N 
ATOM     12  H   LIG    1        0.846   3.906   0.536  0.00  0.00    -0.081 HD
BRANCH  11  13
ATOM     13  C   LIG    1        2.790   4.045  -0.118  0.00  0.00    -0.079 C 
BRANCH  13  15
ATOM     14  C   LIG    1        4.084   6.149   0.258  0.00  0.00    +0.002 C 
ATOM     15  C   LIG    1        2.690   5.566   0.014  0.00  0.00    -0.022 C 
ENDBRANCH  13  15
ENDBRANCH  11  13
BRANCH  11  16
ATOM     16  C   LIG    1        0.829   3.797  -1.517  0.00  0.00    -0.079 C 
BRANCH  16  17
ATOM     17  C   LIG    1        1.548   3.028  -2.627  0.00  0.00    -0.022 C 
ATOM     18  C   LIG    1        1.003   3.468  -3.987  0.00  0.00    +0.002 C 
ENDBRANCH  16  17
ENDBRANCH  11  16
ENDBRANCH   1  11
BRANCH   8  19
ATOM     19  O   LIG    1        1.551  -3.709   2.823  0.00  0.00    -0.503 OA
ATOM     20  H   LIG    1        2.137  -4.306   2.338  0.00  0.00    +0.292 HD
ENDBRANCH   8  19
BRANCH   9  21
ATOM     21  O   LIG    1       -0.013  -2.694   0.804  0.00  0.00    -0.503 OA
ATOM     22  H   LIG    1        0.349  -3.146   0.029  0.00  0.00    +0.292 HD
ENDBRANCH   9  21
TORSDOF 7
