REMARK  Name = ZINC05331574
REMARK                            x       y       z     vdW  Elec       q    Type
REMARK                         _______ _______ _______ _____ _____    ______ ____
ROOT
ATOM      1  C   LIG    1        3.724  -0.662  -0.070  0.00  0.00    -0.010 C 
ATOM      2  C   LIG    1        3.948  -1.348  -1.218  0.00  0.00    +0.017 C 
ENDROOT
BRANCH   1   6
ATOM      3  C   LIG    1       -0.209   0.612   0.911  0.00  0.00    +0.000 A 
ATOM      4  C   LIG    1        0.775   1.550   0.654  0.00  0.00    +0.001 A 
ATOM      5  C   LIG    1        2.054   1.143   0.335  0.00  0.00    +0.008 A 
ATOM      6  C   LIG    1        2.354  -0.218   0.271  0.00  0.00    -0.017 A 
ATOM      7  C   LIG    1        1.357  -1.159   0.532  0.00  0.00    +0.008 A 
ATOM      8  C   LIG    1        0.083  -0.739   0.850  0.00  0.00    +0.001 A 
ENDBRANCH   1   6
BRANCH   1   9
ATOM      9  C   LIG    1        4.849  -0.356   0.841  0.00  0.00    -0.017 A 
ATOM     10  C   LIG    1        4.877  -0.897   2.127  0.00  0.00    +0.008 A 
ATOM     11  C   LIG    1        5.932  -0.614   2.969  0.00  0.00    +0.001 A 
ATOM     12  C   LIG    1        6.956   0.214   2.545  0.00  0.00    +0.000 A 
ATOM     13  C   LIG    1        6.932   0.759   1.273  0.00  0.00    +0.001 A 
ATOM     14  C   LIG    1        5.886   0.478   0.419  0.00  0.00    +0.008 A 
ENDBRANCH   1   9
BRANCH   2  15
ATOM     15  C   LIG    1        5.272  -1.932  -1.479  0.00  0.00    -0.022 A 
ATOM     16  C   LIG    1        5.810  -1.949  -2.775  0.00  0.00    +0.027 A 
ATOM     17  C   LIG    1        7.057  -2.502  -2.972  0.00  0.00    +0.111 A 
ATOM     18  N   LIG    1        7.736  -3.020  -1.966  0.00  0.00    -0.263 NA
ATOM     19  C   LIG    1        7.266  -3.030  -0.732  0.00  0.00    +0.111 A 
ATOM     20  C   LIG    1        6.030  -2.494  -0.441  0.00  0.00    +0.027 A 
ENDBRANCH   2  15
TORSDOF 3
