REMARK  Name = ZINC05833744
REMARK                            x       y       z     vdW  Elec       q    Type
REMARK                         _______ _______ _______ _____ _____    ______ ____
ROOT
ATOM      1  N   LIG    1        0.017  -0.014   0.026  0.00  0.00    +0.380 N 
ATOM      2  H   LIG    1        0.572  -0.325   0.832  0.00  0.00    -0.082 HD
ATOM      3  C   LIG    1        0.646  -0.520  -1.213  0.00  0.00    -0.071 C 
ATOM      4  C   LIG    1        2.101  -0.048  -1.260  0.00  0.00    +0.002 C 
ATOM      5  C   LIG    1        2.137   1.483  -1.252  0.00  0.00    +0.004 C 
ATOM      6  C   LIG    1        1.417   1.995  -0.001  0.00  0.00    -0.018 C 
ATOM      7  C   LIG    1       -0.018   1.464   0.010  0.00  0.00    -0.079 C 
ENDROOT
BRANCH   4   8
ATOM      8  C   LIG    1        2.755  -0.560  -2.518  0.00  0.00    -0.042 A 
ATOM      9  C   LIG    1        2.248  -0.204  -3.753  0.00  0.00    +0.007 A 
ATOM     10  C   LIG    1        2.845  -0.671  -4.910  0.00  0.00    +0.049 A 
ATOM     11  C   LIG    1        3.954  -1.497  -4.831  0.00  0.00    +0.158 A 
ATOM     12  C   LIG    1        4.465  -1.856  -3.587  0.00  0.00    +0.158 A 
ATOM     13  C   LIG    1        3.865  -1.380  -2.433  0.00  0.00    +0.053 A 
BRANCH  11  14
ATOM     14  O   LIG    1        4.543  -1.958  -5.968  0.00  0.00    -0.503 OA
ATOM     15  H   LIG    1        5.241  -1.383  -6.309  0.00  0.00    +0.292 HD
ENDBRANCH  11  14
BRANCH  12  16
ATOM     16  O   LIG    1        5.553  -2.667  -3.506  0.00  0.00    -0.503 OA
ATOM     17  H   LIG    1        6.397  -2.194  -3.494  0.00  0.00    +0.292 HD
ENDBRANCH  12  16
ENDBRANCH   4   8
BRANCH   1  18
ATOM     18  C   LIG    1       -1.354  -0.550   0.152  0.00  0.00    -0.079 C 
BRANCH  18  20
ATOM     19  C   LIG    1       -3.305  -0.769   1.696  0.00  0.00    +0.002 C 
ATOM     20  C   LIG    1       -1.894  -0.201   1.540  0.00  0.00    -0.022 C 
ENDBRANCH  18  20
ENDBRANCH   1  18
TORSDOF 5
