REMARK  Name = ZINC05519276
REMARK                            x       y       z     vdW  Elec       q    Type
REMARK                         _______ _______ _______ _____ _____    ______ ____
ROOT
ATOM      1  C   LIG    1        5.386   2.607  -0.033  0.00  0.00    +0.136 A 
ATOM      2  C   LIG    1        5.671   4.042  -0.044  0.00  0.00    +0.013 A 
ATOM      3  C   LIG    1        4.639   4.986  -0.046  0.00  0.00    +0.011 A 
ATOM      4  C   LIG    1        4.939   6.316  -0.057  0.00  0.00    +0.001 A 
ATOM      5  C   LIG    1        6.262   6.750  -0.066  0.00  0.00    +0.001 A 
ATOM      6  C   LIG    1        7.292   5.860  -0.051  0.00  0.00    +0.008 A 
ATOM      7  C   LIG    1        7.019   4.480  -0.046  0.00  0.00    -0.015 A 
ATOM      8  C   LIG    1        8.058   3.536  -0.052  0.00  0.00    +0.025 A 
ATOM      9  C   LIG    1        7.779   2.180  -0.047  0.00  0.00    +0.081 A 
ATOM     10  C   LIG    1        6.454   1.707  -0.038  0.00  0.00    +0.157 A 
ENDROOT
BRANCH   9  11
ATOM     11  C   LIG    1        8.893   1.212  -0.053  0.00  0.00    +0.252 C 
ATOM     12  N   LIG    1       10.167   1.651  -0.062  0.00  0.00    -0.281 N 
ATOM     13  H   LIG    1       10.352   2.601  -0.132  0.00  0.00    +0.155 HD
ATOM     14  O   LIG    1        8.661   0.019  -0.049  0.00  0.00    -0.270 OA
BRANCH  12  15
ATOM     15  C   LIG    1       11.222   0.738   0.031  0.00  0.00    +0.034 A 
ATOM     16  C   LIG    1       12.381   1.081   0.716  0.00  0.00    +0.023 A 
ATOM     17  C   LIG    1       13.418   0.174   0.811  0.00  0.00    +0.002 A 
ATOM     18  C   LIG    1       13.309  -1.069   0.215  0.00  0.00    +0.000 A 
ATOM     19  C   LIG    1       12.159  -1.411  -0.473  0.00  0.00    +0.002 A 
ATOM     20  C   LIG    1       11.116  -0.511  -0.567  0.00  0.00    +0.023 A 
ENDBRANCH  12  15
ENDBRANCH   9  11
BRANCH   1  22
ATOM     21  N   LIG    1        3.866   0.890  -0.020  0.00  0.00    -0.149 NA
ATOM     22  N   LIG    1        4.105   2.157  -0.024  0.00  0.00    -0.145 NA
BRANCH  21  26
ATOM     23  C   LIG    1       -0.036  -0.478   0.008  0.00  0.00    +0.061 A 
ATOM     24  C   LIG    1        0.222   0.895   0.004  0.00  0.00    +0.018 A 
ATOM     25  C   LIG    1        1.516   1.349  -0.005  0.00  0.00    +0.030 A 
ATOM     26  C   LIG    1        2.577   0.438  -0.011  0.00  0.00    +0.086 A 
ATOM     27  C   LIG    1        2.317  -0.936  -0.007  0.00  0.00    +0.030 A 
ATOM     28  C   LIG    1        1.023  -1.389   0.003  0.00  0.00    +0.018 A 
BRANCH  23  32
ATOM     29  H   LIG    1       -3.370  -0.341   0.032  0.00  0.00    +0.301 HD
ATOM     30  N   LIG    1       -2.391  -0.053   0.025  0.00  0.00    -0.288 N 
ATOM     31  H   LIG    1       -2.149   0.944   0.021  0.00  0.00    +0.301 HD
ATOM     32  C   LIG    1       -1.432  -0.967   0.019  0.00  0.00    +0.266 C 
BRANCH  32  33
ATOM     33  N   LIG    1       -1.688  -2.322   0.023  0.00  0.00    -0.250 N 
ATOM     34  H   LIG    1       -2.603  -2.643   0.030  0.00  0.00    +0.288 HD
ATOM     35  H   LIG    1       -0.952  -2.954   0.018  0.00  0.00    +0.288 HD
ENDBRANCH  32  33
ENDBRANCH  23  32
ENDBRANCH  21  26
ENDBRANCH   1  22
BRANCH  10  36
ATOM     36  O   LIG    1        6.213   0.374  -0.034  0.00  0.00    -0.504 OA
ATOM     37  H   LIG    1        6.138  -0.015  -0.917  0.00  0.00    +0.292 HD
ENDBRANCH  10  36
TORSDOF 7
