REMARK  Name = ZINC05275235
REMARK                            x       y       z     vdW  Elec       q    Type
REMARK                         _______ _______ _______ _____ _____    ______ ____
ROOT
ATOM      1  C   LIG    1       -2.341  -3.842   4.348  0.00  0.00    +0.024 C 
ATOM      2  C   LIG    1       -2.449  -2.726   5.422  0.00  0.00    +0.007 C 
ATOM      3  C   LIG    1       -1.737  -1.479   4.834  0.00  0.00    +0.005 C 
ATOM      4  C   LIG    1       -1.535  -1.839   3.354  0.00  0.00    -0.001 C 
ATOM      5  C   LIG    1       -0.513  -1.043   2.606  0.00  0.00    +0.000 C 
ATOM      6  C   LIG    1        0.476  -0.280   3.485  0.00  0.00    +0.031 C 
ATOM      7  C   LIG    1        1.363   0.512   2.556  0.00  0.00    -0.027 C 
ATOM      8  C   LIG    1        1.587   0.173   1.324  0.00  0.00    -0.065 C 
ATOM      9  C   LIG    1        1.029  -1.065   0.660  0.00  0.00    -0.008 C 
ATOM     10  C   LIG    1        2.196  -1.873   0.081  0.00  0.00    +0.016 C 
ATOM     11  C   LIG    1        0.117  -0.632  -0.482  0.00  0.00    +0.014 C 
ATOM     12  C   LIG    1        0.226   0.876  -0.704  0.00  0.00    +0.032 C 
ATOM     13  C   LIG    1        1.674   1.331  -0.845  0.00  0.00    +0.119 C 
ATOM     14  C   LIG    1        2.445   1.077   0.456  0.00  0.00    +0.062 C 
ATOM     15  C   LIG    1        0.308  -1.944   1.671  0.00  0.00    +0.003 C 
ATOM     16  C   LIG    1       -0.617  -2.963   1.022  0.00  0.00    +0.005 C 
ATOM     17  C   LIG    1       -1.123  -3.975   2.066  0.00  0.00    +0.007 C 
ATOM     18  C   LIG    1       -1.209  -3.344   3.429  0.00  0.00    -0.024 C 
ATOM     19  C   LIG    1        0.097  -3.598   4.203  0.00  0.00    +0.012 C 
ENDROOT
BRANCH   1  21
ATOM     20  C   LIG    1       -4.775  -4.316   4.606  0.00  0.00    +0.038 C 
ATOM     21  C   LIG    1       -3.666  -3.981   3.607  0.00  0.00    +0.115 C 
BRANCH  21  22
ATOM     22  O   LIG    1       -3.563  -5.027   2.640  0.00  0.00    -0.392 OA
ATOM     23  H   LIG    1       -3.355  -5.893   3.018  0.00  0.00    +0.210 HD
ENDBRANCH  21  22
ENDBRANCH   1  21
BRANCH  13  24
ATOM     24  O   LIG    1        2.300   0.636  -1.925  0.00  0.00    -0.391 OA
ATOM     25  H   LIG    1        3.225   0.881  -2.067  0.00  0.00    +0.210 HD
ENDBRANCH  13  24
TORSDOF 3
