REMARK  Name = ZINC04812040
REMARK                            x       y       z     vdW  Elec       q    Type
REMARK                         _______ _______ _______ _____ _____    ______ ____
ROOT
ATOM      1  C   LIG    1       -0.016   1.358   0.009  0.00  0.00    +0.001 A 
ATOM      2  C   LIG    1        1.169   2.089   0.002  0.00  0.00    +0.002 A 
ATOM      3  C   LIG    1        2.379   1.465  -0.013  0.00  0.00    +0.028 A 
ATOM      4  C   LIG    1        2.439   0.060  -0.021  0.00  0.00    +0.072 A 
ATOM      5  C   LIG    1        1.231  -0.682  -0.013  0.00  0.00    +0.000 A 
ATOM      6  C   LIG    1        1.288  -2.091  -0.021  0.00  0.00    +0.012 A 
ATOM      7  C   LIG    1        2.512  -2.688  -0.036  0.00  0.00    +0.028 A 
ATOM      8  C   LIG    1        3.676  -1.898  -0.044  0.00  0.00    +0.065 A 
ATOM      9  N   LIG    1        3.612  -0.577  -0.036  0.00  0.00    -0.247 NA
ATOM     10  C   LIG    1        0.002  -0.004   0.002  0.00  0.00    +0.010 A 
ENDROOT
BRANCH   8  11
ATOM     11  C   LIG    1        4.993  -2.555  -0.060  0.00  0.00    +0.028 C 
ATOM     12  C   LIG    1        6.114  -1.815  -0.068  0.00  0.00    +0.011 C 
BRANCH  12  13
ATOM     13  C   LIG    1        7.432  -2.473  -0.084  0.00  0.00    -0.007 A 
ATOM     14  C   LIG    1        8.609  -1.712  -0.086  0.00  0.00    +0.011 A 
ATOM     15  C   LIG    1        9.821  -2.379  -0.102  0.00  0.00    +0.020 A 
ATOM     16  C   LIG    1        9.832  -3.763  -0.115  0.00  0.00    +0.111 A 
ATOM     17  N   LIG    1        8.709  -4.454  -0.114  0.00  0.00    -0.263 NA
ATOM     18  C   LIG    1        7.530  -3.867  -0.092  0.00  0.00    +0.118 A 
ENDBRANCH  12  13
ENDBRANCH   8  11
TORSDOF 2
