REMARK  Name = ZINC05668900
REMARK                            x       y       z     vdW  Elec       q    Type
REMARK                         _______ _______ _______ _____ _____    ______ ____
ROOT
ATOM      1  C   LIG    1       -0.070   5.347   0.030  0.00  0.00    +0.009 C 
ENDROOT
BRANCH   1   2
ATOM      2  C   LIG    1       -0.039   6.054   1.360  0.00  0.00    -0.050 A 
ATOM      3  C   LIG    1       -0.711   5.519   2.443  0.00  0.00    +0.003 A 
ATOM      4  C   LIG    1       -0.677   6.165   3.665  0.00  0.00    +0.000 A 
ATOM      5  C   LIG    1        0.019   7.351   3.801  0.00  0.00    +0.000 A 
ATOM      6  C   LIG    1        0.686   7.889   2.716  0.00  0.00    +0.000 A 
ATOM      7  C   LIG    1        0.657   7.241   1.496  0.00  0.00    +0.003 A 
ENDBRANCH   1   2
BRANCH   1   8
ATOM      8  C   LIG    1       -1.249   5.837  -0.772  0.00  0.00    -0.050 A 
ATOM      9  C   LIG    1       -1.784   5.045  -1.770  0.00  0.00    +0.003 A 
ATOM     10  C   LIG    1       -2.868   5.492  -2.502  0.00  0.00    +0.000 A 
ATOM     11  C   LIG    1       -3.410   6.737  -2.242  0.00  0.00    +0.000 A 
ATOM     12  C   LIG    1       -2.872   7.532  -1.248  0.00  0.00    +0.000 A 
ATOM     13  C   LIG    1       -1.791   7.082  -0.512  0.00  0.00    +0.003 A 
ENDBRANCH   1   8
BRANCH   1  14
ATOM     14  C   LIG    1       -0.198   3.862   0.253  0.00  0.00    -0.050 A 
ATOM     15  C   LIG    1        0.934   3.069   0.288  0.00  0.00    +0.003 A 
ATOM     16  C   LIG    1        0.817   1.707   0.493  0.00  0.00    +0.000 A 
ATOM     17  C   LIG    1       -0.431   1.138   0.661  0.00  0.00    +0.000 A 
ATOM     18  C   LIG    1       -1.563   1.930   0.620  0.00  0.00    +0.000 A 
ATOM     19  C   LIG    1       -1.446   3.293   0.421  0.00  0.00    +0.003 A 
ENDBRANCH   1  14
BRANCH   1  21
ATOM     20  C   LIG    1        1.176   4.953  -2.009  0.00  0.00    -0.098 C 
ATOM     21  N   LIG    1        1.179   5.634  -0.700  0.00  0.00    +0.389 N 
ATOM     22  H   LIG    1        1.978   5.301  -0.147  0.00  0.00    -0.084 HD
ATOM     23  H   LIG    1        1.262   6.647  -0.845  0.00  0.00    -0.084 HD
ENDBRANCH   1  21
TORSDOF 4
