REMARK  Name = ZINC05664046
REMARK                            x       y       z     vdW  Elec       q    Type
REMARK                         _______ _______ _______ _____ _____    ______ ____
ROOT
ATOM      1  C   LIG    1       -4.967   0.901  -1.194  0.00  0.00    +0.118 C 
ATOM      2  C   LIG    1       -3.452   0.854  -1.419  0.00  0.00    +0.085 C 
ATOM      3  C   LIG    1       -2.777   0.971  -0.046  0.00  0.00    +0.178 C 
ATOM      4  C   LIG    1       -3.866   1.524   0.915  0.00  0.00    +0.168 C 
ATOM      5  C   LIG    1       -3.564   0.755   2.189  0.00  0.00    +0.074 A 
ATOM      6  C   LIG    1       -2.751  -0.314   1.837  0.00  0.00    +0.135 A 
ATOM      7  C   LIG    1       -2.315  -1.185   2.832  0.00  0.00    +0.092 A 
ATOM      8  C   LIG    1       -2.693  -0.987   4.149  0.00  0.00    +0.127 A 
ATOM      9  C   LIG    1       -3.509   0.081   4.490  0.00  0.00    +0.091 A 
ATOM     10  C   LIG    1       -3.945   0.954   3.503  0.00  0.00    +0.133 A 
ATOM     11  O   LIG    1       -2.513  -0.332   0.496  0.00  0.00    -0.476 OA
ATOM     12  C   LIG    1       -5.197   1.029   0.320  0.00  0.00    +0.168 C 
ENDROOT
BRANCH   2  13
ATOM     13  C   LIG    1       -3.037   2.009  -2.293  0.00  0.00    -0.039 A 
ATOM     14  C   LIG    1       -3.266   3.308  -1.877  0.00  0.00    +0.004 A 
ATOM     15  C   LIG    1       -2.881   4.367  -2.677  0.00  0.00    +0.000 A 
ATOM     16  C   LIG    1       -2.276   4.129  -3.897  0.00  0.00    +0.000 A 
ATOM     17  C   LIG    1       -2.052   2.830  -4.315  0.00  0.00    +0.000 A 
ATOM     18  C   LIG    1       -2.433   1.771  -3.513  0.00  0.00    +0.004 A 
ENDBRANCH   2  13
BRANCH   3  19
ATOM     19  C   LIG    1       -1.545   1.838  -0.085  0.00  0.00    -0.000 A 
ATOM     20  C   LIG    1       -0.648   1.715  -1.130  0.00  0.00    +0.011 A 
ATOM     21  C   LIG    1        0.479   2.513  -1.171  0.00  0.00    +0.046 A 
ATOM     22  C   LIG    1        0.713   3.434  -0.160  0.00  0.00    +0.120 A 
ATOM     23  C   LIG    1       -0.187   3.552   0.890  0.00  0.00    +0.046 A 
ATOM     24  C   LIG    1       -1.312   2.751   0.926  0.00  0.00    +0.011 A 
BRANCH  22  25
ATOM     25  O   LIG    1        1.820   4.221  -0.199  0.00  0.00    -0.495 OA
ATOM     26  C   LIG    1        1.996   5.147   0.876  0.00  0.00    +0.277 C 
ENDBRANCH  22  25
ENDBRANCH   3  19
BRANCH   1  29
ATOM     27  C   LIG    1       -7.509  -1.592  -2.594  0.00  0.00    +0.131 C 
ATOM     28  N   LIG    1       -6.849  -0.342  -2.208  0.00  0.00    -0.307 N 
ATOM     29  C   LIG    1       -5.600  -0.368  -1.703  0.00  0.00    +0.221 C 
ATOM     30  O   LIG    1       -4.986  -1.413  -1.658  0.00  0.00    -0.275 OA
ATOM     31  C   LIG    1       -7.547   0.935  -2.372  0.00  0.00    +0.131 C 
ENDBRANCH   1  29
BRANCH   4  32
ATOM     32  O   LIG    1       -3.814   2.942   1.083  0.00  0.00    -0.377 OA
ATOM     33  H   LIG    1       -4.489   3.292   1.680  0.00  0.00    +0.211 HD
ENDBRANCH   4  32
BRANCH   8  34
ATOM     34  O   LIG    1       -2.263  -1.843   5.112  0.00  0.00    -0.495 OA
ATOM     35  C   LIG    1       -2.689  -1.582   6.451  0.00  0.00    +0.277 C 
ENDBRANCH   8  34
BRANCH  10  36
ATOM     36  O   LIG    1       -4.745   2.004   3.828  0.00  0.00    -0.494 OA
ATOM     37  C   LIG    1       -5.098   2.148   5.205  0.00  0.00    +0.277 C 
ENDBRANCH  10  36
BRANCH  12  38
ATOM     38  O   LIG    1       -5.542  -0.242   0.875  0.00  0.00    -0.388 OA
ATOM     39  H   LIG    1       -6.372  -0.606   0.538  0.00  0.00    +0.210 HD
ENDBRANCH  12  38
TORSDOF 8
