REMARK  Name = ZINC04842503
REMARK                            x       y       z     vdW  Elec       q    Type
REMARK                         _______ _______ _______ _____ _____    ______ ____
ROOT
ATOM      1  C   LIG    1       -0.102  -5.511   2.339  0.00  0.00    +0.057 A 
ATOM      2  C   LIG    1       -0.079  -6.718   1.640  0.00  0.00    +0.038 A 
ATOM      3  C   LIG    1        0.120  -7.906   2.325  0.00  0.00    +0.034 A 
ATOM      4  C   LIG    1        0.297  -7.893   3.704  0.00  0.00    +0.025 A 
ATOM      5  C   LIG    1        0.275  -6.698   4.397  0.00  0.00    +0.022 A 
ATOM      6  C   LIG    1        0.082  -5.507   3.723  0.00  0.00    +0.053 A 
ATOM      7 CL   LIG    1        0.062  -4.008   4.598  0.00  0.00    -0.083 Cl
ENDROOT
BRANCH   1  15
ATOM      8  C   LIG    1       -1.040   1.444   0.054  0.00  0.00    +0.044 C 
ATOM      9  C   LIG    1       -0.905  -0.057   0.042  0.00  0.00    -0.048 A 
ATOM     10  C   LIG    1       -1.001  -0.747  -1.157  0.00  0.00    +0.007 A 
ATOM     11  C   LIG    1       -0.880  -2.121  -1.186  0.00  0.00    +0.049 A 
ATOM     12  C   LIG    1       -0.660  -2.820  -0.009  0.00  0.00    +0.156 A 
ATOM     13  C   LIG    1       -0.561  -2.125   1.208  0.00  0.00    +0.110 A 
ATOM     14  N   LIG    1       -0.348  -3.056   2.173  0.00  0.00    -0.209 NA
ATOM     15  C   LIG    1       -0.315  -4.239   1.615  0.00  0.00    +0.230 A 
ATOM     16  O   LIG    1       -0.501  -4.129   0.287  0.00  0.00    -0.435 OA
ATOM     17  C   LIG    1       -0.681  -0.733   1.220  0.00  0.00    +0.035 A 
ENDBRANCH   1  15
BRANCH   3  18
ATOM     18  N   LIG    1        0.144  -9.120   1.628  0.00  0.00    -0.286 N 
ATOM     19  H   LIG    1       -0.194  -9.927   2.047  0.00  0.00    +0.155 HD
ATOM     20  C   LIG    1        0.637  -9.168   0.374  0.00  0.00    +0.214 C 
ATOM     21  C   LIG    1        0.554 -10.446  -0.420  0.00  0.00    +0.109 C 
ATOM     22  O   LIG    1        1.147  -8.182  -0.115  0.00  0.00    -0.276 OA
ENDBRANCH   3  18
TORSDOF 2
