REMARK  Name = ZINC05770123
REMARK                            x       y       z     vdW  Elec       q    Type
REMARK                         _______ _______ _______ _____ _____    ______ ____
ROOT
ATOM      1  C   LIG    1        5.952   2.251  -0.041  0.00  0.00    +0.028 C 
ATOM      2  C   LIG    1        5.901   3.595  -0.034  0.00  0.00    +0.014 C 
ENDROOT
BRANCH   1   8
ATOM      3  C   LIG    1        0.002  -0.004   0.002  0.00  0.00    +0.004 A 
ATOM      4  C   LIG    1        1.180  -0.689  -0.013  0.00  0.00    +0.010 A 
ATOM      5  C   LIG    1        2.396   0.010  -0.021  0.00  0.00    +0.004 A 
ATOM      6  C   LIG    1        3.630  -0.673  -0.036  0.00  0.00    +0.012 A 
ATOM      7  C   LIG    1        4.776   0.062  -0.043  0.00  0.00    +0.028 A 
ATOM      8  C   LIG    1        4.706   1.468  -0.034  0.00  0.00    +0.065 A 
ATOM      9  N   LIG    1        3.544   2.100  -0.020  0.00  0.00    -0.244 NA
ATOM     10  C   LIG    1        2.391   1.427  -0.013  0.00  0.00    +0.113 A 
ATOM     11  C   LIG    1        1.155   2.109   0.002  0.00  0.00    +0.143 A 
ATOM     12  C   LIG    1       -0.017   1.388   0.010  0.00  0.00    +0.047 A 
BRANCH  11  13
ATOM     13  O   LIG    1        1.123   3.467   0.009  0.00  0.00    -0.505 OA
ATOM     14  H   LIG    1        1.122   3.856   0.895  0.00  0.00    +0.292 HD
ENDBRANCH  11  13
ENDBRANCH   1   8
BRANCH   2  15
ATOM     15  C   LIG    1        7.147   4.379  -0.041  0.00  0.00    +0.020 A 
ATOM     16  C   LIG    1        8.385   3.730  -0.050  0.00  0.00    +0.044 A 
ATOM     17  C   LIG    1        9.549   4.470  -0.062  0.00  0.00    +0.123 A 
ATOM     18  C   LIG    1        9.497   5.854  -0.055  0.00  0.00    +0.051 A 
ATOM     19  C   LIG    1        8.279   6.508  -0.040  0.00  0.00    +0.062 A 
ATOM     20 BR   LIG    1        8.222   8.398  -0.029  0.00  0.00    -0.046 Br
ATOM     21  C   LIG    1        7.099   5.780  -0.033  0.00  0.00    +0.138 A 
BRANCH  17  22
ATOM     22  N   LIG    1       10.859   3.782  -0.078  0.00  0.00    +0.006 N 
ATOM     23  O   LIG    1       11.889   4.433  -0.084  0.00  0.00    -0.130 OA
BRANCH  22  24
ATOM     24  O   LIG    1       10.908   2.565  -0.085  0.00  0.00    -0.396 OA
ATOM     25  H   LIG    1       10.116   2.064  -0.080  0.00  0.00    +0.329 HD
ENDBRANCH  22  24
ENDBRANCH  17  22
BRANCH  21  26
ATOM     26  O   LIG    1        5.902   6.421  -0.018  0.00  0.00    -0.505 OA
ATOM     27  H   LIG    1        5.106   5.927  -0.013  0.00  0.00    +0.292 HD
ENDBRANCH  21  26
ENDBRANCH   2  15
TORSDOF 6
