REMARK  Name = ZINC05659810
REMARK                            x       y       z     vdW  Elec       q    Type
REMARK                         _______ _______ _______ _____ _____    ______ ____
ROOT
ATOM      1  C   LIG    1       -2.936   4.357   0.184  0.00  0.00    +0.136 A 
ATOM      2  C   LIG    1       -1.698   3.789   0.579  0.00  0.00    +0.041 A 
ATOM      3  C   LIG    1       -1.600   2.471   1.036  0.00  0.00    +0.013 A 
ATOM      4  C   LIG    1       -0.384   1.977   1.408  0.00  0.00    +0.001 A 
ATOM      5  C   LIG    1        0.761   2.764   1.328  0.00  0.00    +0.002 A 
ATOM      6  C   LIG    1        0.700   4.050   0.881  0.00  0.00    +0.028 A 
ATOM      7  C   LIG    1       -0.534   4.591   0.496  0.00  0.00    +0.078 A 
ATOM      8  N   LIG    1       -0.648   5.851   0.049  0.00  0.00    -0.214 NA
ATOM      9  C   LIG    1       -1.825   6.329  -0.306  0.00  0.00    +0.222 A 
ATOM     10  N   LIG    1       -2.943   5.611  -0.244  0.00  0.00    -0.199 NA
ENDROOT
BRANCH   1  11
ATOM     11  N   LIG    1       -4.102   3.623   0.243  0.00  0.00    -0.299 N 
ATOM     12  H   LIG    1       -4.071   2.680   0.470  0.00  0.00    +0.154 HD
BRANCH  11  19
ATOM     13  C   LIG    1       -6.189   2.032  -0.856  0.00  0.00    +0.045 C 
ATOM     14  C   LIG    1       -6.375   3.498  -0.562  0.00  0.00    -0.029 A 
ATOM     15  C   LIG    1       -7.586   4.108  -0.825  0.00  0.00    +0.005 A 
ATOM     16  C   LIG    1       -7.757   5.453  -0.555  0.00  0.00    +0.000 A 
ATOM     17  C   LIG    1       -6.718   6.192  -0.020  0.00  0.00    +0.002 A 
ATOM     18  C   LIG    1       -5.506   5.587   0.251  0.00  0.00    +0.023 A 
ATOM     19  C   LIG    1       -5.329   4.237  -0.025  0.00  0.00    +0.035 A 
ENDBRANCH  11  19
ENDBRANCH   1  11
BRANCH   9  20
ATOM     20  N   LIG    1       -1.900   7.634  -0.762  0.00  0.00    -0.283 N 
ATOM     21  H   LIG    1       -2.738   7.980  -1.109  0.00  0.00    +0.155 HD
BRANCH  20  22
ATOM     22  C   LIG    1       -0.769   8.455  -0.722  0.00  0.00    +0.036 A 
ATOM     23  C   LIG    1        0.210   8.244   0.241  0.00  0.00    +0.023 A 
ATOM     24  C   LIG    1        1.329   9.053   0.273  0.00  0.00    +0.002 A 
ATOM     25  C   LIG    1        1.471  10.078  -0.644  0.00  0.00    +0.000 A 
ATOM     26  C   LIG    1        0.495  10.294  -1.600  0.00  0.00    +0.005 A 
ATOM     27  C   LIG    1       -0.624   9.485  -1.642  0.00  0.00    -0.029 A 
ATOM     28  C   LIG    1       -1.687   9.722  -2.684  0.00  0.00    +0.045 C 
ENDBRANCH  20  22
ENDBRANCH   9  20
TORSDOF 4
