REMARK  Name = ZINC05336808
REMARK                            x       y       z     vdW  Elec       q    Type
REMARK                         _______ _______ _______ _____ _____    ______ ____
ROOT
ATOM      1  C   LIG    1       -1.484   3.893  -1.801  0.00  0.00    +0.065 C 
ATOM      2  C   LIG    1       -0.422   3.018  -1.185  0.00  0.00    +0.040 A 
ATOM      3  C   LIG    1        0.908   3.393  -1.267  0.00  0.00    +0.032 A 
ATOM      4  C   LIG    1        1.894   2.596  -0.704  0.00  0.00    -0.005 A 
ATOM      5  C   LIG    1        1.509   1.390  -0.044  0.00  0.00    +0.037 A 
ATOM      6  C   LIG    1        2.352   0.407   0.613  0.00  0.00    +0.054 A 
ATOM      7  C   LIG    1        1.749  -0.692   1.188  0.00  0.00    +0.097 A 
ATOM      8  S   LIG    1        0.017  -0.430   0.859  0.00  0.00    -0.062 S 
ATOM      9  C   LIG    1        0.125   1.108  -0.022  0.00  0.00    +0.112 A 
ATOM     10  N   LIG    1       -0.769   1.904  -0.570  0.00  0.00    -0.245 NA
ENDROOT
BRANCH   4  11
ATOM     11  C   LIG    1        3.320   2.989  -0.786  0.00  0.00    -0.017 A 
ATOM     12  C   LIG    1        3.737   4.220  -0.280  0.00  0.00    +0.008 A 
ATOM     13  C   LIG    1        5.068   4.578  -0.354  0.00  0.00    +0.001 A 
ATOM     14  C   LIG    1        5.985   3.724  -0.940  0.00  0.00    +0.000 A 
ATOM     15  C   LIG    1        5.577   2.504  -1.448  0.00  0.00    +0.001 A 
ATOM     16  C   LIG    1        4.250   2.132  -1.375  0.00  0.00    +0.008 A 
ENDBRANCH   4  11
BRANCH   7  17
ATOM     17  C   LIG    1        2.360  -1.769   1.876  0.00  0.00    +0.250 C 
ATOM     18  N   LIG    1        1.602  -2.765   2.376  0.00  0.00    -0.325 N 
ATOM     19  H   LIG    1        2.020  -3.503   2.848  0.00  0.00    +0.145 HD
ATOM     20  H   LIG    1        0.638  -2.744   2.265  0.00  0.00    +0.145 HD
ATOM     21  O   LIG    1        3.569  -1.795   2.016  0.00  0.00    -0.270 OA
ENDBRANCH   7  17
BRANCH   6  22
ATOM     22  N   LIG    1        3.730   0.569   0.661  0.00  0.00    -0.356 N 
ATOM     23  H   LIG    1        4.114   1.459   0.645  0.00  0.00    +0.142 HD
ATOM     24  H   LIG    1        4.308  -0.208   0.710  0.00  0.00    +0.142 HD
ENDBRANCH   6  22
TORSDOF 3
