REMARK  Name = ZINC05646855
REMARK                            x       y       z     vdW  Elec       q    Type
REMARK                         _______ _______ _______ _____ _____    ______ ____
ROOT
ATOM      1  C   LIG    1        3.979  -1.347   0.276  0.00  0.00    +0.024 A 
ATOM      2  C   LIG    1        4.255  -2.321  -0.703  0.00  0.00    +0.072 A 
ATOM      3  C   LIG    1        5.371  -3.163  -0.514  0.00  0.00    +0.180 A 
ATOM      4  N   LIG    1        5.410  -4.005  -1.592  0.00  0.00    -0.257 N 
ATOM      5  N   LIG    1        4.346  -3.709  -2.450  0.00  0.00    -0.156 NA
ATOM      6  H   LIG    1        6.073  -4.698  -1.738  0.00  0.00    +0.191 HD
ATOM      7  N   LIG    1        6.123  -3.015   0.570  0.00  0.00    -0.129 NA
ATOM      8  N   LIG    1        5.872  -2.127   1.462  0.00  0.00    -0.147 NA
ATOM      9  C   LIG    1        3.639  -2.721  -1.962  0.00  0.00    +0.158 A 
ATOM     10  C   LIG    1        4.849  -1.282   1.378  0.00  0.00    +0.102 A 
ENDROOT
BRANCH   1  14
ATOM     11  C   LIG    1        0.671   1.293  -0.096  0.00  0.00    +0.000 A 
ATOM     12  C   LIG    1        1.959   1.781  -0.222  0.00  0.00    +0.001 A 
ATOM     13  C   LIG    1        3.038   0.929  -0.102  0.00  0.00    +0.008 A 
ATOM     14  C   LIG    1        2.827  -0.427   0.147  0.00  0.00    -0.015 A 
ATOM     15  C   LIG    1        1.525  -0.914   0.274  0.00  0.00    +0.008 A 
ATOM     16  C   LIG    1        0.455  -0.051   0.152  0.00  0.00    +0.001 A 
ENDBRANCH   1  14
BRANCH  10  17
ATOM     17  C   LIG    1        4.624  -0.277   2.444  0.00  0.00    +0.003 A 
ATOM     18  C   LIG    1        3.339  -0.059   2.941  0.00  0.00    +0.010 A 
ATOM     19  C   LIG    1        3.136   0.877   3.934  0.00  0.00    +0.001 A 
ATOM     20  C   LIG    1        4.204   1.599   4.436  0.00  0.00    +0.000 A 
ATOM     21  C   LIG    1        5.480   1.387   3.947  0.00  0.00    +0.001 A 
ATOM     22  C   LIG    1        5.697   0.450   2.958  0.00  0.00    +0.010 A 
ENDBRANCH  10  17
BRANCH   9  23
ATOM     23  N   LIG    1        2.501  -2.154  -2.544  0.00  0.00    -0.254 N 
ATOM     24  H   LIG    1        2.044  -1.421  -2.101  0.00  0.00    +0.158 HD
BRANCH  23  25
ATOM     25  C   LIG    1        2.030  -2.633  -3.740  0.00  0.00    +0.263 C 
ATOM     26  N   LIG    1        0.963  -2.101  -4.284  0.00  0.00    -0.313 N 
ATOM     27  H   LIG    1        0.570  -1.302  -3.901  0.00  0.00    +0.170 HD
BRANCH  26  28
ATOM     28  C   LIG    1        0.403  -2.675  -5.396  0.00  0.00    +0.043 A 
ATOM     29  C   LIG    1        0.259  -4.061  -5.473  0.00  0.00    +0.026 A 
ATOM     30  C   LIG    1       -0.306  -4.632  -6.594  0.00  0.00    +0.002 A 
ATOM     31  C   LIG    1       -0.730  -3.833  -7.641  0.00  0.00    +0.000 A 
ATOM     32  C   LIG    1       -0.590  -2.458  -7.572  0.00  0.00    +0.002 A 
ATOM     33  C   LIG    1       -0.032  -1.874  -6.454  0.00  0.00    +0.026 A 
ENDBRANCH  26  28
BRANCH  25  34
ATOM     34  O   LIG    1        2.665  -3.653  -4.356  0.00  0.00    -0.483 OA
ATOM     35  H   LIG    1        2.308  -3.870  -5.228  0.00  0.00    +0.295 HD
ENDBRANCH  25  34
ENDBRANCH  23  25
ENDBRANCH   9  23
TORSDOF 6
