REMARK  Name = ZINC05133329
REMARK                            x       y       z     vdW  Elec       q    Type
REMARK                         _______ _______ _______ _____ _____    ______ ____
ROOT
ATOM      1  C   LIG    1       -0.017   1.378   0.010  0.00  0.00    +0.000 A 
ATOM      2  C   LIG    1        1.170   2.088   0.002  0.00  0.00    +0.004 A 
ATOM      3  C   LIG    1        2.377   1.417  -0.013  0.00  0.00    +0.045 A 
ATOM      4  C   LIG    1        2.399   0.030  -0.021  0.00  0.00    +0.117 A 
ATOM      5  C   LIG    1        1.207  -0.680  -0.013  0.00  0.00    +0.045 A 
ATOM      6  C   LIG    1        0.002  -0.004   0.002  0.00  0.00    +0.004 A 
ENDROOT
BRANCH   4   7
ATOM      7  O   LIG    1        3.586  -0.632  -0.037  0.00  0.00    -0.507 OA
ATOM      8  H   LIG    1        3.938  -0.828   0.842  0.00  0.00    +0.292 HD
ENDBRANCH   4   7
TORSDOF 1
