REMARK  Name = ZINC05338351
REMARK                            x       y       z     vdW  Elec       q    Type
REMARK                         _______ _______ _______ _____ _____    ______ ____
ROOT
ATOM      1  N   LIG    1        3.621  -0.650  -0.037  0.00  0.00    -0.185 N 
ENDROOT
BRANCH   1   2
ATOM      2  C   LIG    1        4.745   0.128  -0.223  0.00  0.00    +0.353 C 
ATOM      3  N   LIG    1        4.655   1.420  -0.218  0.00  0.00    +0.096 NA
ATOM      4  S   LIG    1        6.209   1.987  -0.470  0.00  0.00    +0.180 S 
ATOM      5  C   LIG    1        7.077   0.447  -0.598  0.00  0.00    +0.150 A 
ATOM      6  C   LIG    1        8.377   0.088  -0.803  0.00  0.00    +0.032 A 
ATOM      7  C   LIG    1        8.721  -1.256  -0.832  0.00  0.00    +0.002 A 
ATOM      8  C   LIG    1        7.738  -2.215  -0.667  0.00  0.00    +0.001 A 
ATOM      9  C   LIG    1        6.424  -1.855  -0.465  0.00  0.00    +0.018 A 
ATOM     10  O   LIG    1        6.636   2.627   0.724  0.00  0.00    -0.125 OA
ATOM     11  O   LIG    1        6.241   2.609  -1.748  0.00  0.00    -0.125 OA
ATOM     12  C   LIG    1        6.059  -0.501  -0.422  0.00  0.00    +0.097 A 
ENDBRANCH   1   2
BRANCH   1  16
ATOM     13  C   LIG    1       -0.140   1.133   0.135  0.00  0.00    +0.000 A 
ATOM     14  C   LIG    1        0.970   1.893  -0.185  0.00  0.00    +0.004 A 
ATOM     15  C   LIG    1        2.218   1.305  -0.243  0.00  0.00    +0.049 A 
ATOM     16  C   LIG    1        2.358  -0.051   0.021  0.00  0.00    +0.121 A 
ATOM     17  C   LIG    1        1.242  -0.812   0.343  0.00  0.00    +0.049 A 
ATOM     18  C   LIG    1       -0.004  -0.218   0.399  0.00  0.00    +0.004 A 
ENDBRANCH   1  16
BRANCH   1  19
ATOM     19  C   LIG    1        3.749  -2.103   0.099  0.00  0.00    +0.234 C 
BRANCH  19  20
ATOM     20  C   LIG    1        3.869  -2.736  -1.289  0.00  0.00    +0.072 C 
BRANCH  20  21
ATOM     21  C   LIG    1        4.004  -4.254  -1.147  0.00  0.00    +0.159 C 
BRANCH  21  22
ATOM     22  O   LIG    1        4.115  -4.845  -2.443  0.00  0.00    -0.395 OA
ATOM     23  H   LIG    1        4.204  -5.808  -2.430  0.00  0.00    +0.209 HD
ENDBRANCH  21  22
ENDBRANCH  20  21
ENDBRANCH  19  20
ENDBRANCH   1  19
TORSDOF 6
