REMARK  Name = ZINC05681447
REMARK                            x       y       z     vdW  Elec       q    Type
REMARK                         _______ _______ _______ _____ _____    ______ ____
ROOT
ATOM      1  C   LIG    1       -2.503   1.007   0.019  0.00  0.00    +0.244 C 
ATOM      2  N   LIG    1       -3.677   1.669   0.029  0.00  0.00    -0.310 N 
ATOM      3  H   LIG    1       -3.686   2.639   0.034  0.00  0.00    +0.149 HD
ATOM      4  O   LIG    1       -2.491  -0.208   0.013  0.00  0.00    -0.270 OA
ENDROOT
BRANCH   2   5
ATOM      5  C   LIG    1       -4.938   0.925   0.030  0.00  0.00    +0.060 C 
ATOM      6  C   LIG    1       -5.309   0.547   1.468  0.00  0.00    -0.056 C 
ATOM      7  N   LIG    1       -6.613   1.140   1.837  0.00  0.00    +0.381 N 
ATOM      8  H   LIG    1       -6.839   0.873   2.802  0.00  0.00    -0.082 HD
ATOM      9  C   LIG    1       -7.672   0.632   0.938  0.00  0.00    -0.078 C 
ATOM     10  C   LIG    1       -7.367   1.011  -0.514  0.00  0.00    -0.014 C 
ATOM     11  C   LIG    1       -6.542   2.614   1.750  0.00  0.00    -0.078 C 
ATOM     12  C   LIG    1       -6.205   3.050   0.321  0.00  0.00    -0.014 C 
ATOM     13  C   LIG    1       -6.053   1.800  -0.555  0.00  0.00    +0.004 C 
ENDBRANCH   2   5
BRANCH   1  17
ATOM     14  C   LIG    1        1.155   3.167   0.008  0.00  0.00    +0.000 A 
ATOM     15  C   LIG    1        1.172   1.783   0.000  0.00  0.00    +0.001 A 
ATOM     16  C   LIG    1       -0.013   1.076   0.008  0.00  0.00    +0.013 A 
ATOM     17  C   LIG    1       -1.230   1.759   0.017  0.00  0.00    +0.037 A 
ATOM     18  C   LIG    1       -1.240   3.154   0.031  0.00  0.00    +0.013 A 
ATOM     19  C   LIG    1       -0.048   3.850   0.023  0.00  0.00    +0.001 A 
ENDBRANCH   1  17
TORSDOF 2
