REMARK  Name = ZINC05065632
REMARK                            x       y       z     vdW  Elec       q    Type
REMARK                         _______ _______ _______ _____ _____    ______ ____
ROOT
ATOM      1  C   LIG    1       -1.262  -0.762   0.011  0.00  0.00    +0.142 C 
ATOM      2  N   LIG    1       -1.240  -2.060   0.003  0.00  0.00    -0.188 NA
ENDROOT
BRANCH   1  10
ATOM      3  C   LIG    1       -0.017   1.392   0.010  0.00  0.00    +0.028 A 
ATOM      4  C   LIG    1        1.170   2.097   0.002  0.00  0.00    +0.020 A 
ATOM      5 BR   LIG    1        1.143   3.987   0.013  0.00  0.00    -0.050 Br
ATOM      6  C   LIG    1        2.381   1.424  -0.013  0.00  0.00    +0.034 A 
ATOM      7  C   LIG    1        2.412   0.041  -0.022  0.00  0.00    +0.061 A 
ATOM      8 BR   LIG    1        4.072  -0.865  -0.044  0.00  0.00    -0.046 Br
ATOM      9  C   LIG    1        1.229  -0.681  -0.014  0.00  0.00    +0.139 A 
ATOM     10  C   LIG    1        0.002  -0.004   0.002  0.00  0.00    +0.038 A 
BRANCH   9  11
ATOM     11  O   LIG    1        1.259  -2.039  -0.022  0.00  0.00    -0.505 OA
ATOM     12  H   LIG    1        1.277  -2.437   0.859  0.00  0.00    +0.292 HD
ENDBRANCH   9  11
ENDBRANCH   1  10
BRANCH   2  13
ATOM     13  N   LIG    1       -2.442  -2.781   0.011  0.00  0.00    -0.219 N 
ATOM     14  H   LIG    1       -3.289  -2.310   0.022  0.00  0.00    +0.176 HD
BRANCH  13  15
ATOM     15  C   LIG    1       -2.419  -4.145   0.004  0.00  0.00    +0.146 C 
ATOM     16  N   LIG    1       -3.448  -4.982   0.004  0.00  0.00    -0.267 N 
ATOM     17  H   LIG    1       -4.340  -4.601   0.011  0.00  0.00    +0.157 HD
ATOM     18  C   LIG    1       -3.343  -6.283  -0.004  0.00  0.00    +0.229 C 
ATOM     19  C   LIG    1       -1.917  -6.821  -0.014  0.00  0.00    +0.173 C 
ATOM     20  O   LIG    1       -4.314  -7.014  -0.003  0.00  0.00    -0.275 OA
ATOM     21  S   LIG    1       -0.995  -5.226  -0.017  0.00  0.00    -0.084 S 
ENDBRANCH  13  15
ENDBRANCH   2  13
TORSDOF 4
