REMARK  Name = ZINC05138525
REMARK                            x       y       z     vdW  Elec       q    Type
REMARK                         _______ _______ _______ _____ _____    ______ ____
ROOT
ATOM      1  CA  LIG    1       -0.013   1.086   0.008  0.00  0.00    +0.049 C 
ENDROOT
BRANCH   1   2
ATOM      2  N   LIG    1       -0.721   1.581  -1.188  0.00  0.00    +0.388 N 
ATOM      3  H1  LIG    1       -0.063   1.630  -1.974  0.00  0.00    -0.085 HD
ATOM      4  H2  LIG    1       -1.095   2.518  -0.995  0.00  0.00    -0.085 HD
BRANCH   2   6
ATOM      5  C   LIG    1       -2.546   1.214  -2.778  0.00  0.00    -0.017 C 
ATOM      6  C   ACE A  0       -1.831   0.676  -1.537  0.00  0.00    -0.085 C 
ENDBRANCH   2   6
ENDBRANCH   1   2
BRANCH   1   7
ATOM      7  C   LIG    1       -0.718   1.572   1.248  0.00  0.00    +0.291 C 
ATOM      8  O   LIG    1       -1.711   2.254   1.150  0.00  0.00    -0.253 OA
BRANCH   7   9
ATOM      9  OXT LIG    1       -0.243   1.247   2.461  0.00  0.00    -0.482 OA
ATOM     10  HXT LIG    1        0.526   0.719   2.537  0.00  0.00    +0.295 HD
ENDBRANCH   7   9
ENDBRANCH   1   7
BRANCH   1  11
ATOM     11  CB  LIG    1        1.423   1.615  -0.003  0.00  0.00    +0.061 C 
BRANCH  11  12
ATOM     12  SG  LIG    1        2.272   1.030  -1.495  0.00  0.00    -0.179 S 
ATOM     13  HG  LIG    1        3.507   1.553  -1.393  0.00  0.00    +0.102 HD
ENDBRANCH  11  12
ENDBRANCH   1  11
TORSDOF 6
