REMARK  Name = ZINC05234408
REMARK                            x       y       z     vdW  Elec       q    Type
REMARK                         _______ _______ _______ _____ _____    ______ ____
ROOT
ATOM      1  C   LIG    1       -2.835   4.388   2.432  0.00  0.00    +0.121 A 
ATOM      2  C   LIG    1       -1.469   4.153   2.470  0.00  0.00    +0.046 A 
ATOM      3  C   LIG    1       -0.811   3.723   1.334  0.00  0.00    +0.007 A 
ATOM      4  C   LIG    1       -1.513   3.526   0.160  0.00  0.00    -0.049 A 
ATOM      5  C   LIG    1       -2.874   3.765   0.118  0.00  0.00    +0.007 A 
ATOM      6  C   LIG    1       -3.538   4.190   1.252  0.00  0.00    +0.046 A 
ENDROOT
BRANCH   1   7
ATOM      7  O   LIG    1       -3.485   4.811   3.548  0.00  0.00    -0.492 OA
BRANCH   7   9
ATOM      8  C   LIG    1       -5.444   5.502   4.783  0.00  0.00    +0.048 C 
ATOM      9  C   LIG    1       -4.892   5.033   3.435  0.00  0.00    +0.225 C 
ENDBRANCH   7   9
ENDBRANCH   1   7
BRANCH   4  10
ATOM     10  C   LIG    1       -0.793   3.056  -1.078  0.00  0.00    +0.018 C 
BRANCH  10  11
ATOM     11  C   LIG    1       -0.795   1.527  -1.120  0.00  0.00    -0.074 C 
ATOM     12  C   LIG    1       -0.175   1.052  -2.435  0.00  0.00    -0.014 C 
BRANCH  11  13
ATOM     13  N   LIG    1       -0.025   1.014   0.027  0.00  0.00    +0.380 N 
ATOM     14  H   LIG    1       -0.476   1.316   0.899  0.00  0.00    -0.090 HD
ATOM     15  H   LIG    1        0.925   1.379   0.001  0.00  0.00    -0.090 HD
ATOM     16  H   LIG    1        0.002  -0.004   0.002  0.00  0.00    -0.090 HD
ENDBRANCH  11  13
ENDBRANCH  10  11
ENDBRANCH   4  10
TORSDOF 5
