REMARK  Name = ZINC05782223
REMARK                            x       y       z     vdW  Elec       q    Type
REMARK                         _______ _______ _______ _____ _____    ______ ____
ROOT
ATOM      1  C   LIG    1       -0.925  -2.568   3.336  0.00  0.00    +0.393 C 
ATOM      2  N   LIG    1       -0.858  -3.155   4.497  0.00  0.00    -0.129 NA
ATOM      3  H   LIG    1       -0.085  -3.695   4.724  0.00  0.00    +0.306 HD
ENDROOT
BRANCH   1   4
ATOM      4  N   LIG    1        0.046  -2.803   2.389  0.00  0.00    -0.243 N 
ATOM      5  H   LIG    1        0.732  -3.469   2.553  0.00  0.00    +0.265 HD
BRANCH   4  11
ATOM      6  C   LIG    1       -0.561   1.462   0.022  0.00  0.00    +0.044 C 
ATOM      7  C   LIG    1       -0.247  -0.012   0.015  0.00  0.00    -0.047 A 
ATOM      8  C   LIG    1        0.039  -0.651  -1.177  0.00  0.00    +0.003 A 
ATOM      9  C   LIG    1        0.328  -2.003  -1.188  0.00  0.00    +0.004 A 
ATOM     10  C   LIG    1        0.331  -2.720  -0.007  0.00  0.00    +0.042 A 
ATOM     11  C   LIG    1        0.044  -2.080   1.192  0.00  0.00    +0.100 A 
ATOM     12  C   LIG    1       -0.240  -0.721   1.200  0.00  0.00    +0.045 A 
ENDBRANCH   4  11
ENDBRANCH   1   4
BRANCH   1  13
ATOM     13  N   LIG    1       -1.970  -1.712   3.055  0.00  0.00    -0.186 N 
ATOM     14  H   LIG    1       -2.020  -1.276   2.190  0.00  0.00    +0.271 HD
BRANCH  13  15
ATOM     15  C   LIG    1       -2.943  -1.477   4.004  0.00  0.00    +0.385 C 
ATOM     16  N   LIG    1       -2.876  -2.064   5.165  0.00  0.00    -0.129 NA
ATOM     17  H   LIG    1       -3.560  -1.898   5.832  0.00  0.00    +0.306 HD
BRANCH  15  18
ATOM     18  N   LIG    1       -3.984  -0.624   3.724  0.00  0.00    -0.289 N 
ATOM     19  H   LIG    1       -4.668  -0.459   4.391  0.00  0.00    +0.255 HD
ATOM     20  H   LIG    1       -4.034  -0.187   2.859  0.00  0.00    +0.255 HD
ENDBRANCH  15  18
ENDBRANCH  13  15
ENDBRANCH   1  13
TORSDOF 5
