REMARK  Name = ZINC05548804
REMARK                            x       y       z     vdW  Elec       q    Type
REMARK                         _______ _______ _______ _____ _____    ______ ____
ROOT
ATOM      1  N   LIG    1        1.225   2.045  -0.453  0.00  0.00    -0.279 N 
ATOM      2  H   LIG    1        0.779   2.101  -1.313  0.00  0.00    +0.155 HD
ATOM      3  C   LIG    1        0.688   2.649   0.625  0.00  0.00    +0.252 C 
ATOM      4  O   LIG    1        1.209   2.522   1.716  0.00  0.00    -0.270 OA
ENDROOT
BRANCH   1  11
ATOM      5  C   LIG    1        3.472   3.390   0.659  0.00  0.00    +0.046 C 
ATOM      6  C   LIG    1        3.546   1.955   0.205  0.00  0.00    -0.027 A 
ATOM      7  C   LIG    1        4.729   1.251   0.327  0.00  0.00    +0.005 A 
ATOM      8  C   LIG    1        4.799  -0.064  -0.095  0.00  0.00    +0.003 A 
ATOM      9  C   LIG    1        3.686  -0.680  -0.636  0.00  0.00    +0.034 A 
ATOM     10  C   LIG    1        2.499   0.016  -0.756  0.00  0.00    +0.143 A 
ATOM     11  C   LIG    1        2.425   1.337  -0.333  0.00  0.00    +0.067 A 
BRANCH  10  12
ATOM     12  N   LIG    1        1.308  -0.645  -1.334  0.00  0.00    +0.008 N 
ATOM     13  O   LIG    1        1.344  -1.830  -1.613  0.00  0.00    -0.130 OA
BRANCH  12  14
ATOM     14  O   LIG    1        0.291  -0.004  -1.531  0.00  0.00    -0.396 OA
ATOM     15  H   LIG    1        0.263   0.908  -1.316  0.00  0.00    +0.329 HD
ENDBRANCH  12  14
ENDBRANCH  10  12
ENDBRANCH   1  11
BRANCH   3  16
ATOM     16  C   LIG    1       -0.536   3.460   0.483  0.00  0.00    +0.078 A 
ATOM     17  C   LIG    1       -1.135   3.614  -0.770  0.00  0.00    +0.017 A 
ATOM     18  C   LIG    1       -2.281   4.369  -0.895  0.00  0.00    +0.001 A 
ATOM     19  C   LIG    1       -2.837   4.985   0.214  0.00  0.00    +0.004 A 
ATOM     20  C   LIG    1       -2.252   4.846   1.457  0.00  0.00    +0.046 A 
ATOM     21  C   LIG    1       -1.101   4.086   1.602  0.00  0.00    +0.129 A 
BRANCH  21  22
ATOM     22  O   LIG    1       -0.525   3.949   2.823  0.00  0.00    -0.506 OA
ATOM     23  H   LIG    1        0.135   4.626   3.025  0.00  0.00    +0.292 HD
ENDBRANCH  21  22
ENDBRANCH   3  16
TORSDOF 5
