REMARK  Name = ZINC04819319
REMARK                            x       y       z     vdW  Elec       q    Type
REMARK                         _______ _______ _______ _____ _____    ______ ____
ROOT
ATOM      1  C   LIG    1       -1.182  -2.065  -0.099  0.00  0.00    +0.135 C 
ATOM      2  S   LIG    1        0.310  -2.903  -0.119  0.00  0.00    -0.019 S 
ENDROOT
BRANCH   1   3
ATOM      3  N   LIG    1       -1.199  -0.721   0.010  0.00  0.00    -0.297 N 
ATOM      4  H   LIG    1       -2.043  -0.253   0.102  0.00  0.00    +0.154 HD
BRANCH   3  10
ATOM      5  C   LIG    1        1.004  -0.347  -0.907  0.00  0.00    +0.025 A 
ATOM      6  C   LIG    1        2.187   0.364  -0.924  0.00  0.00    +0.034 A 
ATOM      7  C   LIG    1        2.375   1.418  -0.048  0.00  0.00    +0.122 A 
ATOM      8  C   LIG    1        1.379   1.763   0.847  0.00  0.00    +0.034 A 
ATOM      9  C   LIG    1        0.193   1.055   0.869  0.00  0.00    +0.025 A 
ATOM     10  C   LIG    1        0.001  -0.003  -0.009  0.00  0.00    +0.033 A 
BRANCH   7  11
ATOM     11  N   LIG    1        3.646   2.178  -0.068  0.00  0.00    +0.006 N 
ATOM     12  O   LIG    1        4.517   1.877  -0.850  0.00  0.00    -0.130 OA
BRANCH  11  13
ATOM     13  O   LIG    1        3.811   3.099   0.697  0.00  0.00    -0.396 OA
ATOM     14  H   LIG    1        3.136   3.332   1.303  0.00  0.00    +0.329 HD
ENDBRANCH  11  13
ENDBRANCH   7  11
ENDBRANCH   3  10
ENDBRANCH   1   3
BRANCH   1  15
ATOM     15  N   LIG    1       -2.340  -2.748  -0.193  0.00  0.00    -0.326 N 
ATOM     16  H   LIG    1       -3.186  -2.272  -0.182  0.00  0.00    +0.148 HD
BRANCH  15  17
ATOM     17  C   LIG    1       -2.322  -4.208  -0.311  0.00  0.00    +0.105 C 
BRANCH  17  18
ATOM     18  C   LIG    1       -3.757  -4.730  -0.401  0.00  0.00    +0.040 C 
BRANCH  18  19
ATOM     19  C   LIG    1       -3.739  -6.255  -0.525  0.00  0.00    +0.124 C 
BRANCH  19  20
ATOM     20  N   LIG    1       -5.113  -6.755  -0.611  0.00  0.00    -0.338 N 
ATOM     21  C   LIG    1       -5.913  -7.116   0.440  0.00  0.00    +0.104 A 
ATOM     22  C   LIG    1       -7.088  -7.514  -0.084  0.00  0.00    +0.101 A 
ATOM     23  N   LIG    1       -7.008  -7.399  -1.418  0.00  0.00    -0.352 N 
ATOM     24  H   LIG    1       -7.715  -7.619  -2.045  0.00  0.00    +0.166 HD
ATOM     25  C   LIG    1       -5.829  -6.940  -1.740  0.00  0.00    +0.173 A 
ENDBRANCH  19  20
ENDBRANCH  18  19
ENDBRANCH  17  18
ENDBRANCH  15  17
ENDBRANCH   1  15
TORSDOF 9
