REMARK  Name = ZINC05163030
REMARK                            x       y       z     vdW  Elec       q    Type
REMARK                         _______ _______ _______ _____ _____    ______ ____
ROOT
ATOM      1  C   LIG    1        1.624   2.155   4.959  0.00  0.00    +0.225 A 
ATOM      2  N   LIG    1        1.580   1.149   5.814  0.00  0.00    -0.219 NA
ATOM      3  C   LIG    1        0.850   0.067   5.566  0.00  0.00    +0.147 A 
ATOM      4  C   LIG    1        0.131   0.006   4.361  0.00  0.00    +0.149 A 
ATOM      5  C   LIG    1        0.213   1.100   3.484  0.00  0.00    +0.169 A 
ATOM      6  N   LIG    1       -0.578   0.784   2.403  0.00  0.00    -0.267 N 
ATOM      7  C   LIG    1       -1.102  -0.459   2.629  0.00  0.00    +0.197 A 
ATOM      8  N   LIG    1       -0.682  -0.914   3.784  0.00  0.00    -0.209 NA
ATOM      9  N   LIG    1        0.963   2.144   3.821  0.00  0.00    -0.216 NA
ENDROOT
BRANCH   6  10
ATOM     10  C1* LIG    1       -0.810   1.621   1.224  0.00  0.00    +0.255 C 
ATOM     11  C2* LIG    1       -0.013   1.086   0.008  0.00  0.00    +0.195 C 
ATOM     12  C3* LIG    1       -0.833   1.634  -1.185  0.00  0.00    +0.178 C 
ATOM     13  C4* LIG    1       -2.223   1.924  -0.587  0.00  0.00    +0.177 C 
ATOM     14  O4* LIG    1       -2.186   1.524   0.793  0.00  0.00    -0.346 OA
BRANCH  11  15
ATOM     15  O2* LIG    1        1.316   1.611  -0.002  0.00  0.00    -0.385 OA
ATOM     16  H2* LIG    1        1.840   1.341  -0.768  0.00  0.00    +0.210 HD
ENDBRANCH  11  15
BRANCH  12  17
ATOM     17  O3* LIG    1       -0.243   2.835  -1.688  0.00  0.00    -0.386 OA
ATOM     18  H3* LIG    1       -0.717   3.222  -2.437  0.00  0.00    +0.210 HD
ENDBRANCH  12  17
BRANCH  13  19
ATOM     19  C5* LIG    1       -3.289   1.120  -1.334  0.00  0.00    +0.190 C 
BRANCH  19  20
ATOM     20  O5* LIG    1       -4.584   1.482  -0.851  0.00  0.00    -0.392 OA
ATOM     21  H5* LIG    1       -5.310   1.010  -1.281  0.00  0.00    +0.210 HD
ENDBRANCH  19  20
ENDBRANCH  13  19
ENDBRANCH   6  10
BRANCH   3  22
ATOM     22  N   LIG    1        0.812  -0.984   6.468  0.00  0.00    -0.341 N 
ATOM     23  H   LIG    1        1.313  -0.931   7.296  0.00  0.00    +0.144 HD
ATOM     24  H   LIG    1       -0.131  -1.135   6.764  0.00  0.00    +0.144 HD
ENDBRANCH   3  22
BRANCH   7  25
ATOM     25  N   LIG    1       -1.946  -1.133   1.770  0.00  0.00    -0.329 N 
ATOM     26  H   LIG    1       -2.275  -2.015   2.006  0.00  0.00    +0.145 HD
ATOM     27  H   LIG    1       -2.211  -0.725   0.930  0.00  0.00    +0.145 HD
ENDBRANCH   7  25
TORSDOF 7
