REMARK  Name = ZINC04922153
REMARK                            x       y       z     vdW  Elec       q    Type
REMARK                         _______ _______ _______ _____ _____    ______ ____
ROOT
ATOM      1  C   LIG    1        4.402   3.355  -4.476  0.00  0.00    +0.156 A 
ATOM      2  C   LIG    1        3.641   3.963  -3.456  0.00  0.00    +0.171 A 
ATOM      3  C   LIG    1        3.403   3.226  -2.283  0.00  0.00    +0.184 A 
ATOM      4  N   LIG    1        2.651   4.033  -1.475  0.00  0.00    -0.222 N 
ATOM      5  N   LIG    1        2.462   5.235  -2.173  0.00  0.00    -0.063 NA
ATOM      6  N   LIG    1        3.888   1.991  -2.184  0.00  0.00    -0.215 NA
ATOM      7  C   LIG    1        4.593   1.466  -3.163  0.00  0.00    +0.225 A 
ATOM      8  N   LIG    1        3.049   5.161  -3.317  0.00  0.00    -0.124 NA
ATOM      9  N   LIG    1        4.849   2.120  -4.282  0.00  0.00    -0.218 NA
ENDROOT
BRANCH   1  10
ATOM     10  N   LIG    1        4.676   4.030  -5.651  0.00  0.00    -0.298 N 
ATOM     11  H   LIG    1        4.278   4.899  -5.816  0.00  0.00    +0.154 HD
BRANCH  10  17
ATOM     12  C   LIG    1        5.932   3.388 -10.360  0.00  0.00    +0.044 C 
ATOM     13  C   LIG    1        6.159   3.131  -8.892  0.00  0.00    -0.049 A 
ATOM     14  C   LIG    1        7.210   2.330  -8.486  0.00  0.00    +0.003 A 
ATOM     15  C   LIG    1        7.422   2.092  -7.140  0.00  0.00    +0.002 A 
ATOM     16  C   LIG    1        6.587   2.659  -6.197  0.00  0.00    +0.023 A 
ATOM     17  C   LIG    1        5.527   3.459  -6.603  0.00  0.00    +0.033 A 
ATOM     18  C   LIG    1        5.317   3.697  -7.955  0.00  0.00    +0.026 A 
ENDBRANCH  10  17
ENDBRANCH   1  10
BRANCH   4  19
ATOM     19  C   LIG    1        2.146   3.708  -0.139  0.00  0.00    +0.182 C 
BRANCH  19  20
ATOM     20  C   LIG    1        0.784   3.074  -0.257  0.00  0.00    -0.026 A 
ATOM     21  C   LIG    1        0.667   1.703  -0.382  0.00  0.00    +0.005 A 
ATOM     22  C   LIG    1       -0.582   1.122  -0.491  0.00  0.00    +0.000 A 
ATOM     23  C   LIG    1       -1.716   1.913  -0.479  0.00  0.00    +0.000 A 
ATOM     24  C   LIG    1       -1.600   3.285  -0.349  0.00  0.00    +0.000 A 
ATOM     25  C   LIG    1       -0.350   3.865  -0.240  0.00  0.00    +0.005 A 
ENDBRANCH  19  20
ENDBRANCH   4  19
TORSDOF 4
