REMARK  Name = ZINC05425356
REMARK                            x       y       z     vdW  Elec       q    Type
REMARK                         _______ _______ _______ _____ _____    ______ ____
ROOT
ATOM      1  C   LIG    1        3.672   2.184  -0.021  0.00  0.00    +0.148 C 
ENDROOT
BRANCH   1   2
ATOM      2  C   LIG    1        4.510   1.748  -1.196  0.00  0.00    -0.018 A 
ATOM      3  C   LIG    1        4.814   0.404  -1.364  0.00  0.00    +0.008 A 
ATOM      4  C   LIG    1        5.572  -0.011  -2.421  0.00  0.00    +0.030 A 
ATOM      5  C   LIG    1        6.048   0.922  -3.346  0.00  0.00    +0.089 A 
ATOM      6  C   LIG    1        5.739   2.282  -3.177  0.00  0.00    +0.066 A 
ATOM      7  N   LIG    1        6.339   2.943  -4.230  0.00  0.00    -0.344 N 
ATOM      8  C   LIG    1        6.973   2.007  -4.987  0.00  0.00    +0.197 A 
ATOM      9  H   LIG    1        6.313   3.898  -4.399  0.00  0.00    +0.167 HD
ATOM     10  N   LIG    1        6.803   0.825  -4.470  0.00  0.00    -0.236 NA
ATOM     11  C   LIG    1        4.964   2.685  -2.098  0.00  0.00    +0.033 A 
ENDBRANCH   1   2
BRANCH   1  14
ATOM     12  C   LIG    1        0.671   0.281   1.255  0.00  0.00    +0.002 A 
ATOM     13  C   LIG    1        1.841   1.017   1.224  0.00  0.00    +0.006 A 
ATOM     14  C   LIG    1        2.397   1.381   0.012  0.00  0.00    -0.019 A 
ATOM     15  C   LIG    1        1.784   1.009  -1.170  0.00  0.00    +0.026 A 
ATOM     16  C   LIG    1        0.613   0.272  -1.139  0.00  0.00    +0.041 A 
ATOM     17 CL   LIG    1       -0.158  -0.195  -2.623  0.00  0.00    -0.084 Cl
ATOM     18  C   LIG    1        0.057  -0.092   0.075  0.00  0.00    +0.020 A 
ENDBRANCH   1  14
BRANCH   1  19
ATOM     19  N   LIG    1        4.419   1.965   1.220  0.00  0.00    -0.327 N 
ATOM     20  C   LIG    1        4.897   0.768   1.680  0.00  0.00    +0.105 A 
ATOM     21  C   LIG    1        5.519   1.020   2.848  0.00  0.00    +0.101 A 
ATOM     22  N   LIG    1        5.423   2.335   3.094  0.00  0.00    -0.352 N 
ATOM     23  H   LIG    1        5.785   2.788   3.871  0.00  0.00    +0.166 HD
ATOM     24  C   LIG    1        4.770   2.908   2.120  0.00  0.00    +0.174 A 
ENDBRANCH   1  19
TORSDOF 3
