REMARK  Name = ZINC04834691
REMARK                            x       y       z     vdW  Elec       q    Type
REMARK                         _______ _______ _______ _____ _____    ______ ____
ROOT
ATOM      1  C   LIG    1        2.314  -6.052  -3.453  0.00  0.00    +0.087 A 
ATOM      2  C   LIG    1        3.165  -6.554  -4.400  0.00  0.00    +0.077 A 
ATOM      3  S   LIG    1        2.933  -8.310  -4.155  0.00  0.00    -0.059 S 
ATOM      4  C   LIG    1        1.738  -8.196  -2.831  0.00  0.00    +0.177 A 
ATOM      5  N   LIG    1        1.626  -6.887  -2.689  0.00  0.00    -0.223 NA
ENDROOT
BRANCH   1  12
ATOM      6  C   LIG    1        0.582  -0.607  -1.071  0.00  0.00    +0.121 A 
ATOM      7  C   LIG    1        1.139   0.168  -2.085  0.00  0.00    +0.049 A 
ATOM      8  C   LIG    1        1.745  -0.428  -3.171  0.00  0.00    +0.050 A 
ATOM      9  C   LIG    1        1.806  -1.811  -3.259  0.00  0.00    +0.139 A 
ATOM     10  C   LIG    1        1.249  -2.600  -2.235  0.00  0.00    +0.022 A 
ATOM     11  C   LIG    1        1.325  -4.060  -2.333  0.00  0.00    +0.028 A 
ATOM     12  C   LIG    1        2.169  -4.588  -3.280  0.00  0.00    +0.086 A 
ATOM     13  C   LIG    1        2.924  -3.638  -4.117  0.00  0.00    +0.347 A 
ATOM     14  O   LIG    1        3.993  -3.950  -4.608  0.00  0.00    -0.244 OA
ATOM     15  O   LIG    1        2.395  -2.411  -4.322  0.00  0.00    -0.422 OA
ATOM     16  C   LIG    1        0.638  -1.985  -1.136  0.00  0.00    +0.057 A 
BRANCH   6  18
ATOM     17  C   LIG    1       -0.037   1.425  -0.002  0.00  0.00    +0.277 C 
ATOM     18  O   LIG    1       -0.014  -0.004  -0.008  0.00  0.00    -0.495 OA
ENDBRANCH   6  18
ENDBRANCH   1  12
BRANCH   4  19
ATOM     19  N   LIG    1        1.103  -9.210  -2.135  0.00  0.00    -0.238 N 
ATOM     20  H   LIG    1        0.470  -8.993  -1.432  0.00  0.00    +0.174 HD
BRANCH  19  21
ATOM     21  N   LIG    1        1.373 -10.549  -2.445  0.00  0.00    -0.311 N 
ATOM     22  H   LIG    1        2.006 -10.766  -3.148  0.00  0.00    +0.184 HD
ATOM     23  C   LIG    1        0.777 -11.500  -1.792  0.00  0.00    +0.110 C 
BRANCH  23  24
ATOM     24  C   LIG    1        0.976 -12.905  -2.191  0.00  0.00    +0.034 A 
ATOM     25  C   LIG    1        0.248 -13.921  -1.568  0.00  0.00    +0.013 A 
ATOM     26  C   LIG    1        0.440 -15.234  -1.946  0.00  0.00    +0.001 A 
ATOM     27  C   LIG    1        1.350 -15.548  -2.940  0.00  0.00    +0.004 A 
ATOM     28  C   LIG    1        2.077 -14.551  -3.564  0.00  0.00    +0.046 A 
ATOM     29  C   LIG    1        1.892 -13.227  -3.201  0.00  0.00    +0.125 A 
BRANCH  29  30
ATOM     30  O   LIG    1        2.601 -12.246  -3.818  0.00  0.00    -0.506 OA
ATOM     31  H   LIG    1        3.445 -12.043  -3.391  0.00  0.00    +0.292 HD
ENDBRANCH  29  30
ENDBRANCH  23  24
ENDBRANCH  19  21
ENDBRANCH   4  19
TORSDOF 6
