REMARK  Name = ZINC05720663
REMARK                            x       y       z     vdW  Elec       q    Type
REMARK                         _______ _______ _______ _____ _____    ______ ____
ROOT
ATOM      1  C   LIG    1        0.002  -0.004   0.002  0.00  0.00    +0.124 A 
ATOM      2  C   LIG    1        1.212  -0.683  -0.013  0.00  0.00    +0.048 A 
ATOM      3  C   LIG    1        1.228  -2.064  -0.020  0.00  0.00    +0.036 A 
ATOM      4  C   LIG    1        0.040  -2.770  -0.012  0.00  0.00    +0.122 A 
ATOM      5  C   LIG    1       -1.167  -2.096   0.003  0.00  0.00    +0.040 A 
ATOM      6  C   LIG    1       -1.189  -0.715   0.015  0.00  0.00    +0.007 A 
ENDROOT
BRANCH   1   8
ATOM      7  C   LIG    1        1.248   2.021   0.001  0.00  0.00    +0.277 C 
ATOM      8  O   LIG    1       -0.016   1.355   0.009  0.00  0.00    -0.495 OA
ENDBRANCH   1   8
BRANCH   4   9
ATOM      9  N   LIG    1        0.060  -4.250  -0.018  0.00  0.00    +0.006 N 
ATOM     10  O   LIG    1        1.123  -4.845  -0.031  0.00  0.00    -0.130 OA
BRANCH   9  11
ATOM     11  O   LIG    1       -0.987  -4.873  -0.011  0.00  0.00    -0.396 OA
ATOM     12  H   LIG    1       -1.804  -4.416  -0.001  0.00  0.00    +0.329 HD
ENDBRANCH   9  11
ENDBRANCH   4   9
BRANCH   6  13
ATOM     13  C   LIG    1       -2.505   0.019   0.038  0.00  0.00    +0.115 C 
BRANCH  13  14
ATOM     14  S   LIG    1       -3.057   0.322  -1.663  0.00  0.00    -0.092 S 
BRANCH  14  15
ATOM     15  C   LIG    1       -4.587   1.175  -1.470  0.00  0.00    +0.160 A 
ATOM     16  N   LIG    1       -5.213   1.527  -0.363  0.00  0.00    -0.133 NA
ATOM     17  N   LIG    1       -6.412   2.197  -0.439  0.00  0.00    -0.125 NA
ATOM     18  C   LIG    1       -6.931   2.482  -1.618  0.00  0.00    +0.180 A 
ATOM     19  S   LIG    1       -5.700   1.800  -2.718  0.00  0.00    -0.025 S 
BRANCH  18  20
ATOM     20  N   LIG    1       -8.116   3.143  -1.922  0.00  0.00    -0.336 N 
ATOM     21  H   LIG    1       -8.369   3.282  -2.848  0.00  0.00    +0.144 HD
ATOM     22  H   LIG    1       -8.689   3.464  -1.208  0.00  0.00    +0.144 HD
ENDBRANCH  18  20
ENDBRANCH  14  15
ENDBRANCH  13  14
ENDBRANCH   6  13
TORSDOF 7
