REMARK  Name = ZINC04847333
REMARK                            x       y       z     vdW  Elec       q    Type
REMARK                         _______ _______ _______ _____ _____    ______ ____
ROOT
ATOM      1  C   LIG    1        0.033   2.114   6.194  0.00  0.00    +0.248 C 
ATOM      2  N   LIG    1       -0.908   1.846   7.122  0.00  0.00    -0.280 N 
ATOM      3  C   LIG    1       -1.922   0.787   7.032  0.00  0.00    +0.163 C 
ATOM      4  C   LIG    1       -2.435   0.554   8.441  0.00  0.00    +0.077 C 
ATOM      5  C   LIG    1       -2.265   1.899   9.126  0.00  0.00    +0.087 C 
ATOM      6  N   LIG    1       -2.904  -0.528   8.938  0.00  0.00    -0.093 NA
ATOM      7  C   LIG    1       -1.086   2.561   8.392  0.00  0.00    +0.168 C 
ATOM      8  O   LIG    1        0.888   2.948   6.419  0.00  0.00    -0.270 OA
ENDROOT
BRANCH   1  12
ATOM      9  C   LIG    1        0.008   0.041   2.484  0.00  0.00    -0.018 A 
ATOM     10  C   LIG    1        1.197   0.584   2.971  0.00  0.00    +0.009 A 
ATOM     11  C   LIG    1        1.206   1.256   4.173  0.00  0.00    +0.013 A 
ATOM     12  C   LIG    1        0.024   1.394   4.904  0.00  0.00    +0.037 A 
ATOM     13  C   LIG    1       -1.166   0.849   4.415  0.00  0.00    +0.013 A 
ATOM     14  C   LIG    1       -1.174   0.183   3.211  0.00  0.00    +0.009 A 
BRANCH   9  21
ATOM     15  C   LIG    1        1.218   1.258   0.154  0.00  0.00    +0.044 C 
ATOM     16  C   LIG    1        0.580  -0.104   0.062  0.00  0.00    -0.043 A 
ATOM     17  C   LIG    1        0.575  -0.785  -1.139  0.00  0.00    +0.004 A 
ATOM     18  C   LIG    1       -0.011  -2.035  -1.226  0.00  0.00    +0.000 A 
ATOM     19  C   LIG    1       -0.594  -2.611  -0.111  0.00  0.00    +0.001 A 
ATOM     20  C   LIG    1       -0.594  -1.940   1.095  0.00  0.00    +0.009 A 
ATOM     21  C   LIG    1       -0.000  -0.682   1.190  0.00  0.00    -0.015 A 
ENDBRANCH   9  21
ENDBRANCH   1  12
BRANCH   7  22
ATOM     22  C   LIG    1        0.166   2.449   9.223  0.00  0.00    +0.234 C 
ATOM     23  N   LIG    1        0.225   3.034  10.436  0.00  0.00    -0.311 N 
ATOM     24  H   LIG    1       -0.538   3.528  10.774  0.00  0.00    +0.149 HD
ATOM     25  O   LIG    1        1.121   1.832   8.801  0.00  0.00    -0.274 OA
BRANCH  23  26
ATOM     26  C   LIG    1        1.442   2.925  11.244  0.00  0.00    +0.140 C 
BRANCH  26  27
ATOM     27  C   LIG    1        1.247   3.672  12.564  0.00  0.00    +0.162 C 
BRANCH  27  28
ATOM     28  C   LIG    1        2.538   3.665  13.341  0.00  0.00    -0.018 A 
ATOM     29  C   LIG    1        2.903   2.545  14.064  0.00  0.00    +0.006 A 
ATOM     30  C   LIG    1        4.088   2.538  14.777  0.00  0.00    +0.000 A 
ATOM     31  C   LIG    1        4.907   3.651  14.767  0.00  0.00    +0.000 A 
ATOM     32  C   LIG    1        4.541   4.772  14.044  0.00  0.00    +0.000 A 
ATOM     33  C   LIG    1        3.359   4.777  13.328  0.00  0.00    +0.006 A 
ENDBRANCH  27  28
BRANCH  27  34
ATOM     34  O   LIG    1        0.226   3.029  13.329  0.00  0.00    -0.386 OA
ATOM     35  H   LIG    1        0.422   2.107  13.549  0.00  0.00    +0.210 HD
ENDBRANCH  27  34
ENDBRANCH  26  27
ENDBRANCH  23  26
ENDBRANCH   7  22
BRANCH   6  36
ATOM     36  O   LIG    1       -2.988  -1.695   8.140  0.00  0.00    -0.397 OA
ATOM     37  C   LIG    1       -3.530  -2.828   8.823  0.00  0.00    +0.313 C 
ENDBRANCH   6  36
TORSDOF 8
