REMARK  Name = ZINC05460138
REMARK                            x       y       z     vdW  Elec       q    Type
REMARK                         _______ _______ _______ _____ _____    ______ ____
ROOT
ATOM      1  C   LIG    1       -1.293  -0.775   0.010  0.00  0.00    +0.186 C 
ENDROOT
BRANCH   1   2
ATOM      2  N   LIG    1       -1.005  -2.212  -0.000  0.00  0.00    -0.298 N 
ATOM      3  H   LIG    1       -0.974  -2.706   0.834  0.00  0.00    +0.150 HD
ATOM      4  C   LIG    1       -0.785  -2.846  -1.169  0.00  0.00    +0.245 C 
ATOM      5  O   LIG    1       -0.824  -2.227  -2.214  0.00  0.00    -0.270 OA
BRANCH   4   6
ATOM      6  C   LIG    1       -0.495  -4.296  -1.179  0.00  0.00    +0.037 A 
ATOM      7  C   LIG    1       -0.443  -5.009   0.019  0.00  0.00    +0.013 A 
ATOM      8  C   LIG    1       -0.178  -6.363   0.002  0.00  0.00    +0.001 A 
ATOM      9  C   LIG    1        0.049  -7.011  -1.199  0.00  0.00    +0.000 A 
ATOM     10  C   LIG    1        0.005  -6.309  -2.390  0.00  0.00    +0.001 A 
ATOM     11  C   LIG    1       -0.266  -4.956  -2.387  0.00  0.00    +0.013 A 
ENDBRANCH   4   6
ENDBRANCH   1   2
BRANCH   1  12
ATOM     12  C   LIG    1        0.002  -0.004   0.002  0.00  0.00    +0.328 C 
ATOM     13  O   LIG    1        1.056  -0.594  -0.011  0.00  0.00    -0.249 OA
BRANCH  12  14
ATOM     14  O   LIG    1       -0.016   1.338   0.009  0.00  0.00    -0.464 OA
BRANCH  14  16
ATOM     15  C   LIG    1        1.048   3.529   0.011  0.00  0.00    +0.048 C 
ATOM     16  C   LIG    1        1.268   2.015   0.001  0.00  0.00    +0.229 C 
ENDBRANCH  14  16
ENDBRANCH  12  14
ENDBRANCH   1  12
BRANCH   1  17
ATOM     17  C   LIG    1       -2.088  -0.423   1.269  0.00  0.00    +0.071 C 
BRANCH  17  18
ATOM     18  C   LIG    1       -3.434  -1.099   1.218  0.00  0.00    -0.020 A 
ATOM     19  C   LIG    1       -4.581  -0.561   0.774  0.00  0.00    +0.087 A 
ATOM     20  N   LIG    1       -5.596  -1.472   0.879  0.00  0.00    -0.360 N 
ATOM     21  C   LIG    1       -5.114  -2.649   1.408  0.00  0.00    +0.047 A 
ATOM     22  C   LIG    1       -5.703  -3.871   1.718  0.00  0.00    +0.026 A 
ATOM     23  C   LIG    1       -4.935  -4.885   2.249  0.00  0.00    +0.002 A 
ATOM     24  C   LIG    1       -3.579  -4.700   2.479  0.00  0.00    +0.001 A 
ATOM     25  C   LIG    1       -2.981  -3.508   2.182  0.00  0.00    +0.010 A 
ATOM     26  H   LIG    1       -6.517  -1.313   0.621  0.00  0.00    +0.165 HD
ATOM     27  C   LIG    1       -3.738  -2.469   1.638  0.00  0.00    +0.003 A 
ENDBRANCH  17  18
ENDBRANCH   1  17
TORSDOF 7
