REMARK  Name = ZINC05501424
REMARK                            x       y       z     vdW  Elec       q    Type
REMARK                         _______ _______ _______ _____ _____    ______ ____
ROOT
ATOM      1  C   LIG    1       -4.400   8.795   0.071  0.00  0.00    -0.021 C 
ENDROOT
BRANCH   1   2
ATOM      2  C   LIG    1       -4.101  10.296   0.077  0.00  0.00    -0.083 C 
BRANCH   2   3
ATOM      3  N   LIG    1       -5.373  11.042   0.087  0.00  0.00    +0.379 N 
ATOM      4  H   LIG    1       -5.915  10.799  -0.750  0.00  0.00    -0.086 HD
ATOM      5  H   LIG    1       -5.907  10.789   0.927  0.00  0.00    -0.086 HD
BRANCH   3   6
ATOM      6  C   LIG    1       -5.114  12.494   0.094  0.00  0.00    -0.081 C 
BRANCH   6   7
ATOM      7  C   LIG    1       -6.450  13.241   0.105  0.00  0.00    -0.000 C 
BRANCH   7   8
ATOM      8  C   LIG    1       -6.191  14.749   0.112  0.00  0.00    +0.102 C 
BRANCH   8   9
ATOM      9  N   LIG    1       -7.469  15.464   0.121  0.00  0.00    -0.308 N 
ATOM     10  H   LIG    1       -8.302  14.968   0.123  0.00  0.00    +0.149 HD
ATOM     11  C   LIG    1       -7.487  16.812   0.129  0.00  0.00    +0.317 C 
ATOM     12  O   LIG    1       -6.445  17.433   0.127  0.00  0.00    -0.266 OA
BRANCH  11  13
ATOM     13  C   LIG    1       -8.803  17.548   0.139  0.00  0.00    +0.469 C 
ATOM     14  F   LIG    1       -9.526  17.194   1.283  0.00  0.00    -0.162 F 
ATOM     15  F   LIG    1       -9.537  17.206  -1.002  0.00  0.00    -0.162 F 
ATOM     16  F   LIG    1       -8.566  18.926   0.145  0.00  0.00    -0.162 F 
ENDBRANCH  11  13
ENDBRANCH   8   9
ENDBRANCH   7   8
ENDBRANCH   6   7
ENDBRANCH   3   6
ENDBRANCH   2   3
ENDBRANCH   1   2
BRANCH   1  17
ATOM     17  C   LIG    1       -3.085   8.013   0.060  0.00  0.00    -0.021 C 
BRANCH  17  18
ATOM     18  C   LIG    1       -3.385   6.512   0.053  0.00  0.00    -0.083 C 
BRANCH  18  19
ATOM     19  N   LIG    1       -2.112   5.766   0.043  0.00  0.00    +0.379 N 
ATOM     20  H   LIG    1       -1.578   6.019  -0.796  0.00  0.00    -0.086 HD
ATOM     21  H   LIG    1       -1.570   6.009   0.880  0.00  0.00    -0.086 HD
BRANCH  19  22
ATOM     22  C   LIG    1       -2.371   4.314   0.037  0.00  0.00    -0.081 C 
BRANCH  22  23
ATOM     23  C   LIG    1       -1.036   3.567   0.026  0.00  0.00    -0.000 C 
BRANCH  23  24
ATOM     24  C   LIG    1       -1.295   2.059   0.019  0.00  0.00    +0.102 C 
BRANCH  24  25
ATOM     25  N   LIG    1       -0.016   1.344   0.009  0.00  0.00    -0.308 N 
ATOM     26  H   LIG    1        0.817   1.840   0.004  0.00  0.00    +0.149 HD
ATOM     27  C   LIG    1        0.002  -0.004   0.002  0.00  0.00    +0.317 C 
ATOM     28  O   LIG    1       -1.040  -0.625   0.009  0.00  0.00    -0.266 OA
BRANCH  27  29
ATOM     29  C   LIG    1        1.317  -0.740  -0.015  0.00  0.00    +0.469 C 
ATOM     30  F   LIG    1        2.057  -0.398   1.123  0.00  0.00    -0.162 F 
ATOM     31  F   LIG    1        2.035  -0.386  -1.162  0.00  0.00    -0.162 F 
ATOM     32  F   LIG    1        1.080  -2.119  -0.020  0.00  0.00    -0.162 F 
ENDBRANCH  27  29
ENDBRANCH  24  25
ENDBRANCH  23  24
ENDBRANCH  22  23
ENDBRANCH  19  22
ENDBRANCH  18  19
ENDBRANCH  17  18
ENDBRANCH   1  17
TORSDOF 15
