REMARK  Name = ZINC05276265
REMARK                            x       y       z     vdW  Elec       q    Type
REMARK                         _______ _______ _______ _____ _____    ______ ____
ROOT
ATOM      1  C   LIG    1       -2.471   5.494   3.865  0.00  0.00    +0.012 C 
ATOM      2  C   LIG    1       -3.081   4.594   2.799  0.00  0.00    +0.013 C 
ATOM      3  C   LIG    1       -2.227   3.335   2.643  0.00  0.00    +0.011 C 
ATOM      4  C   LIG    1       -2.920   2.282   1.806  0.00  0.00    -0.003 C 
ATOM      5  C   LIG    1       -4.219   2.716   1.139  0.00  0.00    +0.002 C 
ATOM      6  C   LIG    1       -5.209   3.341   2.109  0.00  0.00    -0.007 C 
ATOM      7  C   LIG    1       -6.173   4.280   1.380  0.00  0.00    +0.016 C 
ATOM      8  C   LIG    1       -6.013   2.235   2.800  0.00  0.00    +0.019 C 
ATOM      9  C   LIG    1       -7.034   2.847   3.759  0.00  0.00    +0.080 C 
ATOM     10  C   LIG    1       -6.360   3.842   4.663  0.00  0.00    +0.156 C 
ATOM     11  O   LIG    1       -6.918   4.214   5.677  0.00  0.00    -0.293 OA
ATOM     12  C   LIG    1       -5.033   4.372   4.339  0.00  0.00    +0.046 C 
ATOM     13  C   LIG    1       -4.031   3.499  -0.143  0.00  0.00    +0.005 C 
ATOM     14  C   LIG    1       -3.128   2.735  -1.135  0.00  0.00    +0.011 C 
ATOM     15  C   LIG    1       -1.797   2.490  -0.466  0.00  0.00    +0.018 C 
ATOM     16  C   LIG    1       -1.107   3.823  -0.186  0.00  0.00    +0.016 C 
ATOM     17  C   LIG    1       -0.799   1.618  -1.246  0.00  0.00    +0.176 C 
ATOM     18  C   LIG    1        0.102   0.996  -0.148  0.00  0.00    +0.057 C 
ATOM     19  C   LIG    1       -0.572   1.327   1.214  0.00  0.00    +0.009 C 
ATOM     20  C   LIG    1       -2.017   1.631   0.795  0.00  0.00    +0.003 C 
ATOM     21  C   LIG    1       -4.470   4.138   3.165  0.00  0.00    -0.057 C 
ENDROOT
BRANCH  17  22
ATOM     22  C   LIG    1        0.016   2.474  -2.176  0.00  0.00    +0.174 C 
ATOM     23  C   LIG    1       -0.472   2.741  -3.577  0.00  0.00    +0.090 C 
ATOM     24  O   LIG    1        1.061   2.948  -1.800  0.00  0.00    -0.293 OA
ENDBRANCH  17  22
BRANCH  17  25
ATOM     25  O   LIG    1       -1.502   0.584  -1.977  0.00  0.00    -0.450 OA
BRANCH  25  26
ATOM     26  C   LIG    1       -0.752  -0.309  -2.642  0.00  0.00    +0.305 C 
ATOM     27  C   LIG    1       -1.408  -1.474  -3.337  0.00  0.00    +0.136 C 
ATOM     28  O   LIG    1        0.448  -0.179  -2.684  0.00  0.00    -0.251 OA
ENDBRANCH  25  26
ENDBRANCH  17  25
TORSDOF 3
