REMARK  Name = ZINC05639290
REMARK                            x       y       z     vdW  Elec       q    Type
REMARK                         _______ _______ _______ _____ _____    ______ ____
ROOT
ATOM      1  C   LIG    1       -2.519   6.468   2.914  0.00  0.00    +0.111 C 
ATOM      2  C   LIG    1       -1.332   5.895   2.183  0.00  0.00    +0.232 C 
ATOM      3  N   LIG    1       -1.181   6.117   0.863  0.00  0.00    -0.185 N 
ATOM      4  C   LIG    1       -0.074   5.619   0.032  0.00  0.00    +0.137 C 
ATOM      5  C   LIG    1       -0.398   6.164  -1.373  0.00  0.00    +0.087 C 
ATOM      6  C   LIG    1       -1.691   6.930  -1.174  0.00  0.00    +0.069 C 
ATOM      7  N   LIG    1       -2.048   6.858   0.062  0.00  0.00    -0.181 NA
ATOM      8  O   LIG    1       -0.512   5.233   2.784  0.00  0.00    -0.274 OA
ENDROOT
BRANCH   4   9
ATOM      9  C   LIG    1       -0.054   4.112   0.024  0.00  0.00    -0.025 A 
ATOM     10  C   LIG    1        1.153   3.438   0.009  0.00  0.00    +0.008 A 
ATOM     11  C   LIG    1        1.173   2.056   0.002  0.00  0.00    +0.038 A 
ATOM     12  C   LIG    1       -0.016   1.347   0.009  0.00  0.00    +0.123 A 
ATOM     13  F   LIG    1        0.002  -0.004   0.002  0.00  0.00    -0.205 F 
ATOM     14  C   LIG    1       -1.224   2.023   0.019  0.00  0.00    +0.038 A 
ATOM     15  C   LIG    1       -1.242   3.405   0.032  0.00  0.00    +0.008 A 
ENDBRANCH   4   9
BRANCH   6  16
ATOM     16  C   LIG    1       -2.426   7.648  -2.232  0.00  0.00    -0.002 A 
ATOM     17  C   LIG    1       -1.936   7.660  -3.540  0.00  0.00    +0.013 A 
ATOM     18  C   LIG    1       -2.629   8.327  -4.527  0.00  0.00    +0.046 A 
ATOM     19  C   LIG    1       -3.807   8.997  -4.219  0.00  0.00    +0.120 A 
ATOM     20  C   LIG    1       -4.294   8.992  -2.919  0.00  0.00    +0.046 A 
ATOM     21  C   LIG    1       -3.611   8.322  -1.927  0.00  0.00    +0.013 A 
BRANCH  19  22
ATOM     22  O   LIG    1       -4.484   9.658  -5.194  0.00  0.00    -0.495 OA
ATOM     23  C   LIG    1       -3.927   9.623  -6.509  0.00  0.00    +0.277 C 
ENDBRANCH  19  22
ENDBRANCH   6  16
TORSDOF 3
