REMARK  Name = ZINC05682242
REMARK                            x       y       z     vdW  Elec       q    Type
REMARK                         _______ _______ _______ _____ _____    ______ ____
ROOT
ATOM      1  C   LIG    1        3.605  -4.810  -0.779  0.00  0.00    -0.027 C 
ATOM      2  C   LIG    1        4.783  -4.200  -0.015  0.00  0.00    -0.012 C 
ATOM      3  C   LIG    1        4.780  -4.717   1.425  0.00  0.00    -0.001 C 
ATOM      4  C   LIG    1        3.469  -4.319   2.107  0.00  0.00    +0.003 C 
ATOM      5  C   LIG    1        2.291  -4.929   1.343  0.00  0.00    +0.043 C 
ATOM      6  C   LIG    1        2.294  -4.412  -0.097  0.00  0.00    +0.163 C 
ENDROOT
BRANCH   1  10
ATOM      7  C   LIG    1        3.814  -4.482  -5.037  0.00  0.00    +0.016 C 
ATOM      8  C   LIG    1        2.470  -4.285  -4.330  0.00  0.00    -0.011 C 
ATOM      9  C   LIG    1        2.529  -4.929  -2.944  0.00  0.00    -0.078 C 
ATOM     10  N   LIG    1        3.603  -4.284  -2.159  0.00  0.00    +0.384 N 
ATOM     11  H   LIG    1        3.432  -3.272  -2.130  0.00  0.00    -0.081 HD
ATOM     12  C   LIG    1        4.914  -4.531  -2.796  0.00  0.00    -0.078 C 
ATOM     13  C   LIG    1        4.927  -3.874  -4.178  0.00  0.00    -0.011 C 
BRANCH   7  17
ATOM     14  C   LIG    1        3.726  -2.542  -8.841  0.00  0.00    +0.000 A 
ATOM     15  C   LIG    1        3.946  -3.904  -8.765  0.00  0.00    +0.000 A 
ATOM     16  C   LIG    1        3.974  -4.532  -7.534  0.00  0.00    +0.004 A 
ATOM     17  C   LIG    1        3.783  -3.797  -6.379  0.00  0.00    -0.044 A 
ATOM     18  C   LIG    1        3.558  -2.436  -6.455  0.00  0.00    +0.004 A 
ATOM     19  C   LIG    1        3.534  -1.807  -7.686  0.00  0.00    +0.000 A 
ENDBRANCH   7  17
ENDBRANCH   1  10
BRANCH   6  20
ATOM     20  O   LIG    1        2.171  -2.965  -0.092  0.00  0.00    -0.459 OA
BRANCH  20  21
ATOM     21  C   LIG    1        0.924  -2.458  -0.129  0.00  0.00    +0.339 C 
ATOM     22  O   LIG    1       -0.035  -3.203  -0.164  0.00  0.00    -0.245 OA
BRANCH  21  23
ATOM     23  C   LIG    1        0.722  -0.994  -0.126  0.00  0.00    +0.059 A 
ATOM     24  C   LIG    1       -0.570  -0.465  -0.165  0.00  0.00    +0.015 A 
ATOM     25  C   LIG    1       -0.752   0.903  -0.162  0.00  0.00    +0.001 A 
ATOM     26  C   LIG    1        0.342   1.749  -0.121  0.00  0.00    +0.000 A 
ATOM     27  C   LIG    1        1.625   1.231  -0.083  0.00  0.00    +0.001 A 
ATOM     28  C   LIG    1        1.821  -0.135  -0.085  0.00  0.00    +0.015 A 
ENDBRANCH  21  23
ENDBRANCH  20  21
ENDBRANCH   6  20
TORSDOF 5
