REMARK  Name = ZINC05161616
REMARK                            x       y       z     vdW  Elec       q    Type
REMARK                         _______ _______ _______ _____ _____    ______ ____
ROOT
ATOM      1  C   LIG    1        3.201   1.380   2.865  0.00  0.00    +0.105 A 
ATOM      2  C   LIG    1        4.502   1.508   3.177  0.00  0.00    +0.044 A 
ATOM      3  I   LIG    1        5.567   0.373   4.579  0.00  0.00    -0.041 I 
ATOM      4  C   LIG    1        5.029   2.595   2.354  0.00  0.00    +0.071 A 
ATOM      5  C   LIG    1        6.280   3.213   2.206  0.00  0.00    +0.130 A 
ATOM      6  N   LIG    1        6.393   4.207   1.330  0.00  0.00    -0.220 NA
ATOM      7  C   LIG    1        5.357   4.606   0.615  0.00  0.00    +0.225 A 
ATOM      8  N   LIG    1        4.167   4.056   0.720  0.00  0.00    -0.218 NA
ATOM      9  C   LIG    1        3.953   3.053   1.571  0.00  0.00    +0.149 A 
ATOM     10  N   LIG    1        2.863   2.296   1.901  0.00  0.00    -0.302 N 
ENDROOT
BRANCH  10  11
ATOM     11  C1* LIG    1        1.528   2.445   1.316  0.00  0.00    +0.252 C 
ATOM     12  C2* LIG    1        1.427   1.647  -0.003  0.00  0.00    +0.195 C 
ATOM     13  C3* LIG    1       -0.013   1.086   0.008  0.00  0.00    +0.178 C 
ATOM     14  C4* LIG    1       -0.611   1.612   1.332  0.00  0.00    +0.177 C 
ATOM     15  O4* LIG    1        0.532   1.858   2.180  0.00  0.00    -0.346 OA
BRANCH  12  16
ATOM     16  O2* LIG    1        1.620   2.509  -1.126  0.00  0.00    -0.385 OA
ATOM     17  H2* LIG    1        1.508   2.071  -1.981  0.00  0.00    +0.210 HD
ENDBRANCH  12  16
BRANCH  13  18
ATOM     18  O3* LIG    1       -0.752   1.581  -1.110  0.00  0.00    -0.386 OA
ATOM     19  H3* LIG    1       -1.671   1.284  -1.137  0.00  0.00    +0.210 HD
ENDBRANCH  13  18
BRANCH  14  20
ATOM     20  C5* LIG    1       -1.523   0.557   1.960  0.00  0.00    +0.190 C 
BRANCH  20  21
ATOM     21  O5* LIG    1       -2.156   1.104   3.119  0.00  0.00    -0.392 OA
ATOM     22  H5* LIG    1       -2.751   0.488   3.570  0.00  0.00    +0.210 HD
ENDBRANCH  20  21
ENDBRANCH  14  20
ENDBRANCH  10  11
BRANCH   5  23
ATOM     23  N   LIG    1        7.368   2.800   2.954  0.00  0.00    -0.343 N 
ATOM     24  H   LIG    1        8.227   3.236   2.841  0.00  0.00    +0.144 HD
ATOM     25  H   LIG    1        7.272   2.074   3.590  0.00  0.00    +0.144 HD
ENDBRANCH   5  23
TORSDOF 6
