REMARK  Name = ZINC05618522
REMARK                            x       y       z     vdW  Elec       q    Type
REMARK                         _______ _______ _______ _____ _____    ______ ____
ROOT
ATOM      1  C   LIG    1        2.628  -4.245  -0.046  0.00  0.00    +0.100 C 
ENDROOT
BRANCH   1   8
ATOM      2  C   LIG    1       -2.597  -0.921  -0.498  0.00  0.00    +0.001 A 
ATOM      3  C   LIG    1       -2.109  -0.014  -1.427  0.00  0.00    +0.004 A 
ATOM      4  C   LIG    1       -0.815  -0.113  -1.893  0.00  0.00    +0.047 A 
ATOM      5  C   LIG    1        0.013  -1.129  -1.432  0.00  0.00    +0.143 A 
ATOM      6  C   LIG    1       -0.481  -2.047  -0.491  0.00  0.00    +0.059 A 
ATOM      7  C   LIG    1        0.406  -3.118  -0.009  0.00  0.00    +0.138 A 
ATOM      8  C   LIG    1        1.679  -3.168  -0.506  0.00  0.00    +0.091 A 
ATOM      9  C   LIG    1        2.099  -2.214  -1.445  0.00  0.00    +0.345 A 
ATOM     10  O   LIG    1        3.236  -2.270  -1.880  0.00  0.00    -0.245 OA
ATOM     11  O   LIG    1        1.282  -1.240  -1.878  0.00  0.00    -0.422 OA
ATOM     12  C   LIG    1       -1.793  -1.935  -0.027  0.00  0.00    +0.015 A 
BRANCH   7  13
ATOM     13  O   LIG    1       -0.025  -4.024   0.897  0.00  0.00    -0.506 OA
ATOM     14  H   LIG    1       -0.900  -3.976   1.228  0.00  0.00    +0.292 HD
ENDBRANCH   7  13
ENDBRANCH   1   8
BRANCH   1  15
ATOM     15  C   LIG    1        3.545  -3.688   1.012  0.00  0.00    +0.091 A 
ATOM     16  C   LIG    1        3.448  -2.375   1.383  0.00  0.00    +0.138 A 
ATOM     17  C   LIG    1        4.366  -1.881   2.421  0.00  0.00    +0.059 A 
ATOM     18  C   LIG    1        4.322  -0.552   2.848  0.00  0.00    +0.015 A 
ATOM     19  C   LIG    1        5.195  -0.120   3.822  0.00  0.00    +0.001 A 
ATOM     20  C   LIG    1        6.115  -0.999   4.377  0.00  0.00    +0.004 A 
ATOM     21  C   LIG    1        6.169  -2.313   3.964  0.00  0.00    +0.047 A 
ATOM     22  C   LIG    1        5.297  -2.769   2.983  0.00  0.00    +0.143 A 
ATOM     23  O   LIG    1        5.336  -4.053   2.568  0.00  0.00    -0.422 OA
ATOM     24  C   LIG    1        4.498  -4.515   1.626  0.00  0.00    +0.345 A 
ATOM     25  O   LIG    1        4.571  -5.684   1.290  0.00  0.00    -0.245 OA
BRANCH  16  26
ATOM     26  O   LIG    1        2.535  -1.556   0.813  0.00  0.00    -0.506 OA
ATOM     27  H   LIG    1        1.957  -1.886   0.153  0.00  0.00    +0.292 HD
ENDBRANCH  16  26
ENDBRANCH   1  15
BRANCH   1  28
ATOM     28  C   LIG    1        3.446  -4.727  -1.216  0.00  0.00    -0.035 A 
ATOM     29  C   LIG    1        4.785  -4.392  -1.308  0.00  0.00    +0.006 A 
ATOM     30  C   LIG    1        5.535  -4.834  -2.381  0.00  0.00    +0.020 A 
ATOM     31  C   LIG    1        4.948  -5.612  -3.363  0.00  0.00    +0.041 A 
ATOM     32 CL   LIG    1        5.890  -6.167  -4.711  0.00  0.00    -0.084 Cl
ATOM     33  C   LIG    1        3.609  -5.947  -3.270  0.00  0.00    +0.020 A 
ATOM     34  C   LIG    1        2.860  -5.509  -2.194  0.00  0.00    +0.006 A 
ENDBRANCH   1  28
TORSDOF 5
