REMARK  Name = ZINC05649664
REMARK                            x       y       z     vdW  Elec       q    Type
REMARK                         _______ _______ _______ _____ _____    ______ ____
ROOT
ATOM      1  C   LIG    1        1.322  -0.446   0.611  0.00  0.00    +0.081 C 
ATOM      2  C   LIG    1       -0.032   0.015   0.034  0.00  0.00    +0.013 C 
ATOM      3  C   LIG    1        0.005   1.558   0.007  0.00  0.00    +0.005 C 
ATOM      4  C   LIG    1        1.525   1.892  -0.045  0.00  0.00    -0.001 C 
ATOM      5  C   LIG    1        1.981   1.624  -1.481  0.00  0.00    -0.004 C 
ATOM      6  C   LIG    1        1.469   2.738  -2.397  0.00  0.00    +0.006 C 
ATOM      7  C   LIG    1        1.847   2.420  -3.849  0.00  0.00    +0.023 C 
ATOM      8  C   LIG    1        2.673   1.136  -3.872  0.00  0.00    +0.082 C 
ATOM      9  C   LIG    1        3.924   1.322  -3.012  0.00  0.00    -0.010 C 
ATOM     10  C   LIG    1        4.715   2.530  -3.518  0.00  0.00    +0.013 C 
ATOM     11  C   LIG    1        4.787   0.064  -3.127  0.00  0.00    +0.018 C 
ATOM     12  C   LIG    1        5.329   0.007  -4.579  0.00  0.00    +0.096 C 
ATOM     13  C   LIG    1        4.217   0.242  -5.559  0.00  0.00    +0.216 C 
ATOM     14  O   LIG    1        4.398  -0.077  -6.715  0.00  0.00    -0.276 OA
ATOM     15  N   LIG    1        3.040   0.782  -5.233  0.00  0.00    -0.301 N 
ATOM     16  C   LIG    1        2.069   1.030  -6.302  0.00  0.00    +0.132 C 
ATOM     17  C   LIG    1        3.506   1.558  -1.561  0.00  0.00    +0.000 C 
ATOM     18  C   LIG    1        3.989   0.388  -0.696  0.00  0.00    +0.005 C 
ATOM     19  C   LIG    1        3.599   0.661   0.735  0.00  0.00    +0.008 C 
ATOM     20  C   LIG    1        2.108   0.837   0.913  0.00  0.00    -0.018 C 
ATOM     21  C   LIG    1        1.825   1.264   2.354  0.00  0.00    +0.012 C 
ENDROOT
BRANCH   1  23
ATOM     22  N   LIG    1        1.490  -2.524   1.943  0.00  0.00    -0.302 N 
ATOM     23  C   LIG    1        1.106  -1.233   1.878  0.00  0.00    +0.219 C 
ATOM     24  O   LIG    1        0.587  -0.706   2.838  0.00  0.00    -0.275 OA
BRANCH  22  26
ATOM     25  C   LIG    1       -0.168  -3.997   2.973  0.00  0.00    +0.024 C 
ATOM     26  C   LIG    1        1.193  -3.317   3.138  0.00  0.00    +0.104 C 
ENDBRANCH  22  26
BRANCH  22  27
ATOM     27  C   LIG    1        2.205  -3.133   0.818  0.00  0.00    +0.104 C 
ATOM     28  C   LIG    1        3.704  -2.858   0.958  0.00  0.00    +0.024 C 
ENDBRANCH  22  27
ENDBRANCH   1  23
TORSDOF 3
