REMARK  Name = ZINC04899477
REMARK                            x       y       z     vdW  Elec       q    Type
REMARK                         _______ _______ _______ _____ _____    ______ ____
ROOT
ATOM      1  C   ILE A  1        2.037  -2.326  -2.459  0.00  0.00    +0.202 C 
ATOM      2  N   PRO A  2        1.664  -2.301  -3.754  0.00  0.00    -0.291 N 
ATOM      3  CD  PRO A  2        0.297  -2.053  -4.249  0.00  0.00    +0.108 C 
ATOM      4  CG  PRO A  2        0.489  -1.518  -5.690  0.00  0.00    +0.021 C 
ATOM      5  CB  PRO A  2        1.693  -2.366  -6.180  0.00  0.00    +0.033 C 
ATOM      6  CA  PRO A  2        2.552  -2.510  -4.906  0.00  0.00    +0.162 C 
ATOM      7  O   ILE A  1        3.173  -2.629  -2.161  0.00  0.00    -0.277 OA
ENDROOT
BRANCH   6   8
ATOM      8  C   PRO A  2        3.647  -1.474  -4.904  0.00  0.00    +0.234 C 
ATOM      9  N   ILE A  3        4.580  -1.477  -5.876  0.00  0.00    -0.301 N 
ATOM     10  H   ILE A  3        4.547  -2.146  -6.578  0.00  0.00    +0.150 HD
ATOM     11  O   PRO A  2        3.688  -0.637  -4.027  0.00  0.00    -0.274 OA
BRANCH   9  12
ATOM     12  CA  ILE A  3        5.644  -0.470  -5.874  0.00  0.00    +0.185 C 
BRANCH  12  13
ATOM     13  C   ILE A  3        5.151   0.783  -6.551  0.00  0.00    +0.326 C 
ATOM     14  O   ILE A  3        4.016   0.830  -6.994  0.00  0.00    -0.249 OA
BRANCH  13  15
ATOM     15  OXT ILE A  3        5.887   1.750  -6.656  0.00  0.00    -0.479 OA
ATOM     16  HXT ILE A  3        6.759   1.713  -6.315  0.00  0.00    +0.295 HD
ENDBRANCH  13  15
ENDBRANCH  12  13
BRANCH  12  17
ATOM     17  CB  ILE A  3        6.860  -1.011  -6.628  0.00  0.00    +0.017 C 
ATOM     18  CG2 ILE A  3        6.499  -1.215  -8.100  0.00  0.00    +0.010 C 
BRANCH  17  19
ATOM     19  CG1 ILE A  3        8.014  -0.012  -6.519  0.00  0.00    +0.002 C 
ATOM     20  CD1 ILE A  3        9.267  -0.607  -7.165  0.00  0.00    +0.004 C 
ENDBRANCH  17  19
ENDBRANCH  12  17
ENDBRANCH   9  12
ENDBRANCH   6   8
BRANCH   1  21
ATOM     21  CA  ILE A  1        1.044  -1.977  -1.381  0.00  0.00    +0.016 C 
BRANCH  21  22
ATOM     22  N   ILE A  1        1.291  -2.811  -0.198  0.00  0.00    +0.386 N 
ATOM     23  H1  ILE A  1        1.191  -3.784  -0.445  0.00  0.00    -0.089 HD
ATOM     24  H2  ILE A  1        0.626  -2.577   0.524  0.00  0.00    -0.089 HD
ATOM     25  H3  ILE A  1        2.227  -2.645   0.141  0.00  0.00    -0.089 HD
ENDBRANCH  21  22
BRANCH  21  26
ATOM     26  CB  ILE A  1        1.196  -0.501  -1.006  0.00  0.00    -0.020 C 
ATOM     27  CG2 ILE A  1        0.846   0.371  -2.213  0.00  0.00    +0.006 C 
BRANCH  26  29
ATOM     28  CD1 ILE A  1        0.493   1.270   0.610  0.00  0.00    +0.004 C 
ATOM     29  CG1 ILE A  1        0.253  -0.170   0.153  0.00  0.00    -0.001 C 
ENDBRANCH  26  29
ENDBRANCH  21  26
ENDBRANCH   1  21
TORSDOF 10
