REMARK  Name = ZINC05086426
REMARK                            x       y       z     vdW  Elec       q    Type
REMARK                         _______ _______ _______ _____ _____    ______ ____
ROOT
ATOM      1  C   LIG    1       -6.046   1.525   0.071  0.00  0.00    +0.126 A 
ATOM      2  C   LIG    1       -4.806   0.906   0.056  0.00  0.00    +0.072 A 
ATOM      3  C   LIG    1       -3.645   1.670   0.048  0.00  0.00    +0.058 A 
ATOM      4  C   LIG    1       -3.745   3.074   0.056  0.00  0.00    +0.087 A 
ATOM      5  C   LIG    1       -2.516   3.879   0.047  0.00  0.00    +0.201 A 
ATOM      6  C   LIG    1       -1.228   3.160   0.031  0.00  0.00    +0.046 A 
ATOM      7  C   LIG    1       -0.021   3.860   0.022  0.00  0.00    +0.014 A 
ATOM      8  C   LIG    1        1.169   3.168   0.007  0.00  0.00    +0.001 A 
ATOM      9  C   LIG    1        1.171   1.780   0.000  0.00  0.00    +0.002 A 
ATOM     10  C   LIG    1       -0.013   1.076   0.008  0.00  0.00    +0.026 A 
ATOM     11  C   LIG    1       -1.229   1.756   0.017  0.00  0.00    +0.051 A 
ATOM     12  O   LIG    1       -2.559   5.097   0.054  0.00  0.00    -0.286 OA
ATOM     13  C   LIG    1       -5.005   3.691   0.071  0.00  0.00    +0.136 A 
ATOM     14  N   LIG    1       -2.414   1.050   0.032  0.00  0.00    -0.354 N 
ATOM     15  H   LIG    1       -2.378   0.050   0.030  0.00  0.00    +0.166 HD
ATOM     16  C   LIG    1       -6.147   2.912   0.078  0.00  0.00    +0.092 A 
ENDROOT
BRANCH   1  18
ATOM     17  C   LIG    1       -8.421   1.466   0.094  0.00  0.00    +0.277 C 
ATOM     18  O   LIG    1       -7.174   0.769   0.078  0.00  0.00    -0.495 OA
ENDBRANCH   1  18
BRANCH  13  19
ATOM     19  O   LIG    1       -5.102   5.044   0.079  0.00  0.00    -0.494 OA
ATOM     20  C   LIG    1       -6.418   5.600   0.095  0.00  0.00    +0.277 C 
ENDBRANCH  13  19
TORSDOF 2
