REMARK  Name = ZINC05189121
REMARK                            x       y       z     vdW  Elec       q    Type
REMARK                         _______ _______ _______ _____ _____    ______ ____
ROOT
ATOM      1  C   LIG    1        1.598  -0.131  -1.907  0.00  0.00    +0.000 C 
ATOM      2  C   LIG    1        0.231  -0.548  -1.328  0.00  0.00    +0.000 C 
ATOM      3  C   LIG    1        0.002  -0.004   0.002  0.00  0.00    +0.001 C 
ATOM      4  C   LIG    1       -0.019   1.538   0.011  0.00  0.00    +0.011 C 
ATOM      5  C   LIG    1        1.401   2.035  -0.000  0.00  0.00    +0.052 C 
ATOM      6  C   LIG    1        1.910   2.335  -1.423  0.00  0.00    +0.011 C 
ATOM      7  C   LIG    1        1.480   1.268  -2.449  0.00  0.00    +0.001 C 
ENDROOT
BRANCH   5   8
ATOM      8  C   LIG    1        1.483   3.296   0.822  0.00  0.00    +0.226 C 
ATOM      9  O   LIG    1        2.206   3.340   1.788  0.00  0.00    -0.301 OA
ENDBRANCH   5   8
TORSDOF 1
