REMARK  Name = ZINC05640267
REMARK                            x       y       z     vdW  Elec       q    Type
REMARK                         _______ _______ _______ _____ _____    ______ ____
ROOT
ATOM      1  C   LIG    1        2.470  -2.518   4.345  0.00  0.00    +0.181 A 
ATOM      2  C   LIG    1        3.206  -1.765   5.211  0.00  0.00    +0.211 A 
ATOM      3  C   LIG    1        3.949  -2.406   6.236  0.00  0.00    +0.238 A 
ATOM      4  C   LIG    1        3.879  -3.875   6.305  0.00  0.00    +0.109 A 
ATOM      5  C   LIG    1        4.580  -4.590   7.285  0.00  0.00    +0.135 A 
ATOM      6  C   LIG    1        4.489  -5.969   7.317  0.00  0.00    +0.091 A 
ATOM      7  C   LIG    1        3.707  -6.639   6.382  0.00  0.00    +0.124 A 
ATOM      8  C   LIG    1        3.012  -5.939   5.410  0.00  0.00    +0.092 A 
ATOM      9  C   LIG    1        3.090  -4.555   5.362  0.00  0.00    +0.147 A 
ATOM     10  O   LIG    1        4.618  -1.765   7.029  0.00  0.00    -0.283 OA
ATOM     11  O   LIG    1        2.413  -3.858   4.425  0.00  0.00    -0.451 OA
ENDROOT
BRANCH   1  15
ATOM     12  C   LIG    1        0.257  -0.556   1.294  0.00  0.00    +0.161 A 
ATOM     13  C   LIG    1       -0.347  -1.538   2.067  0.00  0.00    +0.050 A 
ATOM     14  C   LIG    1        0.368  -2.177   3.058  0.00  0.00    +0.015 A 
ATOM     15  C   LIG    1        1.704  -1.836   3.286  0.00  0.00    +0.025 A 
ATOM     16  C   LIG    1        2.312  -0.847   2.507  0.00  0.00    +0.060 A 
ATOM     17  C   LIG    1        1.591  -0.215   1.513  0.00  0.00    +0.159 A 
BRANCH  12  19
ATOM     18  C   LIG    1       -1.813  -0.328   0.149  0.00  0.00    +0.277 C 
ATOM     19  O   LIG    1       -0.452   0.071   0.319  0.00  0.00    -0.491 OA
ENDBRANCH  12  19
BRANCH  17  20
ATOM     20  O   LIG    1        2.181   0.745   0.750  0.00  0.00    -0.503 OA
ATOM     21  H   LIG    1        2.099   1.639   1.110  0.00  0.00    +0.292 HD
ENDBRANCH  17  20
ENDBRANCH   1  15
BRANCH   2  22
ATOM     22  O   LIG    1        3.228  -0.409   5.093  0.00  0.00    -0.488 OA
ATOM     23  C   LIG    1        2.649   0.344   6.160  0.00  0.00    +0.277 C 
ENDBRANCH   2  22
BRANCH   5  24
ATOM     24  O   LIG    1        5.343  -3.934   8.195  0.00  0.00    -0.506 OA
ATOM     25  H   LIG    1        4.868  -3.684   9.000  0.00  0.00    +0.292 HD
ENDBRANCH   5  24
BRANCH   7  26
ATOM     26  O   LIG    1        3.626  -7.994   6.423  0.00  0.00    -0.507 OA
ATOM     27  H   LIG    1        2.905  -8.328   6.975  0.00  0.00    +0.292 HD
ENDBRANCH   7  26
TORSDOF 6
