REMARK  Name = ZINC04916337
REMARK                            x       y       z     vdW  Elec       q    Type
REMARK                         _______ _______ _______ _____ _____    ______ ____
ROOT
ATOM      1  C   LIG    1        3.869   5.537  -0.005  0.00  0.00    +0.249 A 
ATOM      2  N   LIG    1        4.495   4.382  -0.017  0.00  0.00    -0.107 NA
ATOM      3  N   LIG    1        3.632   3.428  -0.014  0.00  0.00    -0.107 NA
ATOM      4  C   LIG    1        2.420   3.936   0.000  0.00  0.00    +0.249 A 
ATOM      5  O   LIG    1        2.545   5.279   0.000  0.00  0.00    -0.416 OA
ENDROOT
BRANCH   1  11
ATOM      6  C   LIG    1        7.602  10.787  -0.015  0.00  0.00    +0.001 A 
ATOM      7  C   LIG    1        8.412   9.653  -0.028  0.00  0.00    +0.001 A 
ATOM      8  C   LIG    1        7.870   8.405  -0.028  0.00  0.00    +0.008 A 
ATOM      9  C   LIG    1        6.472   8.254  -0.016  0.00  0.00    -0.017 A 
ATOM     10  C   LIG    1        5.880   6.982  -0.016  0.00  0.00    +0.021 A 
ATOM     11  C   LIG    1        4.499   6.873  -0.004  0.00  0.00    +0.039 A 
ATOM     12  C   LIG    1        3.692   8.025   0.003  0.00  0.00    +0.014 A 
ATOM     13  C   LIG    1        4.248   9.264   0.009  0.00  0.00    +0.009 A 
ATOM     14  C   LIG    1        5.647   9.408  -0.003  0.00  0.00    -0.018 A 
ATOM     15  C   LIG    1        6.245  10.679  -0.003  0.00  0.00    +0.008 A 
ENDBRANCH   1  11
BRANCH   4  16
ATOM     16  C   LIG    1        1.153   3.176   0.008  0.00  0.00    +0.040 A 
ATOM     17  C   LIG    1        1.173   1.780   0.000  0.00  0.00    +0.013 A 
ATOM     18  C   LIG    1       -0.013   1.076   0.008  0.00  0.00    +0.002 A 
ATOM     19  C   LIG    1       -1.221   1.750   0.017  0.00  0.00    +0.020 A 
ATOM     20  C   LIG    1       -1.249   3.134   0.030  0.00  0.00    +0.042 A 
ATOM     21 CL   LIG    1       -2.770   3.970   0.048  0.00  0.00    -0.084 Cl
ATOM     22  C   LIG    1       -0.069   3.851   0.022  0.00  0.00    +0.033 A 
ENDBRANCH   4  16
TORSDOF 2
