REMARK  Name = ZINC04899695
REMARK                            x       y       z     vdW  Elec       q    Type
REMARK                         _______ _______ _______ _____ _____    ______ ____
ROOT
ATOM      1  CA  VAL A  2        1.141   3.669   0.141  0.00  0.00    +0.161 C 
ENDROOT
BRANCH   1   3
ATOM      2  C   LEU A  1        0.010   1.515   0.011  0.00  0.00    +0.234 C 
ATOM      3  N   VAL A  2        1.163   2.204   0.126  0.00  0.00    -0.302 N 
ATOM      4  H   VAL A  2        2.006   1.730   0.198  0.00  0.00    +0.150 HD
ATOM      5  O   LEU A  1       -1.044   2.107  -0.084  0.00  0.00    -0.274 OA
BRANCH   2   6
ATOM      6  CA  LEU A  1        0.032   0.008  -0.005  0.00  0.00    +0.159 C 
BRANCH   6   7
ATOM      7  N   LEU A  1       -1.297  -0.503   0.341  0.00  0.00    -0.304 N 
ATOM      8  H   LEU A  1       -1.411  -1.071   1.119  0.00  0.00    +0.149 HD
ATOM      9  C   UNK A  0       -2.361  -0.185  -0.422  0.00  0.00    +0.211 C 
ATOM     10  C   UNK A  0       -3.728  -0.711  -0.067  0.00  0.00    +0.109 C 
ATOM     11  O   UNK A  0       -2.219   0.525  -1.396  0.00  0.00    -0.276 OA
ENDBRANCH   6   7
BRANCH   6  12
ATOM     12  CB  LEU A  1        0.419  -0.482  -1.401  0.00  0.00    +0.034 C 
BRANCH  12  14
ATOM     13  CD1 LEU A  1        0.758  -2.508  -2.824  0.00  0.00    +0.007 C 
ATOM     14  CG  LEU A  1        0.515  -2.009  -1.398  0.00  0.00    -0.015 C 
ATOM     15  CD2 LEU A  1        1.674  -2.446  -0.500  0.00  0.00    +0.007 C 
ENDBRANCH  12  14
ENDBRANCH   6  12
ENDBRANCH   2   6
ENDBRANCH   1   3
BRANCH   1  16
ATOM     16  C   VAL A  2        2.471   4.195  -0.333  0.00  0.00    +0.234 C 
ATOM     17  N   LYS A  3        2.684   5.524  -0.402  0.00  0.00    -0.304 N 
ATOM     18  H   LYS A  3        1.981   6.142  -0.147  0.00  0.00    +0.149 HD
ATOM     19  O   VAL A  2        3.350   3.423  -0.652  0.00  0.00    -0.274 OA
BRANCH  17  20
ATOM     20  CA  LYS A  3        3.977   6.036  -0.863  0.00  0.00    +0.136 C 
BRANCH  20  21
ATOM     21  C   LYS A  3        4.939   6.089   0.296  0.00  0.00    +0.245 C 
ATOM     22  O   LYS A  3        4.581   5.735   1.394  0.00  0.00    -0.299 OA
ENDBRANCH  20  21
BRANCH  20  23
ATOM     23  CB  LYS A  3        3.794   7.443  -1.437  0.00  0.00    +0.029 C 
BRANCH  23  24
ATOM     24  CG  LYS A  3        2.917   7.372  -2.689  0.00  0.00    +0.000 C 
BRANCH  24  25
ATOM     25  CD  LYS A  3        2.733   8.778  -3.264  0.00  0.00    -0.019 C 
BRANCH  25  26
ATOM     26  CE  LYS A  3        1.857   8.707  -4.516  0.00  0.00    -0.086 C 
BRANCH  26  27
ATOM     27  NZ  LYS A  3        1.705  10.063  -5.072  0.00  0.00    +0.378 N 
ATOM     28  HZ1 LYS A  3        2.628  10.422  -5.342  0.00  0.00    -0.090 HD
ATOM     29  HZ2 LYS A  3        1.297  10.683  -4.375  0.00  0.00    -0.090 HD
ATOM     30  HZ3 LYS A  3        1.105  10.037  -5.895  0.00  0.00    -0.090 HD
ENDBRANCH  26  27
ENDBRANCH  25  26
ENDBRANCH  24  25
ENDBRANCH  23  24
ENDBRANCH  20  23
ENDBRANCH  17  20
ENDBRANCH   1  16
BRANCH   1  31
ATOM     31  CB  VAL A  2        0.877   4.160   1.566  0.00  0.00    +0.012 C 
ATOM     32  CG2 VAL A  2        1.984   3.656   2.493  0.00  0.00    +0.009 C 
ATOM     33  CG1 VAL A  2       -0.474   3.626   2.047  0.00  0.00    +0.009 C 
ENDBRANCH   1  31
TORSDOF 14
