REMARK  Name = ZINC05784821
REMARK                            x       y       z     vdW  Elec       q    Type
REMARK                         _______ _______ _______ _____ _____    ______ ____
ROOT
ATOM      1  C   LIG    1       -1.264  -0.760   0.011  0.00  0.00    +0.181 A 
ATOM      2  C   LIG    1       -2.436  -0.076   0.124  0.00  0.00    +0.208 A 
ATOM      3  C   LIG    1       -3.663  -0.789   0.134  0.00  0.00    +0.238 A 
ATOM      4  C   LIG    1       -3.595  -2.254   0.018  0.00  0.00    +0.113 A 
ATOM      5  C   LIG    1       -2.332  -2.862  -0.095  0.00  0.00    +0.147 A 
ATOM      6  C   LIG    1       -2.246  -4.241  -0.206  0.00  0.00    +0.096 A 
ATOM      7  C   LIG    1       -3.398  -5.012  -0.205  0.00  0.00    +0.166 A 
ATOM      8  C   LIG    1       -4.652  -4.414  -0.094  0.00  0.00    +0.202 A 
ATOM      9  C   LIG    1       -4.757  -3.037   0.018  0.00  0.00    +0.177 A 
ATOM     10  O   LIG    1       -4.732  -0.209   0.234  0.00  0.00    -0.283 OA
ATOM     11  O   LIG    1       -1.218  -2.099  -0.100  0.00  0.00    -0.451 OA
ENDROOT
BRANCH   1  17
ATOM     12  C   LIG    1        0.974  -0.276  -0.965  0.00  0.00    +0.015 A 
ATOM     13  C   LIG    1        2.156   0.433  -0.971  0.00  0.00    +0.050 A 
ATOM     14  C   LIG    1        2.385   1.417  -0.019  0.00  0.00    +0.158 A 
ATOM     15  C   LIG    1        1.420   1.692   0.948  0.00  0.00    +0.159 A 
ATOM     16  C   LIG    1        0.233   0.987   0.961  0.00  0.00    +0.060 A 
ATOM     17  C   LIG    1        0.002  -0.004   0.002  0.00  0.00    +0.025 A 
BRANCH  14  18
ATOM     18  O   LIG    1        3.552   2.112  -0.030  0.00  0.00    -0.503 OA
ATOM     19  H   LIG    1        3.526   2.915  -0.568  0.00  0.00    +0.292 HD
ENDBRANCH  14  18
BRANCH  15  20
ATOM     20  O   LIG    1        1.648   2.656   1.880  0.00  0.00    -0.503 OA
ATOM     21  H   LIG    1        1.351   3.538   1.616  0.00  0.00    +0.292 HD
ENDBRANCH  15  20
ENDBRANCH   1  17
BRANCH   2  22
ATOM     22  O   LIG    1       -2.431   1.281   0.229  0.00  0.00    -0.501 OA
ATOM     23  H   LIG    1       -3.312   1.673   0.305  0.00  0.00    +0.292 HD
ENDBRANCH   2  22
BRANCH   7  24
ATOM     24  O   LIG    1       -3.304  -6.362  -0.315  0.00  0.00    -0.503 OA
ATOM     25  H   LIG    1       -3.231  -6.822   0.533  0.00  0.00    +0.292 HD
ENDBRANCH   7  24
BRANCH   8  26
ATOM     26  O   LIG    1       -5.775  -5.183  -0.095  0.00  0.00    -0.501 OA
ATOM     27  H   LIG    1       -6.053  -5.474   0.784  0.00  0.00    +0.292 HD
ENDBRANCH   8  26
BRANCH   9  28
ATOM     28  O   LIG    1       -5.977  -2.450   0.126  0.00  0.00    -0.503 OA
ATOM     29  H   LIG    1       -6.376  -2.213  -0.722  0.00  0.00    +0.292 HD
ENDBRANCH   9  28
TORSDOF 7
