REMARK  Name = ZINC05353699
REMARK                            x       y       z     vdW  Elec       q    Type
REMARK                         _______ _______ _______ _____ _____    ______ ____
ROOT
ATOM      1  C   LIG    1        0.165   7.674   0.041  0.00  0.00    +0.148 A 
ATOM      2  C   LIG    1       -0.500   6.450   0.040  0.00  0.00    +0.045 A 
ATOM      3  C   LIG    1        0.255   5.281   0.027  0.00  0.00    +0.011 A 
ATOM      4  C   LIG    1       -0.065   3.845   0.022  0.00  0.00    +0.008 A 
ATOM      5  C   LIG    1       -1.258   3.124   0.029  0.00  0.00    +0.010 A 
ATOM      6  C   LIG    1       -1.226   1.747   0.017  0.00  0.00    +0.001 A 
ATOM      7  C   LIG    1       -0.013   1.076   0.008  0.00  0.00    +0.002 A 
ATOM      8  C   LIG    1        1.174   1.775   0.000  0.00  0.00    +0.026 A 
ATOM      9  C   LIG    1        1.164   3.167   0.007  0.00  0.00    +0.048 A 
ATOM     10  N   LIG    1        2.180   4.105   0.003  0.00  0.00    -0.353 N 
ATOM     11  H   LIG    1        3.127   3.895  -0.007  0.00  0.00    +0.166 HD
ATOM     12  C   LIG    1        1.658   5.379   0.014  0.00  0.00    +0.066 A 
ATOM     13  C   LIG    1        2.240   6.647   0.015  0.00  0.00    +0.137 A 
ATOM     14  N   LIG    1        1.495   7.727   0.028  0.00  0.00    -0.246 NA
ENDROOT
BRANCH   1  15
ATOM     15  C   LIG    1       -0.616   8.929   0.055  0.00  0.00    +0.358 C 
ATOM     16  O   LIG    1       -1.830   8.889   0.067  0.00  0.00    -0.243 OA
BRANCH  15  17
ATOM     17  O   LIG    1        0.019  10.117   0.056  0.00  0.00    -0.454 OA
BRANCH  17  19
ATOM     18  C   LIG    1       -1.682  11.307   1.328  0.00  0.00    +0.055 C 
ATOM     19  C   LIG    1       -0.811  11.308   0.070  0.00  0.00    +0.106 C 
ATOM     20  C   LIG    1       -1.706  11.321  -1.170  0.00  0.00    +0.055 C 
ATOM     21  C   LIG    1        0.081  12.551   0.069  0.00  0.00    +0.055 C 
ENDBRANCH  17  19
ENDBRANCH  15  17
ENDBRANCH   1  15
TORSDOF 3
