REMARK  Name = ZINC05503291
REMARK                            x       y       z     vdW  Elec       q    Type
REMARK                         _______ _______ _______ _____ _____    ______ ____
ROOT
ATOM      1  C   LIG    1       -0.016   1.359   0.025  0.00  0.00    +0.051 A 
ATOM      2  C   LIG    1        1.138   2.103   0.034  0.00  0.00    +0.077 A 
ATOM      3  C   LIG    1        2.390   1.457   0.020  0.00  0.00    +0.190 A 
ATOM      4  C   LIG    1        2.410  -0.017  -0.005  0.00  0.00    +0.047 A 
ATOM      5  C   LIG    1        3.614  -0.722  -0.021  0.00  0.00    +0.037 A 
ATOM      6  C   LIG    1        3.595  -2.104  -0.044  0.00  0.00    +0.030 A 
ATOM      7  C   LIG    1        2.381  -2.789  -0.052  0.00  0.00    +0.025 A 
ATOM      8  C   LIG    1        1.188  -2.102  -0.037  0.00  0.00    +0.028 A 
ATOM      9  C   LIG    1        1.188  -0.710  -0.013  0.00  0.00    +0.051 A 
ATOM     10  O   LIG    1        3.429   2.099   0.028  0.00  0.00    -0.287 OA
ATOM     11  N   LIG    1        0.002  -0.004   0.002  0.00  0.00    -0.354 N 
ATOM     12  H   LIG    1       -0.838  -0.489  -0.004  0.00  0.00    +0.166 HD
ENDROOT
BRANCH   1  17
ATOM     13  C   LIG    1       -2.589   4.100   0.066  0.00  0.00    +0.121 A 
ATOM     14  C   LIG    1       -3.765   3.362   0.050  0.00  0.00    +0.045 A 
ATOM     15  C   LIG    1       -3.721   1.981   0.026  0.00  0.00    +0.004 A 
ATOM     16  C   LIG    1       -2.507   1.325   0.013  0.00  0.00    +0.010 A 
ATOM     17  C   LIG    1       -1.319   2.058   0.034  0.00  0.00    +0.002 A 
ATOM     18  C   LIG    1       -1.365   3.452   0.057  0.00  0.00    +0.055 A 
BRANCH  13  20
ATOM     19  C   LIG    1       -3.935   6.059   0.096  0.00  0.00    +0.277 C 
ATOM     20  O   LIG    1       -2.639   5.458   0.088  0.00  0.00    -0.495 OA
ENDBRANCH  13  20
ENDBRANCH   1  17
BRANCH   6  21
ATOM     21  N   LIG    1        4.798  -2.818  -0.060  0.00  0.00    -0.330 N 
ATOM     22  C   LIG    1        4.940  -3.649   1.163  0.00  0.00    +0.105 C 
ATOM     23  C   LIG    1        5.986  -4.714   0.748  0.00  0.00    +0.020 C 
ATOM     24  C   LIG    1        5.620  -5.003  -0.726  0.00  0.00    +0.020 C 
ATOM     25  C   LIG    1        4.838  -3.763  -1.197  0.00  0.00    +0.105 C 
ENDBRANCH   6  21
TORSDOF 3
