REMARK  Name = ZINC04821195
REMARK                            x       y       z     vdW  Elec       q    Type
REMARK                         _______ _______ _______ _____ _____    ______ ____
ROOT
ATOM      1  C   LIG    1        4.249   7.457  -0.243  0.00  0.00    +0.037 A 
ATOM      2  C   LIG    1        4.986   6.453  -0.879  0.00  0.00    +0.015 A 
ATOM      3  C   LIG    1        4.601   5.137  -0.758  0.00  0.00    +0.024 A 
ATOM      4  C   LIG    1        3.480   4.805  -0.003  0.00  0.00    +0.034 A 
ATOM      5  C   LIG    1        2.742   5.802   0.627  0.00  0.00    +0.024 A 
ATOM      6  C   LIG    1        3.124   7.120   0.514  0.00  0.00    +0.015 A 
ENDROOT
BRANCH   1  16
ATOM      7  C   LIG    1        4.963  13.834  -0.198  0.00  0.00    +0.000 A 
ATOM      8  C   LIG    1        5.892  12.821  -0.043  0.00  0.00    +0.002 A 
ATOM      9  C   LIG    1        5.482  11.503  -0.060  0.00  0.00    +0.024 A 
ATOM     10  C   LIG    1        4.138  11.194  -0.231  0.00  0.00    +0.040 A 
ATOM     11  C   LIG    1        3.207  12.209  -0.383  0.00  0.00    -0.026 A 
ATOM     12  C   LIG    1        1.741  11.912  -0.565  0.00  0.00    +0.038 C 
ATOM     13  C   LIG    1        1.542  10.479  -1.055  0.00  0.00    +0.024 C 
ATOM     14  C   LIG    1        2.314   9.527  -0.137  0.00  0.00    +0.114 C 
ATOM     15  N   LIG    1        3.743   9.850  -0.248  0.00  0.00    -0.267 N 
ATOM     16  C   LIG    1        4.659   8.868  -0.370  0.00  0.00    +0.251 C 
ATOM     17  O   LIG    1        5.823   9.147  -0.585  0.00  0.00    -0.270 OA
ATOM     18  C   LIG    1        3.626  13.529  -0.367  0.00  0.00    +0.005 A 
ENDBRANCH   1  16
BRANCH   4  19
ATOM     19  N   LIG    1        3.094   3.472   0.118  0.00  0.00    -0.279 N 
ATOM     20  H   LIG    1        3.233   2.858  -0.620  0.00  0.00    +0.155 HD
ATOM     21  C   LIG    1        2.526   3.036   1.260  0.00  0.00    +0.284 C 
ATOM     22  O   LIG    1        2.439   3.779   2.219  0.00  0.00    -0.266 OA
BRANCH  21  23
ATOM     23  C   LIG    1        2.012   1.665   1.346  0.00  0.00    +0.189 A 
ATOM     24  C   LIG    1        1.417   1.098   2.436  0.00  0.00    +0.054 A 
ATOM     25  C   LIG    1        1.084  -0.217   2.076  0.00  0.00    +0.042 A 
ATOM     26  C   LIG    1        1.486  -0.393   0.798  0.00  0.00    +0.196 A 
ATOM     27  O   LIG    1        2.044   0.743   0.361  0.00  0.00    -0.458 OA
ENDBRANCH  21  23
ENDBRANCH   4  19
TORSDOF 3
