REMARK  Name = ZINC05689242
REMARK                            x       y       z     vdW  Elec       q    Type
REMARK                         _______ _______ _______ _____ _____    ______ ____
ROOT
ATOM      1  C   LIG    1        0.002  -0.004   0.002  0.00  0.00    -0.065 C 
ATOM      2  C   LIG    1       -1.434  -0.540   0.013  0.00  0.00    -0.010 C 
ATOM      3  C   LIG    1       -1.389  -2.046  -0.238  0.00  0.00    +0.037 C 
ATOM      4  C   LIG    1       -0.415  -2.710   0.701  0.00  0.00    +0.001 A 
ATOM      5  C   LIG    1        0.557  -2.008   1.379  0.00  0.00    -0.042 A 
ATOM      6  C   LIG    1        1.430  -2.681   2.224  0.00  0.00    +0.007 A 
ATOM      7  C   LIG    1        1.332  -4.046   2.398  0.00  0.00    +0.049 A 
ATOM      8  C   LIG    1        0.353  -4.757   1.722  0.00  0.00    +0.159 A 
ATOM      9  C   LIG    1       -0.519  -4.087   0.873  0.00  0.00    +0.162 A 
ATOM     10  C   LIG    1        0.717  -0.516   1.251  0.00  0.00    +0.020 C 
ENDROOT
BRANCH   1  12
ATOM     11  C   LIG    1        1.346   2.010   0.000  0.00  0.00    -0.096 C 
ATOM     12  N   LIG    1       -0.030   1.473   0.034  0.00  0.00    +0.378 N 
ATOM     13  H   LIG    1       -0.486   1.778   0.903  0.00  0.00    -0.082 HD
ATOM     14  C   LIG    1       -0.802   1.987  -1.117  0.00  0.00    -0.096 C 
ENDBRANCH   1  12
BRANCH   8  15
ATOM     15  O   LIG    1        0.247  -6.102   1.889  0.00  0.00    -0.503 OA
ATOM     16  H   LIG    1        0.774  -6.619   1.263  0.00  0.00    +0.292 HD
ENDBRANCH   8  15
BRANCH   9  17
ATOM     17  O   LIG    1       -1.481  -4.781   0.208  0.00  0.00    -0.503 OA
ATOM     18  H   LIG    1       -1.201  -5.108  -0.658  0.00  0.00    +0.292 HD
ENDBRANCH   9  17
TORSDOF 3
