REMARK  Name = ZINC05218507
REMARK                            x       y       z     vdW  Elec       q    Type
REMARK                         _______ _______ _______ _____ _____    ______ ____
ROOT
ATOM      1  C   LIG    1       -2.502   1.863  -8.272  0.00  0.00    +0.044 C 
ATOM      2  C   LIG    1       -1.853   1.935  -6.914  0.00  0.00    -0.049 A 
ATOM      3  C   LIG    1       -0.570   1.450  -6.739  0.00  0.00    +0.005 A 
ATOM      4  C   LIG    1        0.044   1.528  -5.500  0.00  0.00    +0.025 A 
ATOM      5  C   LIG    1       -0.640   2.098  -4.440  0.00  0.00    +0.052 A 
ATOM      6  C   LIG    1       -1.940   2.550  -4.604  0.00  0.00    +0.050 A 
ATOM      7  N   LIG    1       -2.613   3.054  -3.493  0.00  0.00    -0.331 N 
ATOM      8  H   LIG    1       -2.871   3.989  -3.475  0.00  0.00    +0.147 HD
ATOM      9  C   LIG    1       -2.933   2.205  -2.365  0.00  0.00    +0.140 C 
ATOM     10  C   LIG    1       -1.730   1.672  -1.623  0.00  0.00    +0.037 C 
ATOM     11  C   LIG    1       -0.455   1.733  -2.041  0.00  0.00    +0.017 C 
ATOM     12  C   LIG    1        0.659   1.132  -1.200  0.00  0.00    +0.058 C 
ATOM     13  C   LIG    1        0.319   1.269   0.283  0.00  0.00    -0.023 C 
ATOM     14  C   LIG    1        0.150   2.747   0.641  0.00  0.00    +0.011 C 
ATOM     15  C   LIG    1        1.435   0.654   1.130  0.00  0.00    +0.011 C 
ATOM     16  C   LIG    1       -0.993   0.520   0.534  0.00  0.00    +0.086 C 
ATOM     17  C   LIG    1       -2.044   1.079  -0.377  0.00  0.00    +0.163 C 
ATOM     18  O   LIG    1       -3.208   1.020  -0.034  0.00  0.00    -0.292 OA
ATOM     19  N   LIG    1       -0.045   2.305  -3.202  0.00  0.00    -0.316 N 
ATOM     20  H   LIG    1        0.719   2.902  -3.163  0.00  0.00    +0.152 HD
ATOM     21  C   LIG    1       -2.545   2.486  -5.849  0.00  0.00    +0.028 A 
ENDROOT
BRANCH   9  22
ATOM     22  C   LIG    1       -3.745   1.037  -2.861  0.00  0.00    +0.031 A 
ATOM     23  C   LIG    1       -3.167   0.096  -3.696  0.00  0.00    +0.130 A 
ATOM     24  F   LIG    1       -1.875   0.226  -4.068  0.00  0.00    -0.205 F 
ATOM     25  C   LIG    1       -3.914  -0.977  -4.152  0.00  0.00    +0.039 A 
ATOM     26  C   LIG    1       -5.236  -1.109  -3.772  0.00  0.00    +0.004 A 
ATOM     27  C   LIG    1       -5.814  -0.171  -2.937  0.00  0.00    +0.020 A 
ATOM     28  C   LIG    1       -5.067   0.900  -2.477  0.00  0.00    +0.049 A 
ATOM     29 CL   LIG    1       -5.791   2.074  -1.423  0.00  0.00    -0.083 Cl
ENDBRANCH   9  22
TORSDOF 1
