REMARK  Name = ZINC04975832
REMARK                            x       y       z     vdW  Elec       q    Type
REMARK                         _______ _______ _______ _____ _____    ______ ____
ROOT
ATOM      1  C   LIG    1        2.484   5.166   0.006  0.00  0.00    +0.332 C 
ATOM      2  O   LIG    1        1.456   5.813   0.019  0.00  0.00    -0.246 OA
ENDROOT
BRANCH   1   3
ATOM      3  C   LIG    1        2.427   3.691  -0.001  0.00  0.00    +0.098 C 
ATOM      4  C   LIG    1        1.238   3.065   0.007  0.00  0.00    +0.098 C 
BRANCH   4   5
ATOM      5  C   LIG    1        1.181   1.591  -0.001  0.00  0.00    +0.330 C 
ATOM      6  O   LIG    1        2.208   0.943  -0.014  0.00  0.00    -0.246 OA
BRANCH   5   7
ATOM      7  O   LIG    1       -0.011   0.963   0.007  0.00  0.00    -0.478 OA
ATOM      8  H   LIG    1       -0.804   1.462   0.018  0.00  0.00    +0.295 HD
ENDBRANCH   5   7
ENDBRANCH   4   5
ENDBRANCH   1   3
BRANCH   1   9
ATOM      9  O   LIG    1        3.676   5.794  -0.002  0.00  0.00    -0.459 OA
BRANCH   9  11
ATOM     10  C   LIG    1        3.663   7.748   1.451  0.00  0.00    +0.052 C 
ATOM     11  C   LIG    1        3.656   7.246   0.006  0.00  0.00    +0.171 C 
ATOM     12  C   LIG    1        4.892   7.777  -0.724  0.00  0.00    +0.052 C 
ENDBRANCH   9  11
ENDBRANCH   1   9
TORSDOF 5
