REMARK  Name = ZINC05770091
REMARK                            x       y       z     vdW  Elec       q    Type
REMARK                         _______ _______ _______ _____ _____    ______ ____
ROOT
ATOM      1  C   LIG    1       -3.059  10.723  -2.915  0.00  0.00    +0.136 A 
ATOM      2  C   LIG    1       -3.256  10.393  -4.237  0.00  0.00    +0.050 A 
ATOM      3  C   LIG    1       -2.984   9.028  -4.362  0.00  0.00    +0.051 A 
ATOM      4  C   LIG    1       -2.637   8.573  -3.104  0.00  0.00    +0.147 A 
ATOM      5  O   LIG    1       -2.687   9.615  -2.249  0.00  0.00    -0.454 OA
ENDROOT
BRANCH   1  11
ATOM      6  C   LIG    1       -3.614  13.139  -3.138  0.00  0.00    +0.012 A 
ATOM      7  C   LIG    1       -3.774  14.381  -2.593  0.00  0.00    +0.015 A 
ATOM      8  C   LIG    1       -3.541  14.582  -1.229  0.00  0.00    +0.059 A 
ATOM      9  C   LIG    1       -3.149  13.509  -0.421  0.00  0.00    +0.015 A 
ATOM     10  C   LIG    1       -2.994  12.266  -0.964  0.00  0.00    +0.012 A 
ATOM     11  C   LIG    1       -3.227  12.065  -2.329  0.00  0.00    +0.017 A 
BRANCH   8  12
ATOM     12  C   LIG    1       -3.707  15.925  -0.642  0.00  0.00    +0.337 C 
ATOM     13  O   LIG    1       -3.504  16.100   0.543  0.00  0.00    -0.245 OA
BRANCH  12  14
ATOM     14  O   LIG    1       -4.084  16.958  -1.420  0.00  0.00    -0.477 OA
ATOM     15  H   LIG    1       -4.241  16.824  -2.334  0.00  0.00    +0.295 HD
ENDBRANCH  12  14
ENDBRANCH   8  12
ENDBRANCH   1  11
BRANCH   4  16
ATOM     16  C   LIG    1       -2.285   7.245  -2.771  0.00  0.00    +0.158 C 
ATOM     17  N   LIG    1       -1.969   6.939  -1.534  0.00  0.00    -0.243 NA
BRANCH  17  18
ATOM     18  C   LIG    1       -1.633   5.674  -1.218  0.00  0.00    +0.119 A 
ATOM     19  C   LIG    1       -1.267   5.141   0.025  0.00  0.00    +0.088 A 
ATOM     20  C   LIG    1       -0.958   3.772   0.104  0.00  0.00    -0.018 A 
ATOM     21  C   LIG    1       -1.038   3.057  -1.046  0.00  0.00    -0.004 A 
ATOM     22  C   LIG    1       -0.762   1.598  -1.231  0.00  0.00    +0.043 C 
ATOM     23  C   LIG    1       -0.013   1.086   0.008  0.00  0.00    +0.005 C 
ATOM     24  C   LIG    1       -0.736   1.583   1.263  0.00  0.00    +0.005 C 
ATOM     25  C   LIG    1       -0.550   3.093   1.409  0.00  0.00    +0.037 C 
ATOM     26  S   LIG    1       -1.539   4.236  -2.272  0.00  0.00    -0.073 S 
BRANCH  19  27
ATOM     27  C   LIG    1       -1.209   5.973   1.189  0.00  0.00    +0.102 C 
ATOM     28  N   LIG    1       -1.162   6.633   2.113  0.00  0.00    -0.191 NA
ENDBRANCH  19  27
ENDBRANCH  17  18
ENDBRANCH   4  16
TORSDOF 6
