REMARK  Name = ZINC05741156
REMARK                            x       y       z     vdW  Elec       q    Type
REMARK                         _______ _______ _______ _____ _____    ______ ____
ROOT
ATOM      1  C   LIG    1        4.706  -2.193   1.738  0.00  0.00    +0.135 C 
ATOM      2  S   LIG    1        6.149  -1.277   1.838  0.00  0.00    -0.019 S 
ENDROOT
BRANCH   1   3
ATOM      3  N   LIG    1        3.599  -1.649   1.195  0.00  0.00    -0.310 N 
ATOM      4  H   LIG    1        2.781  -2.168   1.139  0.00  0.00    +0.149 HD
BRANCH   3   5
ATOM      5  CA  LIG    1        3.630  -0.274   0.690  0.00  0.00    +0.212 C 
BRANCH   5   9
ATOM      6  C   LIG    1       -0.316   1.359   0.757  0.00  0.00    +0.000 A 
ATOM      7  C   LIG    1        0.763   2.143   1.121  0.00  0.00    +0.000 A 
ATOM      8  C   LIG    1        2.040   1.615   1.099  0.00  0.00    +0.006 A 
ATOM      9  C   LIG    1        2.238   0.302   0.714  0.00  0.00    -0.017 A 
ATOM     10  C   LIG    1        1.159  -0.482   0.352  0.00  0.00    +0.006 A 
ATOM     11  C   LIG    1       -0.118   0.047   0.372  0.00  0.00    +0.000 A 
ENDBRANCH   5   9
BRANCH   5  12
ATOM     12  C   LIG    1        4.151  -0.271  -0.724  0.00  0.00    +0.330 C 
ATOM     13  O   LIG    1        4.763   0.696  -1.146  0.00  0.00    -0.249 OA
BRANCH  12  14
ATOM     14  OXT LIG    1        3.959  -1.234  -1.447  0.00  0.00    -0.479 OA
ATOM     15  HXT LIG    1        3.488  -1.977  -1.123  0.00  0.00    +0.295 HD
ENDBRANCH  12  14
ENDBRANCH   5  12
ENDBRANCH   3   5
ENDBRANCH   1   3
BRANCH   1  16
ATOM     16  N   LIG    1        4.677  -3.458   2.203  0.00  0.00    -0.297 N 
ATOM     17  H   LIG    1        3.844  -3.956   2.203  0.00  0.00    +0.154 HD
BRANCH  16  18
ATOM     18  C   LIG    1        5.848  -4.053   2.685  0.00  0.00    +0.033 A 
ATOM     19  C   LIG    1        6.682  -3.350   3.545  0.00  0.00    +0.025 A 
ATOM     20  C   LIG    1        7.837  -3.941   4.019  0.00  0.00    +0.030 A 
ATOM     21  C   LIG    1        8.163  -5.230   3.639  0.00  0.00    +0.105 A 
ATOM     22  C   LIG    1        7.334  -5.932   2.784  0.00  0.00    +0.030 A 
ATOM     23  C   LIG    1        6.175  -5.349   2.310  0.00  0.00    +0.025 A 
BRANCH  21  24
ATOM     24  S   LIG    1        9.637  -5.979   4.246  0.00  0.00    +0.056 S 
ATOM     25  O   LIG    1       10.517  -4.919   4.596  0.00  0.00    -0.153 OA
ATOM     26  O   LIG    1        9.994  -6.989   3.312  0.00  0.00    -0.153 OA
BRANCH  24  27
ATOM     27  N   LIG    1        9.248  -6.755   5.656  0.00  0.00    -0.204 NA
ATOM     28  H   LIG    1        8.532  -6.415   6.215  0.00  0.00    +0.144 HD
ATOM     29  H   LIG    1        9.736  -7.550   5.923  0.00  0.00    +0.144 HD
ENDBRANCH  24  27
ENDBRANCH  21  24
ENDBRANCH  16  18
ENDBRANCH   1  16
TORSDOF 9
