REMARK  Name = ZINC05727845
REMARK                            x       y       z     vdW  Elec       q    Type
REMARK                         _______ _______ _______ _____ _____    ______ ____
ROOT
ATOM      1  N   LIG    1        4.512  -0.577   2.882  0.00  0.00    -0.194 NA
ATOM      2  H   LIG    1        5.201  -1.254   2.791  0.00  0.00    +0.148 HD
ENDROOT
BRANCH   1   3
ATOM      3  S   LIG    1        2.915  -1.015   2.867  0.00  0.00    +0.030 S 
ATOM      4  O   LIG    1        2.928  -2.429   2.732  0.00  0.00    -0.158 OA
ATOM      5  O   LIG    1        2.360  -0.403   4.024  0.00  0.00    -0.158 OA
BRANCH   3   6
ATOM      6  C   LIG    1        2.236  -0.250   1.369  0.00  0.00    +0.200 C 
BRANCH   6  16
ATOM      7  C   LIG    1       -0.019   1.526   0.010  0.00  0.00    +0.012 C 
ATOM      8  C   LIG    1        0.002  -0.004   0.002  0.00  0.00    -0.018 C 
ATOM      9  C   LIG    1        0.557  -0.556  -1.312  0.00  0.00    +0.012 C 
ATOM     10  C   LIG    1       -1.400  -0.616   0.356  0.00  0.00    +0.003 C 
ATOM     11  C   LIG    1       -1.598  -0.063   1.801  0.00  0.00    +0.005 C 
ATOM     12  C   LIG    1       -0.174  -0.040   2.404  0.00  0.00    +0.017 C 
ATOM     13  C   LIG    1       -1.009  -2.114   0.545  0.00  0.00    +0.079 C 
ATOM     14  C   LIG    1        0.397  -2.080   1.125  0.00  0.00    +0.142 C 
ATOM     15  O   LIG    1        1.089  -3.024   1.423  0.00  0.00    -0.297 OA
ATOM     16  C   LIG    1        0.749  -0.591   1.251  0.00  0.00    +0.055 C 
ENDBRANCH   6  16
ENDBRANCH   3   6
ENDBRANCH   1   3
BRANCH   1  17
ATOM     17  C   LIG    1        4.884   0.832   3.034  0.00  0.00    +0.110 C 
BRANCH  17  18
ATOM     18  C   LIG    1        6.369   0.932   3.389  0.00  0.00    +0.052 C 
BRANCH  18  19
ATOM     19  C   LIG    1        6.752   2.381   3.544  0.00  0.00    -0.046 A 
ATOM     20  C   LIG    1        7.197   3.099   2.450  0.00  0.00    +0.005 A 
ATOM     21  C   LIG    1        7.548   4.429   2.593  0.00  0.00    +0.029 A 
ATOM     22  C   LIG    1        7.453   5.040   3.829  0.00  0.00    +0.105 A 
ATOM     23  C   LIG    1        7.007   4.322   4.923  0.00  0.00    +0.029 A 
ATOM     24  C   LIG    1        6.652   2.993   4.779  0.00  0.00    +0.005 A 
BRANCH  22  25
ATOM     25  S   LIG    1        7.902   6.734   4.011  0.00  0.00    +0.056 S 
ATOM     26  O   LIG    1        8.805   7.031   2.954  0.00  0.00    -0.153 OA
ATOM     27  O   LIG    1        8.242   6.920   5.378  0.00  0.00    -0.153 OA
BRANCH  25  28
ATOM     28  N   LIG    1        6.539   7.634   3.736  0.00  0.00    -0.204 NA
ATOM     29  H   LIG    1        6.578   8.601   3.790  0.00  0.00    +0.144 HD
ATOM     30  H   LIG    1        5.702   7.193   3.522  0.00  0.00    +0.144 HD
ENDBRANCH  25  28
ENDBRANCH  22  25
ENDBRANCH  18  19
ENDBRANCH  17  18
ENDBRANCH   1  17
TORSDOF 8
