REMARK  Name = ZINC05424029
REMARK                            x       y       z     vdW  Elec       q    Type
REMARK                         _______ _______ _______ _____ _____    ______ ____
ROOT
ATOM      1  C   LIG    1       -2.143   1.058   1.278  0.00  0.00    -0.041 A 
ATOM      2  C   LIG    1       -2.594   0.262   0.241  0.00  0.00    +0.009 A 
ATOM      3  C   LIG    1       -3.891  -0.216   0.251  0.00  0.00    -0.029 A 
ATOM      4  C   LIG    1       -4.736   0.100   1.297  0.00  0.00    +0.009 A 
ATOM      5  C   LIG    1       -4.285   0.895   2.335  0.00  0.00    -0.041 A 
ATOM      6  C   LIG    1       -2.987   1.370   2.327  0.00  0.00    +0.008 A 
ENDROOT
BRANCH   3   7
ATOM      7  C   LIG    1       -4.383  -1.082  -0.880  0.00  0.00    +0.161 C 
ATOM      8  C   LIG    1       -4.620  -1.129  -2.371  0.00  0.00    +0.179 C 
ATOM      9  O   LIG    1       -4.401  -0.237  -3.162  0.00  0.00    -0.291 OA
ATOM     10  C   LIG    1       -5.167  -2.461  -2.686  0.00  0.00    +0.029 A 
ATOM     11  C   LIG    1       -5.558  -3.020  -3.906  0.00  0.00    +0.012 A 
ATOM     12  C   LIG    1       -6.051  -4.310  -3.950  0.00  0.00    +0.001 A 
ATOM     13  C   LIG    1       -6.162  -5.058  -2.791  0.00  0.00    +0.001 A 
ATOM     14  C   LIG    1       -5.781  -4.524  -1.575  0.00  0.00    +0.012 A 
ATOM     15  C   LIG    1       -6.245  -2.587  -0.668  0.00  0.00    +0.029 A 
ATOM     16  C   LIG    1       -4.813  -2.431  -0.355  0.00  0.00    +0.179 C 
ATOM     17  O   LIG    1       -4.112  -3.236   0.219  0.00  0.00    -0.291 OA
ENDBRANCH   3   7
BRANCH   1  19
ATOM     18  C   LIG    1       -0.013   1.086   0.008  0.00  0.00    +0.015 C 
ATOM     19  C   LIG    1       -0.729   1.579   1.267  0.00  0.00    -0.013 C 
ATOM     20  C   LIG    1       -0.750   3.109   1.275  0.00  0.00    +0.015 C 
ATOM     21  C   LIG    1        0.011   1.072   2.506  0.00  0.00    +0.015 C 
ENDBRANCH   1  19
BRANCH   5  22
ATOM     22  C   LIG    1       -5.207   1.240   3.475  0.00  0.00    -0.013 C 
ATOM     23  C   LIG    1       -5.372   2.759   3.556  0.00  0.00    +0.015 C 
ATOM     24  C   LIG    1       -4.612   0.722   4.786  0.00  0.00    +0.015 C 
ATOM     25  C   LIG    1       -6.572   0.591   3.242  0.00  0.00    +0.015 C 
ENDBRANCH   5  22
TORSDOF 3
