REMARK  Name = ZINC05768354
REMARK                            x       y       z     vdW  Elec       q    Type
REMARK                         _______ _______ _______ _____ _____    ______ ____
ROOT
ATOM      1  C   LIG    1       10.747  -2.423  -1.274  0.00  0.00    +0.138 C 
ATOM      2  C   LIG    1        9.276  -2.841  -1.187  0.00  0.00    +0.035 C 
ATOM      3  C   LIG    1        8.392  -1.594  -1.257  0.00  0.00    -0.075 C 
ATOM      4  N   LIG    1        8.725  -0.706  -0.123  0.00  0.00    +0.380 N 
ATOM      5  H   LIG    1        8.620  -1.230   0.753  0.00  0.00    -0.082 HD
ATOM      6  C   LIG    1       10.123  -0.239  -0.237  0.00  0.00    -0.071 C 
ATOM      7  C   LIG    1       11.059  -1.445  -0.138  0.00  0.00    +0.018 C 
ATOM      8  C   LIG    1       12.511  -0.976  -0.251  0.00  0.00    +0.010 C 
ENDROOT
BRANCH   1   9
ATOM      9  C   LIG    1       11.625  -3.641  -1.146  0.00  0.00    -0.004 A 
ATOM     10  C   LIG    1       11.315  -4.622  -0.222  0.00  0.00    +0.007 A 
ATOM     11  C   LIG    1       12.118  -5.742  -0.108  0.00  0.00    +0.000 A 
ATOM     12  C   LIG    1       13.236  -5.876  -0.910  0.00  0.00    +0.000 A 
ATOM     13  C   LIG    1       13.548  -4.892  -1.830  0.00  0.00    +0.000 A 
ATOM     14  C   LIG    1       12.742  -3.775  -1.948  0.00  0.00    +0.007 A 
ENDBRANCH   1   9
BRANCH   1  15
ATOM     15  O   LIG    1       10.993  -1.778  -2.551  0.00  0.00    -0.453 OA
BRANCH  15  16
ATOM     16  C   LIG    1       10.787  -2.513  -3.655  0.00  0.00    +0.308 C 
ATOM     17  O   LIG    1       10.411  -3.656  -3.558  0.00  0.00    -0.251 OA
BRANCH  16  19
ATOM     18  C   LIG    1       10.719  -2.952  -6.095  0.00  0.00    +0.015 C 
ATOM     19  C   LIG    1       11.026  -1.911  -5.016  0.00  0.00    +0.117 C 
ENDBRANCH  16  19
ENDBRANCH  15  16
ENDBRANCH   1  15
BRANCH   4  20
ATOM     20  C   LIG    1        7.807   0.452  -0.102  0.00  0.00    -0.078 C 
BRANCH  20  21
ATOM     21  C   LIG    1        6.369  -0.046  -0.261  0.00  0.00    -0.011 C 
BRANCH  21  22
ATOM     22  C   LIG    1        5.409   1.144  -0.212  0.00  0.00    +0.078 C 
BRANCH  22  23
ATOM     23  C   LIG    1        3.992   0.654  -0.369  0.00  0.00    +0.163 C 
ATOM     24  O   LIG    1        3.773  -0.531  -0.507  0.00  0.00    -0.292 OA
BRANCH  23  25
ATOM     25  C   LIG    1        2.877   1.612  -0.356  0.00  0.00    +0.018 A 
ATOM     26  C   LIG    1        1.561   1.160  -0.501  0.00  0.00    +0.014 A 
ATOM     27  C   LIG    1        0.520   2.062  -0.488  0.00  0.00    +0.039 A 
ATOM     28  C   LIG    1        0.775   3.417  -0.330  0.00  0.00    +0.123 A 
ATOM     29  F   LIG    1       -0.249   4.298  -0.324  0.00  0.00    -0.205 F 
ATOM     30  C   LIG    1        2.078   3.872  -0.186  0.00  0.00    +0.039 A 
ATOM     31  C   LIG    1        3.127   2.979  -0.197  0.00  0.00    +0.014 A 
ENDBRANCH  23  25
ENDBRANCH  22  23
ENDBRANCH  21  22
ENDBRANCH  20  21
ENDBRANCH   4  20
TORSDOF 9
