REMARK  Name = ZINC04899476
REMARK                            x       y       z     vdW  Elec       q    Type
REMARK                         _______ _______ _______ _____ _____    ______ ____
ROOT
ATOM      1  N   LEU A  1        2.634   3.529  -0.004  0.00  0.00    -0.302 N 
ATOM      2  H   LEU A  1        3.067   3.747  -0.844  0.00  0.00    +0.150 HD
ATOM      3  C   UNK A  0        3.319   3.625   1.153  0.00  0.00    +0.228 C 
ATOM      4  O   UNK A  0        2.777   3.352   2.203  0.00  0.00    -0.275 OA
ENDROOT
BRANCH   1   5
ATOM      5  CA  LEU A  1        1.235   3.094   0.007  0.00  0.00    +0.182 C 
BRANCH   5   6
ATOM      6  C   LEU A  1        1.177   1.588  -0.001  0.00  0.00    +0.325 C 
ATOM      7  O   LEU A  1        2.199   0.944  -0.014  0.00  0.00    -0.249 OA
BRANCH   6   8
ATOM      8  OXT LEU A  1       -0.011   0.963   0.007  0.00  0.00    -0.479 OA
ATOM      9  HXT LEU A  1       -0.804   1.462   0.018  0.00  0.00    +0.295 HD
ENDBRANCH   6   8
ENDBRANCH   5   6
BRANCH   5  10
ATOM     10  CB  LEU A  1        0.522   3.639  -1.233  0.00  0.00    +0.036 C 
BRANCH  10  12
ATOM     11  CD1 LEU A  1       -0.128   5.717  -2.458  0.00  0.00    +0.007 C 
ATOM     12  CG  LEU A  1        0.472   5.166  -1.163  0.00  0.00    -0.015 C 
ATOM     13  CD2 LEU A  1       -0.395   5.594   0.023  0.00  0.00    +0.007 C 
ENDBRANCH  10  12
ENDBRANCH   5  10
ENDBRANCH   1   5
BRANCH   3  14
ATOM     14  C   UNK A  0        4.758   4.072   1.141  0.00  0.00    +0.187 C 
BRANCH  14  15
ATOM     15  C   UNK A  0        4.850   5.454   0.547  0.00  0.00    +0.317 C 
ATOM     16  O   UNK A  0        3.850   6.018   0.172  0.00  0.00    -0.250 OA
BRANCH  15  17
ATOM     17  O   UNK A  0        6.044   6.058   0.436  0.00  0.00    -0.480 OA
ATOM     18  H   UNK A  0        6.819   5.621   0.727  0.00  0.00    +0.295 HD
ENDBRANCH  15  17
ENDBRANCH  14  15
BRANCH  14  19
ATOM     19  C   UNK A  0        5.296   4.096   2.573  0.00  0.00    +0.059 C 
BRANCH  19  20
ATOM     20  C   UNK A  0        6.767   4.423   2.552  0.00  0.00    -0.046 A 
ATOM     21  C   UNK A  0        7.700   3.407   2.470  0.00  0.00    +0.003 A 
ATOM     22  C   UNK A  0        9.049   3.707   2.446  0.00  0.00    +0.000 A 
ATOM     23  C   UNK A  0        9.465   5.024   2.514  0.00  0.00    +0.000 A 
ATOM     24  C   UNK A  0        8.532   6.040   2.601  0.00  0.00    +0.000 A 
ATOM     25  C   UNK A  0        7.183   5.739   2.620  0.00  0.00    +0.003 A 
ENDBRANCH  19  20
ENDBRANCH  14  19
ENDBRANCH   3  14
TORSDOF 10
