REMARK  Name = ZINC05644396
REMARK                            x       y       z     vdW  Elec       q    Type
REMARK                         _______ _______ _______ _____ _____    ______ ____
ROOT
ATOM      1  C   LIG    1       -2.848  -2.418   0.016  0.00  0.00    +0.131 A 
ATOM      2  C   LIG    1       -3.032  -3.798  -0.088  0.00  0.00    +0.012 A 
ATOM      3  C   LIG    1       -4.399  -4.326  -0.073  0.00  0.00    +0.018 A 
ATOM      4  C   LIG    1       -4.626  -5.713  -0.177  0.00  0.00    +0.032 A 
ATOM      5  C   LIG    1       -3.482  -6.636  -0.300  0.00  0.00    +0.194 A 
ATOM      6  C   LIG    1       -2.106  -6.102  -0.314  0.00  0.00    +0.030 A 
ATOM      7  C   LIG    1       -1.018  -6.964  -0.430  0.00  0.00    +0.012 A 
ATOM      8  C   LIG    1        0.268  -6.454  -0.443  0.00  0.00    +0.001 A 
ATOM      9  C   LIG    1        0.483  -5.091  -0.341  0.00  0.00    +0.001 A 
ATOM     10  C   LIG    1       -0.584  -4.220  -0.226  0.00  0.00    +0.009 A 
ATOM     11  O   LIG    1       -3.672  -7.834  -0.391  0.00  0.00    -0.287 OA
ATOM     12  C   LIG    1       -5.929  -6.196  -0.161  0.00  0.00    +0.012 A 
ATOM     13  C   LIG    1       -6.995  -5.314  -0.044  0.00  0.00    +0.003 A 
ATOM     14  C   LIG    1       -6.783  -3.957   0.057  0.00  0.00    +0.026 A 
ATOM     15  C   LIG    1       -5.483  -3.443   0.045  0.00  0.00    +0.050 A 
ATOM     16  N   LIG    1       -5.268  -2.086   0.146  0.00  0.00    -0.321 N 
ATOM     17  H   LIG    1       -6.032  -1.494   0.227  0.00  0.00    +0.169 HD
ATOM     18  C   LIG    1       -1.886  -4.714  -0.211  0.00  0.00    -0.005 A 
ATOM     19  C   LIG    1       -4.032  -1.560   0.142  0.00  0.00    +0.264 A 
ATOM     20  O   LIG    1       -3.892  -0.354   0.239  0.00  0.00    -0.267 OA
ENDROOT
BRANCH   1  21
ATOM     21  C   LIG    1       -1.497  -1.837   0.006  0.00  0.00    +0.345 C 
ATOM     22  O   LIG    1       -0.926  -1.609   1.055  0.00  0.00    -0.245 OA
BRANCH  21  23
ATOM     23  O   LIG    1       -0.891  -1.559  -1.165  0.00  0.00    -0.461 OA
BRANCH  23  25
ATOM     24  C   LIG    1        0.941  -0.751  -2.518  0.00  0.00    +0.048 C 
ATOM     25  C   LIG    1        0.421  -0.997  -1.100  0.00  0.00    +0.229 C 
ENDBRANCH  23  25
ENDBRANCH  21  23
ENDBRANCH   1  21
TORSDOF 3
