REMARK  Name = ZINC04959591
REMARK                            x       y       z     vdW  Elec       q    Type
REMARK                         _______ _______ _______ _____ _____    ______ ____
ROOT
ATOM      1  C   LIG    1       -0.017   1.376   0.010  0.00  0.00    +0.000 A 
ATOM      2  C   LIG    1        1.170   2.087   0.002  0.00  0.00    +0.002 A 
ATOM      3  C   LIG    1        2.373   1.412  -0.019  0.00  0.00    +0.023 A 
ATOM      4  C   LIG    1        2.394   0.020  -0.031  0.00  0.00    +0.031 A 
ATOM      5  C   LIG    1        1.208  -0.691  -0.012  0.00  0.00    -0.019 A 
ATOM      6  C   LIG    1        1.172  -2.193   0.012  0.00  0.00    +0.049 C 
ATOM      7  C   LIG    1        0.262  -2.619   1.154  0.00  0.00    -0.023 C 
ATOM      8  C   LIG    1        0.967  -2.997   2.188  0.00  0.00    -0.030 C 
ATOM      9  C   LIG    1        2.450  -2.896   1.899  0.00  0.00    +0.033 C 
ATOM     10  C   LIG    1        2.524  -2.820   0.342  0.00  0.00    +0.029 C 
ATOM     11  C   LIG    1        3.731  -2.080  -0.153  0.00  0.00    +0.106 C 
ATOM     12  N   LIG    1        3.619  -0.637  -0.068  0.00  0.00    -0.336 N 
ATOM     13  H   LIG    1        4.431  -0.107  -0.061  0.00  0.00    +0.147 HD
ATOM     14  C   LIG    1        0.002  -0.004   0.002  0.00  0.00    +0.006 A 
ENDROOT
BRANCH  11  15
ATOM     15  C   LIG    1        4.918  -2.493   0.680  0.00  0.00    -0.009 A 
ATOM     16  C   LIG    1        5.289  -1.735   1.775  0.00  0.00    +0.056 A 
ATOM     17  C   LIG    1        6.380  -2.111   2.541  0.00  0.00    +0.167 A 
ATOM     18  C   LIG    1        7.100  -3.256   2.207  0.00  0.00    +0.167 A 
ATOM     19  O   LIG    1        8.116  -3.410   3.105  0.00  0.00    -0.453 OA
ATOM     20  C   LIG    1        8.258  -2.129   3.748  0.00  0.00    +0.466 C 
ATOM     21  C   LIG    1        6.723  -4.011   1.109  0.00  0.00    +0.065 A 
ATOM     22  O   LIG    1        6.944  -1.549   3.650  0.00  0.00    -0.453 OA
ATOM     23  C   LIG    1        5.629  -3.632   0.350  0.00  0.00    +0.027 A 
ATOM     24 BR   LIG    1        5.112  -4.669  -1.144  0.00  0.00    -0.050 Br
ENDBRANCH  11  15
TORSDOF 1
