REMARK  Name = ZINC05639287
REMARK                            x       y       z     vdW  Elec       q    Type
REMARK                         _______ _______ _______ _____ _____    ______ ____
ROOT
ATOM      1  C   LIG    1       -3.353   7.980   0.073  0.00  0.00    +0.111 C 
ATOM      2  C   LIG    1       -4.374   6.872   0.077  0.00  0.00    +0.232 C 
ATOM      3  N   LIG    1       -3.973   5.585   0.067  0.00  0.00    -0.185 N 
ATOM      4  C   LIG    1       -4.861   4.412   0.069  0.00  0.00    +0.137 C 
ATOM      5  C   LIG    1       -3.884   3.220   0.049  0.00  0.00    +0.087 C 
ATOM      6  C   LIG    1       -2.518   3.868   0.045  0.00  0.00    +0.069 C 
ATOM      7  N   LIG    1       -2.650   5.149   0.053  0.00  0.00    -0.181 NA
ATOM      8  O   LIG    1       -5.558   7.138   0.089  0.00  0.00    -0.274 OA
ENDROOT
BRANCH   4   9
ATOM      9  C   LIG    1       -5.707   4.389   1.316  0.00  0.00    -0.025 A 
ATOM     10  C   LIG    1       -5.161   4.769   2.528  0.00  0.00    +0.008 A 
ATOM     11  C   LIG    1       -5.937   4.754   3.671  0.00  0.00    +0.038 A 
ATOM     12  C   LIG    1       -7.259   4.347   3.604  0.00  0.00    +0.123 A 
ATOM     13  F   LIG    1       -8.018   4.327   4.722  0.00  0.00    -0.205 F 
ATOM     14  C   LIG    1       -7.803   3.962   2.391  0.00  0.00    +0.038 A 
ATOM     15  C   LIG    1       -7.027   3.984   1.248  0.00  0.00    +0.008 A 
ENDBRANCH   4   9
BRANCH   6  16
ATOM     16  C   LIG    1       -1.233   3.145   0.030  0.00  0.00    -0.002 A 
ATOM     17  C   LIG    1       -1.216   1.748   0.017  0.00  0.00    +0.013 A 
ATOM     18  C   LIG    1       -0.013   1.076   0.008  0.00  0.00    +0.046 A 
ATOM     19  C   LIG    1        1.181   1.786   0.000  0.00  0.00    +0.120 A 
ATOM     20  C   LIG    1        1.169   3.175   0.007  0.00  0.00    +0.046 A 
ATOM     21  C   LIG    1       -0.030   3.855   0.022  0.00  0.00    +0.013 A 
BRANCH  19  22
ATOM     22  O   LIG    1        2.365   1.119  -0.015  0.00  0.00    -0.495 OA
ATOM     23  C   LIG    1        3.555   1.911  -0.022  0.00  0.00    +0.277 C 
ENDBRANCH  19  22
ENDBRANCH   6  16
TORSDOF 3
