REMARK  Name = ZINC05033955
REMARK                            x       y       z     vdW  Elec       q    Type
REMARK                         _______ _______ _______ _____ _____    ______ ____
ROOT
ATOM      1  C   LIG    1       -0.018   1.375  -0.018  0.00  0.00    +0.002 A 
ATOM      2  C   LIG    1        1.167   2.090  -0.015  0.00  0.00    +0.002 A 
ATOM      3  C   LIG    1        2.379   1.429  -0.020  0.00  0.00    +0.028 A 
ATOM      4  C   LIG    1        2.410   0.041  -0.029  0.00  0.00    +0.065 A 
ATOM      5  C   LIG    1        1.214  -0.680  -0.032  0.00  0.00    +0.065 A 
ATOM      6  N   LIG    1        1.549  -2.030  -0.041  0.00  0.00    -0.326 N 
ATOM      7  H   LIG    1        0.923  -2.771  -0.044  0.00  0.00    +0.169 HD
ATOM      8  C   LIG    1        2.905  -2.133  -0.043  0.00  0.00    +0.199 A 
ATOM      9  N   LIG    1        3.591  -3.270  -0.051  0.00  0.00    -0.143 NA
ATOM     10  N   LIG    1        3.447  -0.885  -0.036  0.00  0.00    -0.326 N 
ATOM     11  H   LIG    1        4.395  -0.677  -0.036  0.00  0.00    +0.169 HD
ATOM     12  C   LIG    1        0.001  -0.005  -0.026  0.00  0.00    +0.028 A 
ENDROOT
BRANCH   9  13
ATOM     13  C   LIG    1        4.923  -3.247  -0.165  0.00  0.00    +0.270 C 
ATOM     14  O   LIG    1        5.516  -2.182  -0.165  0.00  0.00    -0.268 OA
BRANCH  13  15
ATOM     15  C   LIG    1        5.678  -4.515  -0.291  0.00  0.00    +0.041 A 
ATOM     16  C   LIG    1        5.001  -5.735  -0.296  0.00  0.00    +0.013 A 
ATOM     17  C   LIG    1        5.710  -6.913  -0.414  0.00  0.00    +0.003 A 
ATOM     18  C   LIG    1        7.088  -6.886  -0.526  0.00  0.00    +0.032 A 
ATOM     19  C   LIG    1        7.765  -5.679  -0.521  0.00  0.00    +0.122 A 
ATOM     20  C   LIG    1        7.067  -4.494  -0.410  0.00  0.00    +0.045 A 
BRANCH  19  21
ATOM     21  N   LIG    1        9.240  -5.659  -0.640  0.00  0.00    +0.006 N 
ATOM     22  O   LIG    1        9.852  -6.697  -0.743  0.00  0.00    -0.130 OA
BRANCH  21  23
ATOM     23  O   LIG    1        9.833  -4.605  -0.636  0.00  0.00    -0.396 OA
ATOM     24  H   LIG    1        9.358  -3.801  -0.556  0.00  0.00    +0.329 HD
ENDBRANCH  21  23
ENDBRANCH  19  21
ENDBRANCH  13  15
ENDBRANCH   9  13
TORSDOF 4
