REMARK  Name = ZINC05842416
REMARK                            x       y       z     vdW  Elec       q    Type
REMARK                         _______ _______ _______ _____ _____    ______ ____
ROOT
ATOM      1  C   LIG    1       -1.186   6.199   0.047  0.00  0.00    +0.139 A 
ATOM      2  C   LIG    1       -2.409   5.602   0.055  0.00  0.00    +0.098 A 
ATOM      3  C   LIG    1       -2.497   4.190   0.049  0.00  0.00    +0.197 A 
ATOM      4  C   LIG    1       -1.234   3.433   0.032  0.00  0.00    +0.109 A 
ATOM      5  C   LIG    1       -0.023   4.147   0.025  0.00  0.00    +0.146 A 
ATOM      6  C   LIG    1        1.178   3.455   0.009  0.00  0.00    +0.096 A 
ATOM      7  C   LIG    1        1.181   2.070   0.002  0.00  0.00    +0.166 A 
ATOM      8  C   LIG    1       -0.016   1.357   0.009  0.00  0.00    +0.202 A 
ATOM      9  C   LIG    1       -1.226   2.033   0.019  0.00  0.00    +0.177 A 
ATOM     10  O   LIG    1       -3.577   3.622   0.055  0.00  0.00    -0.287 OA
ATOM     11  O   LIG    1       -0.042   5.498   0.032  0.00  0.00    -0.454 OA
ENDROOT
BRANCH   1  17
ATOM     12  C   LIG    1       -2.291   8.430   0.065  0.00  0.00    +0.015 A 
ATOM     13  C   LIG    1       -2.220   9.805   0.077  0.00  0.00    +0.046 A 
ATOM     14  C   LIG    1       -0.984  10.440   0.069  0.00  0.00    +0.117 A 
ATOM     15  C   LIG    1        0.186   9.690   0.053  0.00  0.00    +0.046 A 
ATOM     16  C   LIG    1        0.125   8.314   0.046  0.00  0.00    +0.015 A 
ATOM     17  C   LIG    1       -1.116   7.672   0.054  0.00  0.00    +0.018 A 
BRANCH  14  18
ATOM     18  O   LIG    1       -0.919  11.796   0.075  0.00  0.00    -0.507 OA
ATOM     19  H   LIG    1        0.059  12.300   0.069  0.00  0.00    +0.292 HD
ENDBRANCH  14  18
ENDBRANCH   1  17
BRANCH   7  20
ATOM     20  O   LIG    1        2.363   1.399  -0.013  0.00  0.00    -0.503 OA
ATOM     21  H   LIG    1        2.371   0.299  -0.019  0.00  0.00    +0.292 HD
ENDBRANCH   7  20
BRANCH   8  22
ATOM     22  O   LIG    1        0.002  -0.004   0.002  0.00  0.00    -0.501 OA
ATOM     23  H   LIG    1       -0.943  -0.567   0.008  0.00  0.00    +0.292 HD
ENDBRANCH   8  22
BRANCH   9  24
ATOM     24  O   LIG    1       -2.396   1.342   0.020  0.00  0.00    -0.503 OA
ATOM     25  H   LIG    1       -2.385   0.242   0.010  0.00  0.00    +0.292 HD
ENDBRANCH   9  24
TORSDOF 5
