REMARK  Name = ZINC05785242
REMARK                            x       y       z     vdW  Elec       q    Type
REMARK                         _______ _______ _______ _____ _____    ______ ____
ROOT
ATOM      1  N   LIG    1        3.517   2.418   1.350  0.00  0.00    -0.243 N 
ATOM      2  H   LIG    1        4.349   1.993   1.611  0.00  0.00    +0.265 HD
ENDROOT
BRANCH   1   5
ATOM      3  C   LIG    1        1.010  -0.271   1.340  0.00  0.00    +0.006 A 
ATOM      4  C   LIG    1        2.209   0.395   1.179  0.00  0.00    +0.042 A 
ATOM      5  C   LIG    1        2.304   1.740   1.511  0.00  0.00    +0.102 A 
ATOM      6  C   LIG    1        1.192   2.412   2.003  0.00  0.00    +0.074 A 
ATOM      7  C   LIG    1       -0.004   1.740   2.162  0.00  0.00    +0.125 A 
ATOM      8  C   LIG    1       -0.095   0.400   1.830  0.00  0.00    +0.033 A 
BRANCH   7   9
ATOM      9  N   LIG    1       -1.189   2.454   2.687  0.00  0.00    +0.006 N 
ATOM     10  O   LIG    1       -1.110   3.625   2.976  0.00  0.00    -0.130 OA
BRANCH   9  11
ATOM     11  O   LIG    1       -2.236   1.866   2.825  0.00  0.00    -0.396 OA
ATOM     12  H   LIG    1       -2.298   0.958   2.601  0.00  0.00    +0.329 HD
ENDBRANCH   9  11
ENDBRANCH   7   9
ENDBRANCH   1   5
BRANCH   1  13
ATOM     13  C   LIG    1        3.531   3.688   0.819  0.00  0.00    +0.393 C 
ATOM     14  N   LIG    1        4.642   4.366   0.782  0.00  0.00    -0.129 NA
ATOM     15  H   LIG    1        5.473   3.951   1.060  0.00  0.00    +0.306 HD
BRANCH  13  16
ATOM     16  N   LIG    1        2.367   4.243   0.328  0.00  0.00    -0.186 N 
ATOM     17  H   LIG    1        1.558   3.710   0.281  0.00  0.00    +0.271 HD
BRANCH  16  18
ATOM     18  C   LIG    1        2.355   5.555  -0.098  0.00  0.00    +0.385 C 
ATOM     19  N   LIG    1        1.226   6.133  -0.395  0.00  0.00    -0.129 NA
ATOM     20  H   LIG    1        0.389   5.665  -0.248  0.00  0.00    +0.306 HD
BRANCH  18  21
ATOM     21  N   LIG    1        3.534   6.253  -0.208  0.00  0.00    -0.289 N 
ATOM     22  H   LIG    1        3.534   7.220  -0.130  0.00  0.00    +0.255 HD
ATOM     23  H   LIG    1        4.365   5.779  -0.364  0.00  0.00    +0.255 HD
ENDBRANCH  18  21
ENDBRANCH  16  18
ENDBRANCH  13  16
ENDBRANCH   1  13
TORSDOF 7
