REMARK  Name = ZINC05212600
REMARK                            x       y       z     vdW  Elec       q    Type
REMARK                         _______ _______ _______ _____ _____    ______ ____
ROOT
ATOM      1  C   LIG    1       -2.203  -4.340  -0.000  0.00  0.00    +0.325 C 
ATOM      2  O   LIG    1       -1.057  -4.725  -0.013  0.00  0.00    -0.249 OA
ENDROOT
BRANCH   1   3
ATOM      3  C   LIG    1       -2.501  -2.863   0.011  0.00  0.00    +0.225 C 
BRANCH   3   5
ATOM      4  C   LIG    1       -1.266  -0.763   0.010  0.00  0.00    +0.245 C 
ATOM      5  N   LIG    1       -1.244  -2.111   0.003  0.00  0.00    -0.301 N 
ATOM      6  H   LIG    1       -0.397  -2.582  -0.008  0.00  0.00    +0.150 HD
ATOM      7  O   LIG    1       -2.328  -0.172   0.023  0.00  0.00    -0.270 OA
BRANCH   4  14
ATOM      8  C   LIG    1       -0.017   1.392   0.010  0.00  0.00    +0.014 A 
ATOM      9  C   LIG    1        1.169   2.095   0.002  0.00  0.00    +0.021 A 
ATOM     10  C   LIG    1        2.378   1.419  -0.013  0.00  0.00    +0.041 A 
ATOM     11 CL   LIG    1        3.868   2.310  -0.022  0.00  0.00    -0.084 Cl
ATOM     12  C   LIG    1        2.403   0.034  -0.021  0.00  0.00    +0.021 A 
ATOM     13  C   LIG    1        1.224  -0.680  -0.014  0.00  0.00    +0.014 A 
ATOM     14  C   LIG    1        0.002  -0.004   0.002  0.00  0.00    +0.037 A 
ENDBRANCH   4  14
ENDBRANCH   3   5
ENDBRANCH   1   3
BRANCH   1  15
ATOM     15  O   LIG    1       -3.209  -5.229   0.005  0.00  0.00    -0.455 OA
BRANCH  15  16
ATOM     16  C   LIG    1       -2.853  -6.613  -0.006  0.00  0.00    +0.311 C 
BRANCH  16  17
ATOM     17  C   LIG    1       -4.103  -7.453   0.001  0.00  0.00    +0.200 C 
ATOM     18  O   LIG    1       -5.193  -6.920   0.015  0.00  0.00    -0.288 OA
BRANCH  17  19
ATOM     19  C   LIG    1       -4.003  -8.918  -0.008  0.00  0.00    +0.025 A 
ATOM     20  C   LIG    1       -2.747  -9.537  -0.017  0.00  0.00    +0.015 A 
ATOM     21  C   LIG    1       -2.658 -10.910  -0.027  0.00  0.00    +0.050 A 
ATOM     22  C   LIG    1       -3.811 -11.688  -0.026  0.00  0.00    +0.162 A 
ATOM     23  C   LIG    1       -5.064 -11.080  -0.015  0.00  0.00    +0.163 A 
ATOM     24  O   LIG    1       -6.202 -11.829  -0.006  0.00  0.00    -0.485 OA
ATOM     25  C   LIG    1       -6.070 -13.202  -0.390  0.00  0.00    +0.270 C 
ATOM     26  C   LIG    1       -4.856 -13.791   0.342  0.00  0.00    +0.270 C 
ATOM     27  O   LIG    1       -3.697 -13.043  -0.040  0.00  0.00    -0.485 OA
ATOM     28  C   LIG    1       -5.163  -9.702  -0.001  0.00  0.00    +0.061 A 
ENDBRANCH  17  19
ENDBRANCH  16  17
ENDBRANCH  15  16
ENDBRANCH   1  15
TORSDOF 7
