REMARK  Name = ZINC05557532
REMARK                            x       y       z     vdW  Elec       q    Type
REMARK                         _______ _______ _______ _____ _____    ______ ____
ROOT
ATOM      1  C   LIG    1        0.911  -2.116  -0.020  0.00  0.00    -0.010 A 
ATOM      2  C   LIG    1       -0.425  -2.220  -0.008  0.00  0.00    +0.028 A 
ATOM      3  C   LIG    1       -1.192  -3.518  -0.010  0.00  0.00    +0.064 C 
ATOM      4  N   LIG    1       -0.992  -0.969   0.006  0.00  0.00    -0.280 N 
ATOM      5  C   LIG    1       -2.316  -0.717   0.020  0.00  0.00    +0.263 C 
ATOM      6  O   LIG    1       -2.906  -0.507  -1.021  0.00  0.00    -0.267 OA
ATOM      7  C   LIG    1        0.003  -0.006   0.004  0.00  0.00    +0.057 A 
ATOM      8  C   LIG    1       -0.015   1.383   0.014  0.00  0.00    +0.030 A 
ATOM      9  C   LIG    1        1.170   2.087   0.008  0.00  0.00    +0.048 A 
ATOM     10  C   LIG    1        2.390   1.419  -0.008  0.00  0.00    +0.121 A 
ATOM     11  C   LIG    1        2.428   0.037  -0.019  0.00  0.00    +0.056 A 
ATOM     12  C   LIG    1        1.234  -0.685  -0.013  0.00  0.00    +0.008 A 
ENDROOT
BRANCH   5  13
ATOM     13  C   LIG    1       -3.050  -0.696   1.302  0.00  0.00    +0.040 A 
ATOM     14  C   LIG    1       -2.360  -0.837   2.507  0.00  0.00    +0.015 A 
ATOM     15  C   LIG    1       -3.050  -0.811   3.701  0.00  0.00    +0.021 A 
ATOM     16  C   LIG    1       -4.426  -0.656   3.705  0.00  0.00    +0.041 A 
ATOM     17 CL   LIG    1       -5.289  -0.631   5.211  0.00  0.00    -0.084 Cl
ATOM     18  C   LIG    1       -5.117  -0.521   2.512  0.00  0.00    +0.021 A 
ATOM     19  C   LIG    1       -4.438  -0.540   1.312  0.00  0.00    +0.015 A 
ENDBRANCH   5  13
BRANCH  10  20
ATOM     20  O   LIG    1        3.551   2.128  -0.014  0.00  0.00    -0.495 OA
ATOM     21  C   LIG    1        3.441   3.552  -0.003  0.00  0.00    +0.277 C 
ENDBRANCH  10  20
BRANCH   1  22
ATOM     22  C   LIG    1        1.897  -3.255  -0.037  0.00  0.00    +0.133 C 
BRANCH  22  25
ATOM     23  N   LIG    1        3.110  -4.648   1.608  0.00  0.00    -0.312 N 
ATOM     24  H   LIG    1        3.515  -5.120   0.864  0.00  0.00    +0.149 HD
ATOM     25  C   LIG    1        2.240  -3.645   1.377  0.00  0.00    +0.218 C 
ATOM     26  O   LIG    1        1.733  -3.056   2.308  0.00  0.00    -0.275 OA
BRANCH  23  27
ATOM     27  C   LIG    1        3.443  -5.027   2.983  0.00  0.00    +0.070 C 
ATOM     28  C   LIG    1        2.395  -6.011   3.509  0.00  0.00    +0.028 C 
BRANCH  27  30
ATOM     29  C   LIG    1        5.886  -4.668   2.603  0.00  0.00    +0.005 C 
ATOM     30  C   LIG    1        4.822  -5.689   3.010  0.00  0.00    +0.018 C 
ENDBRANCH  27  30
ENDBRANCH  23  27
ENDBRANCH  22  25
ENDBRANCH   1  22
TORSDOF 6
