REMARK  Name = ZINC05765089
REMARK                            x       y       z     vdW  Elec       q    Type
REMARK                         _______ _______ _______ _____ _____    ______ ____
ROOT
ATOM      1  C   LIG    1       -0.018   1.503   0.010  0.00  0.00    +0.045 C 
ATOM      2  C   LIG    1        0.002  -0.004   0.002  0.00  0.00    -0.033 A 
ATOM      3  C   LIG    1       -0.097  -0.677  -1.172  0.00  0.00    +0.055 A 
ATOM      4  C   LIG    1       -0.078  -2.086  -1.187  0.00  0.00    +0.183 A 
ATOM      5  C   LIG    1        0.043  -2.803   0.009  0.00  0.00    +0.097 A 
ATOM      6  C   LIG    1        0.144  -2.126   1.208  0.00  0.00    +0.143 A 
ATOM      7  O   LIG    1        0.261  -2.814   2.364  0.00  0.00    -0.454 OA
ATOM      8  C   LIG    1        0.362  -2.187   3.555  0.00  0.00    +0.146 A 
ATOM      9  C   LIG    1        0.482  -2.926   4.721  0.00  0.00    +0.092 A 
ATOM     10  C   LIG    1        0.586  -2.284   5.947  0.00  0.00    +0.124 A 
ATOM     11  C   LIG    1        0.573  -0.894   6.024  0.00  0.00    +0.091 A 
ATOM     12  C   LIG    1        0.455  -0.137   4.876  0.00  0.00    +0.135 A 
ATOM     13  C   LIG    1        0.348  -0.779   3.626  0.00  0.00    +0.101 A 
ATOM     14  C   LIG    1        0.227  -0.021   2.438  0.00  0.00    +0.142 A 
ATOM     15  O   LIG    1       -0.168  -2.686  -2.252  0.00  0.00    -0.288 OA
ATOM     16  C   LIG    1        0.129  -0.713   1.212  0.00  0.00    +0.063 A 
ENDROOT
BRANCH  10  17
ATOM     17  O   LIG    1        0.702  -3.018   7.081  0.00  0.00    -0.507 OA
ATOM     18  H   LIG    1        1.615  -3.219   7.329  0.00  0.00    +0.292 HD
ENDBRANCH  10  17
BRANCH  12  19
ATOM     19  O   LIG    1        0.441   1.217   4.951  0.00  0.00    -0.506 OA
ATOM     20  H   LIG    1        1.317   1.623   4.891  0.00  0.00    +0.292 HD
ENDBRANCH  12  19
BRANCH  14  21
ATOM     21  O   LIG    1        0.210   1.326   2.475  0.00  0.00    -0.505 OA
ATOM     22  H   LIG    1        0.276   1.773   3.296  0.00  0.00    +0.292 HD
ENDBRANCH  14  21
TORSDOF 3
