REMARK  Name = ZINC05735105
REMARK                            x       y       z     vdW  Elec       q    Type
REMARK                         _______ _______ _______ _____ _____    ______ ____
ROOT
ATOM      1  C   LIG    1        0.837   3.516   0.013  0.00  0.00    -0.021 A 
ATOM      2  C   LIG    1       -0.503   3.581   0.025  0.00  0.00    +0.087 A 
ATOM      3  N   LIG    1       -1.032   2.320   0.019  0.00  0.00    -0.360 N 
ATOM      4  C   LIG    1       -0.017   1.386   0.010  0.00  0.00    +0.047 A 
ATOM      5  C   LIG    1        0.002  -0.004   0.002  0.00  0.00    +0.030 A 
ATOM      6  C   LIG    1        1.204  -0.676  -0.013  0.00  0.00    +0.047 A 
ATOM      7  C   LIG    1        2.408   0.023  -0.021  0.00  0.00    +0.121 A 
ATOM      8  C   LIG    1        2.410   1.404  -0.013  0.00  0.00    +0.056 A 
ATOM      9  H   LIG    1       -1.980   2.112   0.021  0.00  0.00    +0.165 HD
ATOM     10  C   LIG    1        1.198   2.096   0.002  0.00  0.00    +0.006 A 
ENDROOT
BRANCH   1  12
ATOM     11  C   LIG    1        1.544   5.540  -1.233  0.00  0.00    +0.010 C 
ATOM     12  C   LIG    1        1.791   4.683   0.009  0.00  0.00    +0.000 C 
BRANCH  12  13
ATOM     13  C   LIG    1        1.568   5.528   1.265  0.00  0.00    -0.079 C 
BRANCH  13  14
ATOM     14  N   LIG    1        2.569   6.608   1.302  0.00  0.00    +0.379 N 
ATOM     15  H   LIG    1        2.447   7.210   0.479  0.00  0.00    -0.090 HD
ATOM     16  H   LIG    1        3.509   6.213   1.289  0.00  0.00    -0.090 HD
ATOM     17  H   LIG    1        2.449   7.168   2.144  0.00  0.00    -0.090 HD
ENDBRANCH  13  14
ENDBRANCH  12  13
ENDBRANCH   1  12
BRANCH   7  18
ATOM     18  O   LIG    1        3.586  -0.656  -0.035  0.00  0.00    -0.495 OA
ATOM     19  C   LIG    1        3.512  -2.083  -0.042  0.00  0.00    +0.277 C 
ENDBRANCH   7  18
TORSDOF 4
