REMARK  Name = ZINC05854400
REMARK                            x       y       z     vdW  Elec       q    Type
REMARK                         _______ _______ _______ _____ _____    ______ ____
ROOT
ATOM      1  C   LIG    1       -0.797   4.121   3.732  0.00  0.00    +0.040 A 
ATOM      2  C   LIG    1       -0.548   3.222   2.700  0.00  0.00    +0.131 A 
ATOM      3  C   LIG    1        0.207   3.599   1.601  0.00  0.00    +0.041 A 
ATOM      4  C   LIG    1        0.719   4.886   1.512  0.00  0.00    +0.150 A 
ATOM      5  C   LIG    1        0.464   5.796   2.551  0.00  0.00    +0.107 A 
ATOM      6  C   LIG    1        1.009   7.160   2.451  0.00  0.00    +0.207 A 
ATOM      7  C   LIG    1        1.796   7.475   1.243  0.00  0.00    +0.110 A 
ATOM      8  C   LIG    1        2.354   8.747   1.062  0.00  0.00    +0.131 A 
ATOM      9  C   LIG    1        3.088   9.014  -0.080  0.00  0.00    +0.050 A 
ATOM     10  C   LIG    1        3.270   8.029  -1.036  0.00  0.00    +0.053 A 
ATOM     11  C   LIG    1        2.724   6.770  -0.867  0.00  0.00    +0.160 A 
ATOM     12  C   LIG    1        1.980   6.477   0.275  0.00  0.00    +0.184 A 
ATOM     13  O   LIG    1        0.819   7.990   3.322  0.00  0.00    -0.286 OA
ATOM     14  O   LIG    1        1.450   5.246   0.437  0.00  0.00    -0.450 OA
ATOM     15  C   LIG    1       -0.297   5.408   3.663  0.00  0.00    +0.138 A 
ENDROOT
BRANCH   2  16
ATOM     16  O   LIG    1       -1.047   1.962   2.773  0.00  0.00    -0.506 OA
ATOM     17  H   LIG    1       -0.854   1.246   1.960  0.00  0.00    +0.292 HD
ENDBRANCH   2  16
BRANCH   8  18
ATOM     18  O   LIG    1        2.174   9.711   2.000  0.00  0.00    -0.506 OA
ATOM     19  H   LIG    1        2.614  10.709   1.854  0.00  0.00    +0.292 HD
ENDBRANCH   8  18
BRANCH  11  20
ATOM     20  O   LIG    1        2.913   5.814  -1.817  0.00  0.00    -0.503 OA
ATOM     21  H   LIG    1        2.480   4.812  -1.683  0.00  0.00    +0.292 HD
ENDBRANCH  11  20
BRANCH  15  22
ATOM     22  O   LIG    1       -0.541   6.290   4.665  0.00  0.00    -0.506 OA
ATOM     23  H   LIG    1       -0.141   7.313   4.607  0.00  0.00    +0.292 HD
ENDBRANCH  15  22
BRANCH   1  24
ATOM     24  C   LIG    1       -1.616   3.694   4.922  0.00  0.00    +0.069 C 
BRANCH  24  28
ATOM     25  C   LIG    1       -3.509   1.609   5.067  0.00  0.00    +0.038 C 
ATOM     26  C   LIG    1       -3.958   3.018   4.781  0.00  0.00    -0.079 C 
ATOM     27  C   LIG    1       -5.426   3.327   4.637  0.00  0.00    +0.038 C 
ATOM     28  C   LIG    1       -3.073   3.976   4.657  0.00  0.00    -0.023 C 
ENDBRANCH  24  28
ENDBRANCH   1  24
BRANCH   3  29
ATOM     29  C   LIG    1        0.470   2.608   0.496  0.00  0.00    +0.069 C 
BRANCH  29  30
ATOM     30  C   LIG    1        1.741   1.854   0.788  0.00  0.00    -0.023 C 
ATOM     31  C   LIG    1        1.721   0.547   0.877  0.00  0.00    -0.079 C 
ATOM     32  C   LIG    1        0.425  -0.201   0.703  0.00  0.00    +0.038 C 
ATOM     33  C   LIG    1        2.996  -0.209   1.154  0.00  0.00    +0.038 C 
ENDBRANCH  29  30
ENDBRANCH   3  29
TORSDOF 8
