REMARK  Name = ZINC05646855
REMARK                            x       y       z     vdW  Elec       q    Type
REMARK                         _______ _______ _______ _____ _____    ______ ____
ROOT
ATOM      1  C   LIG    1        3.899  -1.324   0.224  0.00  0.00    +0.024 A 
ATOM      2  C   LIG    1        4.182  -2.302  -0.760  0.00  0.00    +0.072 A 
ATOM      3  C   LIG    1        3.618  -2.691  -1.966  0.00  0.00    +0.132 A 
ATOM      4  N   LIG    1        4.356  -3.705  -2.451  0.00  0.00    -0.261 N 
ATOM      5  H   LIG    1        4.185  -4.169  -3.286  0.00  0.00    +0.190 HD
ATOM      6  N   LIG    1        5.408  -3.991  -1.574  0.00  0.00    -0.150 NA
ATOM      7  C   LIG    1        5.349  -3.175  -0.540  0.00  0.00    +0.205 A 
ATOM      8  N   LIG    1        6.079  -3.001   0.573  0.00  0.00    -0.127 NA
ATOM      9  N   LIG    1        5.786  -2.101   1.440  0.00  0.00    -0.147 NA
ATOM     10  C   LIG    1        4.758  -1.262   1.328  0.00  0.00    +0.102 A 
ENDROOT
BRANCH   1  14
ATOM     11  C   LIG    1        0.596   1.319  -0.166  0.00  0.00    +0.000 A 
ATOM     12  C   LIG    1        1.886   1.807  -0.283  0.00  0.00    +0.001 A 
ATOM     13  C   LIG    1        2.963   0.954  -0.158  0.00  0.00    +0.008 A 
ATOM     14  C   LIG    1        2.749  -0.404   0.089  0.00  0.00    -0.015 A 
ATOM     15  C   LIG    1        1.446  -0.888   0.206  0.00  0.00    +0.008 A 
ATOM     16  C   LIG    1        0.378  -0.025   0.078  0.00  0.00    +0.001 A 
ENDBRANCH   1  14
BRANCH  10  17
ATOM     17  C   LIG    1        4.516  -0.255   2.387  0.00  0.00    +0.003 A 
ATOM     18  C   LIG    1        3.225  -0.043   2.870  0.00  0.00    +0.010 A 
ATOM     19  C   LIG    1        3.006   0.896   3.857  0.00  0.00    +0.001 A 
ATOM     20  C   LIG    1        4.064   1.627   4.367  0.00  0.00    +0.000 A 
ATOM     21  C   LIG    1        5.347   1.422   3.891  0.00  0.00    +0.001 A 
ATOM     22  C   LIG    1        5.579   0.482   2.909  0.00  0.00    +0.010 A 
ENDBRANCH  10  17
BRANCH   3  23
ATOM     23  N   LIG    1        2.495  -2.136  -2.563  0.00  0.00    -0.255 N 
ATOM     24  H   LIG    1        2.028  -1.403  -2.132  0.00  0.00    +0.158 HD
BRANCH  23  25
ATOM     25  C   LIG    1        2.045  -2.624  -3.765  0.00  0.00    +0.263 C 
ATOM     26  N   LIG    1        0.984  -2.099  -4.329  0.00  0.00    -0.313 N 
ATOM     27  H   LIG    1        0.582  -1.300  -3.956  0.00  0.00    +0.170 HD
BRANCH  26  28
ATOM     28  C   LIG    1        0.444  -2.681  -5.446  0.00  0.00    +0.043 A 
ATOM     29  C   LIG    1        0.307  -4.068  -5.517  0.00  0.00    +0.026 A 
ATOM     30  C   LIG    1       -0.238  -4.647  -6.645  0.00  0.00    +0.002 A 
ATOM     31  C   LIG    1       -0.647  -3.856  -7.704  0.00  0.00    +0.000 A 
ATOM     32  C   LIG    1       -0.514  -2.480  -7.639  0.00  0.00    +0.002 A 
ATOM     33  C   LIG    1        0.023  -1.888  -6.515  0.00  0.00    +0.026 A 
ENDBRANCH  26  28
BRANCH  25  34
ATOM     34  O   LIG    1        2.694  -3.644  -4.366  0.00  0.00    -0.483 OA
ATOM     35  H   LIG    1        2.352  -3.867  -5.242  0.00  0.00    +0.295 HD
ENDBRANCH  25  34
ENDBRANCH  23  25
ENDBRANCH   3  23
TORSDOF 6
