REMARK  Name = ZINC04844400
REMARK                            x       y       z     vdW  Elec       q    Type
REMARK                         _______ _______ _______ _____ _____    ______ ____
ROOT
ATOM      1  N   LIG    1        4.908  -2.667  -0.058  0.00  0.00    -0.299 N 
ATOM      2  H   LIG    1        4.960  -3.567  -0.414  0.00  0.00    +0.154 HD
ENDROOT
BRANCH   1   8
ATOM      3  C   LIG    1       -0.016   1.356  -0.182  0.00  0.00    +0.001 A 
ATOM      4  C   LIG    1        1.163   2.077  -0.363  0.00  0.00    +0.001 A 
ATOM      5  C   LIG    1        2.371   1.451  -0.378  0.00  0.00    +0.008 A 
ATOM      6  C   LIG    1        2.435   0.057  -0.209  0.00  0.00    -0.016 A 
ATOM      7  C   LIG    1        3.664  -0.621  -0.218  0.00  0.00    +0.031 A 
ATOM      8  C   LIG    1        3.686  -1.988  -0.048  0.00  0.00    +0.033 A 
ATOM      9  C   LIG    1        2.497  -2.704   0.133  0.00  0.00    +0.024 A 
ATOM     10  C   LIG    1        1.295  -2.071   0.146  0.00  0.00    +0.010 A 
ATOM     11  C   LIG    1        1.236  -0.676  -0.024  0.00  0.00    -0.018 A 
ATOM     12  C   LIG    1        0.007   0.006  -0.014  0.00  0.00    +0.008 A 
ENDBRANCH   1   8
BRANCH   1  13
ATOM     13  C   LIG    1        6.042  -2.054   0.440  0.00  0.00    +0.137 A 
ATOM     14  C   LIG    1        7.303  -2.674   0.334  0.00  0.00    +0.078 A 
ATOM     15  C   LIG    1        7.767  -3.892  -0.207  0.00  0.00    +0.147 A 
ATOM     16  N   LIG    1        9.056  -3.959  -0.027  0.00  0.00    -0.180 NA
ATOM     17  N   LIG    1        9.501  -2.805   0.630  0.00  0.00    -0.260 N 
ATOM     18  H   LIG    1       10.418  -2.611   0.880  0.00  0.00    +0.191 HD
ATOM     19  C   LIG    1        8.423  -2.002   0.859  0.00  0.00    +0.161 A 
ATOM     20  N   LIG    1        8.248  -0.812   1.433  0.00  0.00    -0.216 NA
ATOM     21  C   LIG    1        7.051  -0.274   1.509  0.00  0.00    +0.225 A 
ATOM     22  N   LIG    1        5.972  -0.864   1.026  0.00  0.00    -0.220 NA
ENDBRANCH   1  13
TORSDOF 2
