REMARK  Name = ZINC04902270
REMARK                            x       y       z     vdW  Elec       q    Type
REMARK                         _______ _______ _______ _____ _____    ______ ____
ROOT
ATOM      1  C   LIG    1        0.236  -5.418   1.163  0.00  0.00    +0.176 C 
ATOM      2  N   LIG    1       -0.576  -5.265   2.169  0.00  0.00    -0.187 NA
ENDROOT
BRANCH   1   6
ATOM      3  C   LIG    1        1.165  -2.154  -0.087  0.00  0.00    +0.137 A 
ATOM      4  C   LIG    1        1.875  -2.929  -0.955  0.00  0.00    +0.050 A 
ATOM      5  C   LIG    1        1.633  -4.265  -0.606  0.00  0.00    +0.051 A 
ATOM      6  C   LIG    1        0.769  -4.245   0.467  0.00  0.00    +0.148 A 
ATOM      7  O   LIG    1        0.500  -2.958   0.765  0.00  0.00    -0.454 OA
BRANCH   3  13
ATOM      8  C   LIG    1       -0.125   1.371  -0.056  0.00  0.00    +0.001 A 
ATOM      9  C   LIG    1        1.056   2.091  -0.080  0.00  0.00    +0.001 A 
ATOM     10  C   LIG    1        2.274   1.435  -0.107  0.00  0.00    +0.021 A 
ATOM     11  C   LIG    1        2.318   0.055  -0.109  0.00  0.00    +0.052 A 
ATOM     12 CL   LIG    1        3.846  -0.768  -0.142  0.00  0.00    -0.083 Cl
ATOM     13  C   LIG    1        1.128  -0.678  -0.084  0.00  0.00    +0.036 A 
ATOM     14  C   LIG    1       -0.098  -0.008  -0.058  0.00  0.00    +0.013 A 
ENDBRANCH   3  13
ENDBRANCH   1   6
BRANCH   2  15
ATOM     15  N   LIG    1       -1.086  -6.387   2.835  0.00  0.00    -0.237 N 
ATOM     16  H   LIG    1       -0.834  -7.278   2.547  0.00  0.00    +0.174 HD
BRANCH  15  17
ATOM     17  C   LIG    1       -1.951  -6.224   3.906  0.00  0.00    +0.062 A 
ATOM     18  C   LIG    1       -2.227  -4.952   4.395  0.00  0.00    +0.025 A 
ATOM     19  C   LIG    1       -3.092  -4.792   5.456  0.00  0.00    +0.002 A 
ATOM     20  C   LIG    1       -3.685  -5.895   6.052  0.00  0.00    +0.001 A 
ATOM     21  C   LIG    1       -3.421  -7.164   5.586  0.00  0.00    +0.017 A 
ATOM     22  C   LIG    1       -2.550  -7.344   4.508  0.00  0.00    +0.081 A 
BRANCH  22  23
ATOM     23  C   LIG    1       -2.263  -8.698   4.005  0.00  0.00    +0.339 C 
ATOM     24  O   LIG    1       -1.428  -8.859   3.136  0.00  0.00    -0.245 OA
BRANCH  23  25
ATOM     25  O   LIG    1       -2.925  -9.758   4.508  0.00  0.00    -0.477 OA
ATOM     26  H   LIG    1       -3.569  -9.634   5.177  0.00  0.00    +0.295 HD
ENDBRANCH  23  25
ENDBRANCH  22  23
ENDBRANCH  15  17
ENDBRANCH   2  15
TORSDOF 6
