REMARK  Name = ZINC04983926
REMARK                            x       y       z     vdW  Elec       q    Type
REMARK                         _______ _______ _______ _____ _____    ______ ____
ROOT
ATOM      1  C   LIG    1       -0.013   1.086   0.008  0.00  0.00    +0.043 C 
ATOM      2  C   LIG    1       -0.729   1.579   1.267  0.00  0.00    +0.150 C 
ATOM      3  C   LIG    1        0.014   1.070   2.476  0.00  0.00    +0.039 C 
ATOM      4  C   LIG    1       -0.574   0.316   3.428  0.00  0.00    +0.052 C 
ATOM      5  C   LIG    1        0.178  -0.147   4.608  0.00  0.00    +0.194 C 
ATOM      6  C   LIG    1        1.607   0.195   4.758  0.00  0.00    +0.036 A 
ATOM      7  C   LIG    1        2.335  -0.235   5.859  0.00  0.00    +0.012 A 
ATOM      8  C   LIG    1        3.679   0.099   5.975  0.00  0.00    +0.004 A 
ATOM      9  C   LIG    1        4.298   0.856   5.004  0.00  0.00    +0.046 A 
ATOM     10  C   LIG    1        3.583   1.298   3.890  0.00  0.00    +0.128 A 
ATOM     11  C   LIG    1        2.231   0.970   3.763  0.00  0.00    +0.074 A 
ATOM     12  O   LIG    1       -0.379  -0.812   5.459  0.00  0.00    -0.287 OA
ATOM     13  C   LIG    1       -2.005  -0.036   3.250  0.00  0.00    +0.240 C 
ATOM     14  C   LIG    1       -2.677   1.157   2.505  0.00  0.00    +0.175 C 
ATOM     15  C   LIG    1       -4.133   0.688   2.632  0.00  0.00    +0.156 C 
ATOM     16  C   LIG    1       -4.131   0.084   4.038  0.00  0.00    +0.310 C 
ATOM     17  O   LIG    1       -5.106  -0.070   4.736  0.00  0.00    -0.251 OA
ATOM     18  O   LIG    1       -2.863  -0.235   4.378  0.00  0.00    -0.454 OA
ATOM     19  C   LIG    1        1.447   1.424   2.604  0.00  0.00    +0.196 C 
ATOM     20  O   LIG    1        1.980   2.097   1.743  0.00  0.00    -0.287 OA
ATOM     21  O   LIG    1       -2.096   1.151   1.215  0.00  0.00    -0.364 OA
ENDROOT
BRANCH  10  22
ATOM     22  O   LIG    1        4.196   2.043   2.939  0.00  0.00    -0.506 OA
ATOM     23  H   LIG    1        4.594   1.522   2.228  0.00  0.00    +0.292 HD
ENDBRANCH  10  22
TORSDOF 1
