REMARK  Name = ZINC05114634
REMARK                            x       y       z     vdW  Elec       q    Type
REMARK                         _______ _______ _______ _____ _____    ______ ____
ROOT
ATOM      1  C   LIG    1       -2.146   1.019   1.297  0.00  0.00    +0.116 C 
ENDROOT
BRANCH   1   2
ATOM      2  N   LIG    1       -2.934   1.476   0.150  0.00  0.00    -0.331 N 
ATOM      3  C   LIG    1       -3.472   0.690  -0.812  0.00  0.00    +0.120 A 
ATOM      4  C   LIG    1       -4.122   1.518  -1.681  0.00  0.00    +0.143 A 
ATOM      5  N   LIG    1       -3.960   2.789  -1.234  0.00  0.00    -0.231 NA
ATOM      6  C   LIG    1       -3.251   2.764  -0.142  0.00  0.00    +0.200 A 
BRANCH   4   7
ATOM      7  C   LIG    1       -4.862   1.107  -2.887  0.00  0.00    +0.261 C 
ATOM      8  N   LIG    1       -5.456   2.035  -3.662  0.00  0.00    -0.324 N 
ATOM      9  H   LIG    1       -5.943   1.765  -4.456  0.00  0.00    +0.145 HD
ATOM     10  H   LIG    1       -5.397   2.974  -3.426  0.00  0.00    +0.145 HD
ATOM     11  O   LIG    1       -4.936  -0.070  -3.183  0.00  0.00    -0.269 OA
ENDBRANCH   4   7
ENDBRANCH   1   2
BRANCH   1  12
ATOM     12  C   LIG    1       -0.751   1.647   1.240  0.00  0.00    +0.134 C 
ATOM     13  C   LIG    1       -0.036   1.187  -0.032  0.00  0.00    +0.040 C 
BRANCH  12  14
ATOM     14  O   LIG    1        0.002   1.238   2.384  0.00  0.00    -0.390 OA
ATOM     15  H   LIG    1        0.122   0.281   2.454  0.00  0.00    +0.210 HD
ENDBRANCH  12  14
ENDBRANCH   1  12
BRANCH   1  16
ATOM     16  C   LIG    1       -2.841   1.438   2.594  0.00  0.00    +0.028 C 
BRANCH  16  17
ATOM     17  C   LIG    1       -4.179   0.705   2.715  0.00  0.00    +0.002 C 
BRANCH  17  18
ATOM     18  C   LIG    1       -4.912   1.187   3.968  0.00  0.00    +0.000 C 
BRANCH  18  19
ATOM     19  C   LIG    1       -6.250   0.453   4.090  0.00  0.00    -0.000 C 
BRANCH  19  21
ATOM     20  C   LIG    1       -8.321   0.202   5.464  0.00  0.00    +0.004 C 
ATOM     21  C   LIG    1       -6.984   0.935   5.343  0.00  0.00    -0.003 C 
ENDBRANCH  19  21
ENDBRANCH  18  19
ENDBRANCH  17  18
ENDBRANCH  16  17
ENDBRANCH   1  16
TORSDOF 9
