REMARK  Name = ZINC05093953
REMARK                            x       y       z     vdW  Elec       q    Type
REMARK                         _______ _______ _______ _____ _____    ______ ____
ROOT
ATOM      1  C   LIG    1        2.562  -4.192  -0.177  0.00  0.00    +0.267 C 
ATOM      2  N   LIG    1        1.450  -4.921   0.041  0.00  0.00    -0.202 N 
ATOM      3  H   LIG    1        0.615  -4.478   0.258  0.00  0.00    +0.178 HD
ATOM      4  O   LIG    1        3.609  -4.747  -0.449  0.00  0.00    -0.268 OA
ENDROOT
BRANCH   2   5
ATOM      5  N   LIG    1        1.500  -6.318  -0.045  0.00  0.00    -0.174 NA
ATOM      6  C   LIG    1        0.398  -7.021   0.061  0.00  0.00    +0.153 C 
ATOM      7  C   LIG    1       -0.995  -6.517   0.087  0.00  0.00    +0.028 A 
ATOM      8  C   LIG    1       -1.548  -5.244   0.016  0.00  0.00    +0.012 A 
ATOM      9  C   LIG    1       -2.919  -5.089   0.069  0.00  0.00    +0.001 A 
ATOM     10  C   LIG    1       -3.738  -6.198   0.193  0.00  0.00    +0.002 A 
ATOM     11  C   LIG    1       -3.198  -7.466   0.264  0.00  0.00    +0.024 A 
ATOM     12  C   LIG    1       -1.820  -7.642   0.212  0.00  0.00    +0.043 A 
ATOM     13  N   LIG    1       -1.032  -8.787   0.263  0.00  0.00    -0.280 N 
ATOM     14  H   LIG    1       -1.382  -9.688   0.348  0.00  0.00    +0.155 HD
ATOM     15  C   LIG    1        0.275  -8.488   0.173  0.00  0.00    +0.269 C 
ATOM     16  O   LIG    1        1.194  -9.286   0.185  0.00  0.00    -0.268 OA
ENDBRANCH   2   5
BRANCH   1  23
ATOM     17  C   LIG    1        0.064   1.336   0.696  0.00  0.00    +0.001 A 
ATOM     18  C   LIG    1        1.222   2.076   0.467  0.00  0.00    +0.001 A 
ATOM     19  C   LIG    1        2.398   1.462   0.162  0.00  0.00    +0.008 A 
ATOM     20  C   LIG    1        2.450   0.060   0.075  0.00  0.00    -0.014 A 
ATOM     21  C   LIG    1        3.650  -0.601  -0.238  0.00  0.00    +0.054 A 
ATOM     22  C   LIG    1        3.678  -1.962  -0.317  0.00  0.00    +0.130 A 
ATOM     23  C   LIG    1        2.510  -2.721  -0.087  0.00  0.00    +0.080 A 
ATOM     24  C   LIG    1        1.314  -2.092   0.223  0.00  0.00    +0.025 A 
ATOM     25  C   LIG    1        1.271  -0.693   0.308  0.00  0.00    -0.017 A 
ATOM     26  C   LIG    1        0.074  -0.022   0.621  0.00  0.00    +0.008 A 
BRANCH  22  27
ATOM     27  O   LIG    1        4.840  -2.593  -0.620  0.00  0.00    -0.506 OA
ATOM     28  H   LIG    1        5.376  -2.822   0.152  0.00  0.00    +0.292 HD
ENDBRANCH  22  27
ENDBRANCH   1  23
TORSDOF 3
