REMARK  Name = ZINC05758746
REMARK                            x       y       z     vdW  Elec       q    Type
REMARK                         _______ _______ _______ _____ _____    ______ ____
ROOT
ATOM      1  C   LIG    1        4.966   4.050  -0.024  0.00  0.00    +0.061 C 
ATOM      2  C   LIG    1        5.746   3.660  -1.281  0.00  0.00    +0.050 C 
ATOM      3  C   LIG    1        7.178   4.115  -1.153  0.00  0.00    -0.001 A 
ATOM      4  C   LIG    1        7.953   4.203  -2.300  0.00  0.00    +0.056 A 
ATOM      5  C   LIG    1        9.271   4.614  -2.222  0.00  0.00    +0.159 A 
ATOM      6  C   LIG    1        9.823   4.941  -0.987  0.00  0.00    +0.162 A 
ATOM      7  C   LIG    1        9.049   4.855   0.156  0.00  0.00    +0.095 A 
ATOM      8  C   LIG    1        7.723   4.443   0.075  0.00  0.00    +0.127 A 
ATOM      9  O   LIG    1        6.994   4.381   1.221  0.00  0.00    -0.491 OA
ATOM     10  C   LIG    1        5.783   3.623   1.202  0.00  0.00    +0.237 C 
ENDROOT
BRANCH   1  14
ATOM     11  C   LIG    1        1.185   2.058   0.002  0.00  0.00    +0.120 A 
ATOM     12  C   LIG    1        2.359   1.320  -0.008  0.00  0.00    +0.046 A 
ATOM     13  C   LIG    1        3.580   1.966  -0.022  0.00  0.00    +0.007 A 
ATOM     14  C   LIG    1        3.633   3.348  -0.015  0.00  0.00    -0.041 A 
ATOM     15  C   LIG    1        2.464   4.086   0.000  0.00  0.00    +0.007 A 
ATOM     16  C   LIG    1        1.240   3.444   0.009  0.00  0.00    +0.046 A 
BRANCH  11  18
ATOM     17  C   LIG    1        0.002  -0.004   0.002  0.00  0.00    +0.277 C 
ATOM     18  O   LIG    1       -0.017   1.425   0.010  0.00  0.00    -0.495 OA
ENDBRANCH  11  18
ENDBRANCH   1  14
BRANCH   5  19
ATOM     19  O   LIG    1       10.027   4.698  -3.350  0.00  0.00    -0.503 OA
ATOM     20  H   LIG    1       10.501   3.883  -3.568  0.00  0.00    +0.292 HD
ENDBRANCH   5  19
BRANCH   6  21
ATOM     21  O   LIG    1       11.119   5.344  -0.904  0.00  0.00    -0.503 OA
ATOM     22  H   LIG    1       11.748   4.622  -0.771  0.00  0.00    +0.292 HD
ENDBRANCH   6  21
TORSDOF 4
