REMARK  Name = ZINC05092562
REMARK                            x       y       z     vdW  Elec       q    Type
REMARK                         _______ _______ _______ _____ _____    ______ ____
ROOT
ATOM      1  N   LIG    1        2.566  -0.824  -6.148  0.00  0.00    -0.174 NA
ATOM      2  C   LIG    1        1.391  -0.903  -7.027  0.00  0.00    +0.128 C 
ATOM      3  C   LIG    1        0.625   0.423  -6.943  0.00  0.00    +0.122 C 
ATOM      4  N   LIG    1        1.578   1.527  -7.130  0.00  0.00    -0.327 N 
ATOM      5  C   LIG    1        2.753   1.606  -6.251  0.00  0.00    +0.122 C 
ATOM      6  C   LIG    1        3.515   0.282  -6.332  0.00  0.00    +0.128 C 
ENDROOT
BRANCH   4   7
ATOM      7  C   LIG    1        1.369   2.484  -8.127  0.00  0.00    +0.030 A 
ATOM      8  C   LIG    1        0.320   2.336  -9.025  0.00  0.00    +0.025 A 
ATOM      9  C   LIG    1        0.117   3.284 -10.009  0.00  0.00    +0.034 A 
ATOM     10  C   LIG    1        0.957   4.379 -10.100  0.00  0.00    +0.122 A 
ATOM     11  C   LIG    1        2.002   4.529  -9.207  0.00  0.00    +0.034 A 
ATOM     12  C   LIG    1        2.208   3.587  -8.218  0.00  0.00    +0.025 A 
BRANCH  10  13
ATOM     13  N   LIG    1        0.736   5.393 -11.156  0.00  0.00    +0.006 N 
ATOM     14  O   LIG    1       -0.177   5.263 -11.937  0.00  0.00    -0.130 OA
BRANCH  13  15
ATOM     15  O   LIG    1        1.470   6.351 -11.236  0.00  0.00    -0.396 OA
ATOM     16  H   LIG    1        2.177   6.451 -10.631  0.00  0.00    +0.329 HD
ENDBRANCH  13  15
ENDBRANCH  10  13
ENDBRANCH   4   7
BRANCH   1  17
ATOM     17  S   LIG    1        2.812  -1.958  -4.966  0.00  0.00    +0.061 S 
ATOM     18  O   LIG    1        2.118  -3.129  -5.376  0.00  0.00    -0.153 OA
ATOM     19  O   LIG    1        4.206  -1.958  -4.688  0.00  0.00    -0.153 OA
BRANCH  17  23
ATOM     20  C   LIG    1        0.744  -0.469  -1.225  0.00  0.00    -0.042 A 
ATOM     21  C   LIG    1        0.056  -1.258  -2.128  0.00  0.00    +0.006 A 
ATOM     22  C   LIG    1        0.688  -1.713  -3.270  0.00  0.00    +0.029 A 
ATOM     23  C   LIG    1        2.007  -1.378  -3.511  0.00  0.00    +0.105 A 
ATOM     24  C   LIG    1        2.695  -0.588  -2.609  0.00  0.00    +0.029 A 
ATOM     25  C   LIG    1        2.062  -0.130  -1.468  0.00  0.00    +0.006 A 
BRANCH  20  27
ATOM     26  C   LIG    1        0.051   1.557   0.025  0.00  0.00    +0.015 C 
ATOM     27  C   LIG    1        0.056   0.027   0.020  0.00  0.00    -0.013 C 
ATOM     28  C   LIG    1       -1.385  -0.488   0.046  0.00  0.00    +0.015 C 
ATOM     29  C   LIG    1        0.803  -0.485   1.254  0.00  0.00    +0.015 C 
ENDBRANCH  20  27
ENDBRANCH  17  23
ENDBRANCH   1  17
TORSDOF 6
