REMARK  Name = ZINC05082344
REMARK                            x       y       z     vdW  Elec       q    Type
REMARK                         _______ _______ _______ _____ _____    ______ ____
ROOT
ATOM      1  N   LIG    1       -1.700   0.064   3.330  0.00  0.00    -0.219 N 
ATOM      2  H   LIG    1       -0.844   0.516   3.394  0.00  0.00    +0.176 HD
ENDROOT
BRANCH   1   4
ATOM      3  C   LIG    1       -2.140   1.053   1.275  0.00  0.00    +0.103 C 
ATOM      4  N   LIG    1       -2.542   0.311   2.237  0.00  0.00    -0.193 NA
BRANCH   3   6
ATOM      5  C   LIG    1       -0.076   1.171  -0.094  0.00  0.00    +0.010 C 
ATOM      6  C   LIG    1       -0.716   1.543   1.245  0.00  0.00    +0.045 C 
ENDBRANCH   3   6
ENDBRANCH   1   4
BRANCH   1   7
ATOM      7  C   LIG    1       -2.080  -0.801   4.291  0.00  0.00    +0.147 C 
ATOM      8  S   LIG    1       -1.051  -1.103   5.626  0.00  0.00    -0.017 S 
BRANCH   7   9
ATOM      9  N   LIG    1       -3.269  -1.429   4.201  0.00  0.00    -0.339 N 
ATOM     10  H   LIG    1       -3.542  -2.051   4.893  0.00  0.00    +0.144 HD
ATOM     11  H   LIG    1       -3.852  -1.258   3.445  0.00  0.00    +0.144 HD
ENDBRANCH   7   9
ENDBRANCH   1   7
TORSDOF 4
