REMARK  Name = ZINC05009212
REMARK                            x       y       z     vdW  Elec       q    Type
REMARK                         _______ _______ _______ _____ _____    ______ ____
ROOT
ATOM      1  C   LIG    1       -1.558   1.629   0.652  0.00  0.00    +0.147 A 
ATOM      2  C   LIG    1       -0.351   1.092   1.109  0.00  0.00    +0.178 A 
ATOM      3  N   LIG    1        0.463   1.851   1.816  0.00  0.00    -0.151 NA
ATOM      4  N   LIG    1        0.152   3.069   2.089  0.00  0.00    -0.113 NA
ATOM      5  C   LIG    1       -0.989   3.603   1.672  0.00  0.00    +0.241 A 
ATOM      6  N   LIG    1       -1.851   2.890   0.957  0.00  0.00    -0.196 NA
ENDROOT
BRANCH   1   7
ATOM      7  N   LIG    1       -2.435   0.861  -0.099  0.00  0.00    -0.298 N 
ATOM      8  H   LIG    1       -2.257  -0.082  -0.237  0.00  0.00    +0.154 HD
BRANCH   7  12
ATOM      9  C   LIG    1       -5.834   2.608  -1.765  0.00  0.00    +0.121 A 
ATOM     10  C   LIG    1       -5.878   1.296  -1.315  0.00  0.00    +0.047 A 
ATOM     11  C   LIG    1       -4.753   0.717  -0.763  0.00  0.00    +0.027 A 
ATOM     12  C   LIG    1       -3.576   1.448  -0.659  0.00  0.00    +0.033 A 
ATOM     13  C   LIG    1       -3.535   2.762  -1.104  0.00  0.00    +0.027 A 
ATOM     14  C   LIG    1       -4.660   3.338  -1.661  0.00  0.00    +0.047 A 
BRANCH   9  15
ATOM     15  O   LIG    1       -6.943   3.178  -2.308  0.00  0.00    -0.492 OA
BRANCH  15  17
ATOM     16  C   LIG    1       -8.165   4.997  -3.327  0.00  0.00    +0.048 C 
ATOM     17  C   LIG    1       -6.826   4.531  -2.751  0.00  0.00    +0.225 C 
ENDBRANCH  15  17
ENDBRANCH   9  15
ENDBRANCH   7  12
ENDBRANCH   1   7
BRANCH   5  18
ATOM     18  N   LIG    1       -1.285   4.918   1.988  0.00  0.00    -0.282 N 
ATOM     19  H   LIG    1       -2.151   5.290   1.757  0.00  0.00    +0.155 HD
BRANCH  18  20
ATOM     20  C   LIG    1       -0.334   5.713   2.640  0.00  0.00    +0.034 A 
ATOM     21  C   LIG    1       -0.741   6.668   3.562  0.00  0.00    +0.027 A 
ATOM     22  C   LIG    1        0.198   7.449   4.207  0.00  0.00    +0.047 A 
ATOM     23  C   LIG    1        1.546   7.284   3.929  0.00  0.00    +0.121 A 
ATOM     24  C   LIG    1        1.954   6.333   3.005  0.00  0.00    +0.047 A 
ATOM     25  C   LIG    1        1.017   5.549   2.361  0.00  0.00    +0.027 A 
BRANCH  23  26
ATOM     26  O   LIG    1        2.470   8.056   4.562  0.00  0.00    -0.492 OA
BRANCH  26  27
ATOM     27  C   LIG    1        1.980   9.015   5.501  0.00  0.00    +0.225 C 
ATOM     28  C   LIG    1        3.157   9.783   6.106  0.00  0.00    +0.048 C 
ENDBRANCH  26  27
ENDBRANCH  23  26
ENDBRANCH  18  20
ENDBRANCH   5  18
TORSDOF 8
