REMARK  Name = ZINC05424791
REMARK                            x       y       z     vdW  Elec       q    Type
REMARK                         _______ _______ _______ _____ _____    ______ ____
ROOT
ATOM      1  C   LIG    1        0.905   0.169   2.478  0.00  0.00    +0.000 A 
ATOM      2  C   LIG    1        0.150   1.345   2.632  0.00  0.00    +0.012 A 
ATOM      3  C   LIG    1        0.203   2.076   3.775  0.00  0.00    +0.028 A 
ATOM      4  C   LIG    1        1.026   1.661   4.835  0.00  0.00    +0.064 A 
ATOM      5  N   LIG    1        1.303   2.129   6.052  0.00  0.00    -0.338 N 
ATOM      6  H   LIG    1        0.932   2.933   6.446  0.00  0.00    +0.167 HD
ATOM      7  C   LIG    1        2.175   1.309   6.635  0.00  0.00    +0.135 A 
ATOM      8  N   LIG    1        2.491   0.296   5.832  0.00  0.00    -0.338 N 
ATOM      9  H   LIG    1        3.106  -0.424   6.044  0.00  0.00    +0.167 HD
ATOM     10  C   LIG    1        2.718   1.498   7.991  0.00  0.00    +0.097 A 
ATOM     11  C   LIG    1        3.636   0.667   8.635  0.00  0.00    +0.049 A 
ATOM     12  C   LIG    1        3.885   1.185   9.870  0.00  0.00    +0.103 A 
ATOM     13  N   LIG    1        3.151   2.316  10.022  0.00  0.00    -0.307 N 
ATOM     14  H   LIG    1        3.138   2.884  10.808  0.00  0.00    +0.186 HD
ATOM     15  N   LIG    1        2.420   2.523   8.844  0.00  0.00    -0.297 N 
ATOM     16  H   LIG    1        1.812   3.258   8.668  0.00  0.00    +0.187 HD
ATOM     17  C   LIG    1        1.819   0.436   4.687  0.00  0.00    +0.065 A 
ATOM     18  C   LIG    1        1.730  -0.291   3.494  0.00  0.00    +0.037 A 
ENDROOT
BRANCH   1  27
ATOM     19  C   LIG    1        1.413   1.516   0.061  0.00  0.00    +0.014 C 
ATOM     20  C   LIG    1        0.739   0.151  -0.089  0.00  0.00    +0.046 C 
ATOM     21  C   LIG    1        1.453  -0.653  -1.178  0.00  0.00    +0.107 C 
ATOM     22  C   LIG    1        1.003  -2.091  -1.108  0.00  0.00    +0.233 C 
ATOM     23  N   LIG    1        0.742  -2.648   0.090  0.00  0.00    -0.207 N 
ATOM     24  H   LIG    1        0.511  -3.589   0.142  0.00  0.00    +0.177 HD
ATOM     25  N   LIG    1        0.799  -1.883   1.258  0.00  0.00    -0.184 NA
ATOM     26  O   LIG    1        0.877  -2.741  -2.124  0.00  0.00    -0.274 OA
ATOM     27  C   LIG    1        0.814  -0.591   1.219  0.00  0.00    +0.070 C 
ENDBRANCH   1  27
TORSDOF 1
