REMARK  Name = ZINC04904223
REMARK                            x       y       z     vdW  Elec       q    Type
REMARK                         _______ _______ _______ _____ _____    ______ ____
ROOT
ATOM      1  C   LIG    1        2.469   1.737  -0.012  0.00  0.00    +0.005 A 
ATOM      2  C   LIG    1        3.119   1.371  -1.273  0.00  0.00    +0.029 A 
ATOM      3  C   LIG    1        2.528   1.691  -2.503  0.00  0.00    +0.061 A 
ATOM      4  C   LIG    1        3.152   1.339  -3.667  0.00  0.00    +0.159 A 
ATOM      5  C   LIG    1        4.377   0.662  -3.634  0.00  0.00    +0.162 A 
ATOM      6  C   LIG    1        4.976   0.349  -2.426  0.00  0.00    +0.096 A 
ATOM      7  C   LIG    1        4.354   0.694  -1.234  0.00  0.00    +0.140 A 
ATOM      8  O   LIG    1        4.924   0.379  -0.053  0.00  0.00    -0.455 OA
ATOM      9  C   LIG    1        4.358   0.693   1.130  0.00  0.00    +0.140 A 
ATOM     10  C   LIG    1        4.993   0.342   2.307  0.00  0.00    +0.101 A 
ATOM     11  C   LIG    1        4.412   0.664   3.537  0.00  0.00    +0.224 A 
ATOM     12  C   LIG    1        3.175   1.348   3.585  0.00  0.00    +0.164 A 
ATOM     13  C   LIG    1        2.543   1.697   2.433  0.00  0.00    +0.061 A 
ATOM     14  O   LIG    1        4.977   0.352   4.579  0.00  0.00    -0.284 OA
ATOM     15  C   LIG    1        3.121   1.377   1.189  0.00  0.00    +0.029 A 
ENDROOT
BRANCH   1  18
ATOM     16  C   LIG    1       -0.060   4.509   0.027  0.00  0.00    +0.002 A 
ATOM     17  C   LIG    1        1.150   3.849   0.012  0.00  0.00    +0.010 A 
ATOM     18  C   LIG    1        1.180   2.450   0.004  0.00  0.00    +0.003 A 
ATOM     19  C   LIG    1       -0.021   1.732   0.012  0.00  0.00    +0.067 A 
ATOM     20 CL   LIG    1        0.002  -0.004   0.002  0.00  0.00    -0.081 Cl
ATOM     21  C   LIG    1       -1.226   2.409   0.021  0.00  0.00    +0.060 A 
ATOM     22 CL   LIG    1       -2.718   1.521   0.023  0.00  0.00    -0.082 Cl
ATOM     23  C   LIG    1       -1.245   3.793   0.035  0.00  0.00    +0.021 A 
ENDBRANCH   1  18
BRANCH   4  24
ATOM     24  O   LIG    1        2.581   1.648  -4.862  0.00  0.00    -0.503 OA
ATOM     25  H   LIG    1        2.844   2.511  -5.212  0.00  0.00    +0.292 HD
ENDBRANCH   4  24
BRANCH   5  26
ATOM     26  O   LIG    1        4.987   0.318  -4.797  0.00  0.00    -0.503 OA
ATOM     27  H   LIG    1        5.592   0.992  -5.138  0.00  0.00    +0.292 HD
ENDBRANCH   5  26
BRANCH  12  28
ATOM     28  O   LIG    1        2.617   1.658   4.786  0.00  0.00    -0.503 OA
ATOM     29  H   LIG    1        2.883   2.520   5.133  0.00  0.00    +0.292 HD
ENDBRANCH  12  28
TORSDOF 4
