REMARK  Name = ZINC05268440
REMARK                            x       y       z     vdW  Elec       q    Type
REMARK                         _______ _______ _______ _____ _____    ______ ____
ROOT
ATOM      1  C   LIG    1       -0.742   1.585  -1.213  0.00  0.00    +0.222 C 
ATOM      2  N   LIG    1       -0.288   1.272  -2.443  0.00  0.00    -0.279 N 
ATOM      3  H   LIG    1        0.507   0.726  -2.543  0.00  0.00    +0.155 HD
ATOM      4  O   LIG    1       -1.736   2.268  -1.088  0.00  0.00    -0.275 OA
ENDROOT
BRANCH   2   5
ATOM      5  C   LIG    1       -0.959   1.732  -3.566  0.00  0.00    +0.084 A 
ATOM      6  C   LIG    1       -0.646   1.522  -4.904  0.00  0.00    +0.065 A 
ATOM      7  C   LIG    1       -1.528   2.120  -5.878  0.00  0.00    +0.022 A 
ATOM      8  C   LIG    1       -2.567   2.835  -5.410  0.00  0.00    +0.048 A 
ATOM      9  S   LIG    1       -2.385   2.712  -3.642  0.00  0.00    -0.081 S 
BRANCH   6  10
ATOM     10  C   LIG    1        0.519   0.730  -5.307  0.00  0.00    +0.244 C 
ATOM     11  N   LIG    1        0.792   0.547  -6.614  0.00  0.00    -0.325 N 
ATOM     12  H   LIG    1        1.563   0.023  -6.880  0.00  0.00    +0.145 HD
ATOM     13  H   LIG    1        0.217   0.941  -7.289  0.00  0.00    +0.145 HD
ATOM     14  O   LIG    1        1.241   0.236  -4.460  0.00  0.00    -0.270 OA
ENDBRANCH   6  10
ENDBRANCH   2   5
BRANCH   1  15
ATOM     15  C   LIG    1       -0.013   1.086   0.008  0.00  0.00    +0.131 C 
BRANCH  15  22
ATOM     16  C   LIG    1       -0.359   2.779   1.818  0.00  0.00    +0.007 A 
ATOM     17  C   LIG    1       -1.009   3.228   2.953  0.00  0.00    +0.038 A 
ATOM     18  C   LIG    1       -2.012   2.463   3.524  0.00  0.00    +0.123 A 
ATOM     19  F   LIG    1       -2.644   2.899   4.635  0.00  0.00    -0.205 F 
ATOM     20  C   LIG    1       -2.367   1.252   2.955  0.00  0.00    +0.038 A 
ATOM     21  C   LIG    1       -1.719   0.807   1.817  0.00  0.00    +0.007 A 
ATOM     22  C   LIG    1       -0.718   1.572   1.248  0.00  0.00    -0.038 A 
ENDBRANCH  15  22
ENDBRANCH   1  15
TORSDOF 4
