REMARK  Name = ZINC05218771
REMARK                            x       y       z     vdW  Elec       q    Type
REMARK                         _______ _______ _______ _____ _____    ______ ____
ROOT
ATOM      1  C   LIG    1       -2.907   2.222  -5.426  0.00  0.00    +0.088 C 
ATOM      2  C   LIG    1       -2.426   3.201  -4.386  0.00  0.00    +0.129 A 
ATOM      3  N   LIG    1       -2.593   4.490  -4.598  0.00  0.00    -0.228 NA
ATOM      4  C   LIG    1       -2.180   5.382  -3.701  0.00  0.00    +0.122 A 
ATOM      5  C   LIG    1       -2.203   6.851  -3.611  0.00  0.00    +0.048 A 
ATOM      6  C   LIG    1       -2.671   7.865  -4.442  0.00  0.00    +0.033 A 
ATOM      7  C   LIG    1       -2.537   9.183  -4.057  0.00  0.00    +0.042 A 
ATOM      8 CL   LIG    1       -3.118  10.451  -5.090  0.00  0.00    -0.084 Cl
ATOM      9  C   LIG    1       -1.938   9.497  -2.845  0.00  0.00    +0.023 A 
ATOM     10  C   LIG    1       -1.471   8.501  -2.015  0.00  0.00    +0.048 A 
ATOM     11  C   LIG    1       -1.597   7.167  -2.386  0.00  0.00    +0.138 A 
ATOM     12  O   LIG    1       -1.236   6.015  -1.779  0.00  0.00    -0.450 OA
ATOM     13  C   LIG    1       -1.569   4.941  -2.522  0.00  0.00    +0.194 A 
ATOM     14  C   LIG    1       -1.409   3.561  -2.345  0.00  0.00    +0.168 A 
ATOM     15  N   LIG    1       -1.850   2.740  -3.292  0.00  0.00    -0.214 NA
ENDROOT
BRANCH  14  16
ATOM     16  N   LIG    1       -0.806   3.062  -1.200  0.00  0.00    -0.316 N 
ATOM     17  C   LIG    1       -0.754   1.593  -1.231  0.00  0.00    +0.088 C 
ATOM     18  C   LIG    1       -0.013   1.086   0.008  0.00  0.00    -0.060 C 
ATOM     19  N   LIG    1       -0.728   1.551   1.215  0.00  0.00    +0.380 N 
ATOM     20  H   LIG    1       -1.692   1.200   1.187  0.00  0.00    -0.082 HD
ATOM     21  C   LIG    1       -0.062   1.031   2.429  0.00  0.00    -0.096 C 
ATOM     22  C   LIG    1       -0.754   3.029   1.247  0.00  0.00    -0.060 C 
ATOM     23  C   LIG    1       -1.495   3.536   0.008  0.00  0.00    +0.088 C 
ENDBRANCH  14  16
TORSDOF 1
