REMARK  Name = ZINC04970393
REMARK                            x       y       z     vdW  Elec       q    Type
REMARK                         _______ _______ _______ _____ _____    ______ ____
ROOT
ATOM      1  S   LIG    1        0.063  -4.535  -0.012  0.00  0.00    +0.076 S 
ATOM      2  O   LIG    1        0.048  -4.945   1.348  0.00  0.00    -0.150 OA
ATOM      3  O   LIG    1        1.089  -4.924  -0.915  0.00  0.00    -0.150 OA
ENDROOT
BRANCH   1   8
ATOM      4  C   LIG    1       -0.018   1.503   0.010  0.00  0.00    +0.045 C 
ATOM      5  C   LIG    1        0.002  -0.004   0.002  0.00  0.00    -0.029 A 
ATOM      6  C   LIG    1        0.006  -0.688  -1.199  0.00  0.00    +0.052 A 
ATOM      7  C   LIG    1        0.025  -2.075  -1.206  0.00  0.00    +0.147 A 
ATOM      8  C   LIG    1        0.040  -2.773  -0.007  0.00  0.00    +0.151 A 
ATOM      9  C   LIG    1        0.036  -2.086   1.192  0.00  0.00    +0.052 A 
ATOM     10  C   LIG    1        0.023  -0.702   1.196  0.00  0.00    +0.046 A 
ATOM     11 CL   LIG    1        0.025   0.160   2.704  0.00  0.00    -0.083 Cl
BRANCH   7  12
ATOM     12  O   LIG    1        0.028  -2.749  -2.386  0.00  0.00    -0.493 OA
ATOM     13  C   LIG    1        0.011  -1.966  -3.581  0.00  0.00    +0.277 C 
ENDBRANCH   7  12
ENDBRANCH   1   8
BRANCH   1  14
ATOM     14  N   LIG    1       -1.367  -5.041  -0.676  0.00  0.00    -0.215 N 
ATOM     15  H   LIG    1       -2.005  -5.534  -0.135  0.00  0.00    +0.174 HD
BRANCH  14  16
ATOM     16  C   LIG    1       -1.656  -4.758  -2.013  0.00  0.00    +0.066 A 
ATOM     17  C   LIG    1       -2.912  -4.280  -2.379  0.00  0.00    +0.027 A 
ATOM     18  C   LIG    1       -3.150  -4.014  -3.717  0.00  0.00    +0.022 A 
ATOM     19  C   LIG    1       -2.143  -4.231  -4.639  0.00  0.00    +0.111 A 
ATOM     20  N   LIG    1       -0.964  -4.685  -4.260  0.00  0.00    -0.261 NA
ATOM     21  C   LIG    1       -0.694  -4.945  -2.997  0.00  0.00    +0.135 A 
ENDBRANCH  14  16
ENDBRANCH   1  14
TORSDOF 4
