REMARK  Name = ZINC05195818
REMARK                            x       y       z     vdW  Elec       q    Type
REMARK                         _______ _______ _______ _____ _____    ______ ____
ROOT
ATOM      1  C   LIG    1        0.596  -0.533   3.228  0.00  0.00    +0.040 A 
ATOM      2  C   LIG    1       -0.699  -0.153   2.891  0.00  0.00    +0.127 A 
ATOM      3  C   LIG    1       -1.793  -0.775   3.470  0.00  0.00    +0.093 A 
ATOM      4  C   LIG    1       -1.610  -1.792   4.397  0.00  0.00    +0.146 A 
ATOM      5  C   LIG    1       -0.301  -2.183   4.730  0.00  0.00    +0.106 A 
ATOM      6  C   LIG    1       -0.119  -3.279   5.698  0.00  0.00    +0.204 A 
ATOM      7  C   LIG    1       -1.329  -4.064   6.020  0.00  0.00    +0.072 A 
ATOM      8  C   LIG    1       -2.578  -3.564   5.616  0.00  0.00    +0.143 A 
ATOM      9  C   LIG    1       -3.723  -4.297   5.901  0.00  0.00    +0.096 A 
ATOM     10  C   LIG    1       -3.627  -5.499   6.581  0.00  0.00    +0.162 A 
ATOM     11  C   LIG    1       -2.384  -5.989   6.987  0.00  0.00    +0.163 A 
ATOM     12  C   LIG    1       -1.237  -5.274   6.708  0.00  0.00    +0.016 A 
ATOM     13  O   LIG    1        0.962  -3.524   6.202  0.00  0.00    -0.286 OA
ATOM     14  O   LIG    1       -2.679  -2.387   4.964  0.00  0.00    -0.454 OA
ATOM     15  C   LIG    1        0.802  -1.549   4.143  0.00  0.00    +0.138 A 
ENDROOT
BRANCH   2  16
ATOM     16  O   LIG    1       -0.892   0.839   1.985  0.00  0.00    -0.506 OA
ATOM     17  H   LIG    1       -0.954   0.529   1.071  0.00  0.00    +0.292 HD
ENDBRANCH   2  16
BRANCH  10  18
ATOM     18  O   LIG    1       -4.753  -6.208   6.855  0.00  0.00    -0.503 OA
ATOM     19  H   LIG    1       -4.996  -6.841   6.165  0.00  0.00    +0.292 HD
ENDBRANCH  10  18
BRANCH  11  20
ATOM     20  O   LIG    1       -2.304  -7.169   7.659  0.00  0.00    -0.503 OA
ATOM     21  H   LIG    1       -2.200  -7.941   7.086  0.00  0.00    +0.292 HD
ENDBRANCH  11  20
BRANCH  15  22
ATOM     22  O   LIG    1        2.063  -1.925   4.475  0.00  0.00    -0.506 OA
ATOM     23  H   LIG    1        2.432  -1.442   5.226  0.00  0.00    +0.292 HD
ENDBRANCH  15  22
BRANCH   1  24
ATOM     24  C   LIG    1        1.774   0.158   2.591  0.00  0.00    +0.069 C 
BRANCH  24  28
ATOM     25  C   LIG    1        1.849   1.548   0.139  0.00  0.00    +0.038 C 
ATOM     26  C   LIG    1        2.135   0.069   0.177  0.00  0.00    -0.079 C 
ATOM     27  C   LIG    1        2.399  -0.682  -1.103  0.00  0.00    +0.038 C 
ATOM     28  C   LIG    1        2.155  -0.565   1.324  0.00  0.00    -0.023 C 
ENDBRANCH  24  28
ENDBRANCH   1  24
BRANCH  12  29
ATOM     29  C   LIG    1        0.107  -5.798   7.143  0.00  0.00    +0.067 C 
BRANCH  29  30
ATOM     30  C   LIG    1        0.425  -5.281   8.522  0.00  0.00    -0.023 C 
ATOM     31  C   LIG    1        0.649  -6.122   9.501  0.00  0.00    -0.079 C 
ATOM     32  C   LIG    1        1.015  -5.606  10.869  0.00  0.00    +0.038 C 
ATOM     33  C   LIG    1        0.542  -7.606   9.260  0.00  0.00    +0.038 C 
ENDBRANCH  29  30
ENDBRANCH  12  29
TORSDOF 8
