REMARK  Name = ZINC05766623
REMARK                            x       y       z     vdW  Elec       q    Type
REMARK                         _______ _______ _______ _____ _____    ______ ____
ROOT
ATOM      1  CA  THR A  1        1.145   3.085   0.008  0.00  0.00    -0.014 C 
ATOM      2  N   THR A  1        0.592   3.528   1.287  0.00  0.00    +0.389 N 
ATOM      3  H1  THR A  1       -0.001   4.354   1.147  0.00  0.00    -0.085 HD
ATOM      4  H2  THR A  1        0.035   2.775   1.709  0.00  0.00    -0.085 HD
ATOM      5  CA  THR A  1        1.728   3.865   2.162  0.00  0.00    -0.014 C 
ATOM      6  CB  THR A  1        2.715   4.553   1.185  0.00  0.00    +0.130 C 
ATOM      7  CG2 THR A  1        2.532   3.742  -0.118  0.00  0.00    +0.130 C 
ENDROOT
BRANCH   6   8
ATOM      8  OG1 THR A  1        2.355   5.921   0.984  0.00  0.00    -0.391 OA
ATOM      9  HG1 THR A  1        2.894   6.376   0.322  0.00  0.00    +0.210 HD
ENDBRANCH   6   8
BRANCH   7  10
ATOM     10  OG1 THR A  1        2.569   4.610  -1.252  0.00  0.00    -0.391 OA
ATOM     11  HG1 THR A  1        3.419   5.052  -1.382  0.00  0.00    +0.210 HD
ENDBRANCH   7  10
BRANCH   1  12
ATOM     12  C   THR A  1        1.286   1.562  -0.002  0.00  0.00    +0.143 C 
BRANCH  12  13
ATOM     13  O   THR A  1       -0.011   0.963   0.007  0.00  0.00    -0.397 OA
ATOM     14  H   THR A  1        0.002  -0.004   0.002  0.00  0.00    +0.209 HD
ENDBRANCH  12  13
ENDBRANCH   1  12
BRANCH   5  15
ATOM     15  C   THR A  1        1.313   4.828   3.277  0.00  0.00    +0.143 C 
BRANCH  15  16
ATOM     16  O   THR A  1        0.498   4.135   4.225  0.00  0.00    -0.397 OA
ATOM     17  H   THR A  1        0.198   4.686   4.961  0.00  0.00    +0.209 HD
ENDBRANCH  15  16
ENDBRANCH   5  15
TORSDOF 6
