REMARK  Name = ZINC05378634
REMARK                            x       y       z     vdW  Elec       q    Type
REMARK                         _______ _______ _______ _____ _____    ______ ____
ROOT
ATOM      1  C   LIG    1        0.058  -4.119  -0.021  0.00  0.00    +0.030 A 
ATOM      2  C   LIG    1       -1.024  -4.830  -0.534  0.00  0.00    +0.025 A 
ATOM      3  C   LIG    1       -1.000  -6.210  -0.539  0.00  0.00    +0.030 A 
ATOM      4  C   LIG    1        0.096  -6.887  -0.035  0.00  0.00    +0.105 A 
ATOM      5  C   LIG    1        1.173  -6.186   0.476  0.00  0.00    +0.030 A 
ATOM      6  C   LIG    1        1.162  -4.806   0.480  0.00  0.00    +0.025 A 
ENDROOT
BRANCH   1  12
ATOM      7  C   LIG    1       -0.018   1.503   0.010  0.00  0.00    +0.007 C 
ATOM      8  C   LIG    1        0.002  -0.004   0.002  0.00  0.00    -0.011 C 
ATOM      9  C   LIG    1        0.006  -0.706  -1.195  0.00  0.00    +0.025 C 
ATOM     10  C   LIG    1        0.025  -2.086  -1.167  0.00  0.00    +0.071 C 
ATOM     11  C   LIG    1        0.030  -2.858  -2.461  0.00  0.00    +0.028 C 
ATOM     12  N   LIG    1        0.040  -2.739  -0.013  0.00  0.00    -0.324 N 
ATOM     13  C   LIG    1        0.036  -2.098   1.148  0.00  0.00    +0.071 C 
ATOM     14  C   LIG    1        0.052  -2.885   2.433  0.00  0.00    +0.028 C 
ATOM     15  C   LIG    1        0.023  -0.719   1.191  0.00  0.00    +0.025 C 
ENDBRANCH   1  12
BRANCH   4  16
ATOM     16  S   LIG    1        0.119  -8.649  -0.044  0.00  0.00    +0.056 S 
ATOM     17  O   LIG    1       -1.236  -9.073  -0.074  0.00  0.00    -0.153 OA
ATOM     18  O   LIG    1        1.020  -9.049   0.979  0.00  0.00    -0.153 OA
BRANCH  16  19
ATOM     19  N   LIG    1        0.795  -9.122  -1.480  0.00  0.00    -0.204 NA
ATOM     20  H   LIG    1        0.898 -10.066  -1.680  0.00  0.00    +0.144 HD
ATOM     21  H   LIG    1        1.087  -8.456  -2.122  0.00  0.00    +0.144 HD
ENDBRANCH  16  19
ENDBRANCH   4  16
TORSDOF 3
