REMARK  Name = ZINC05017776
REMARK                            x       y       z     vdW  Elec       q    Type
REMARK                         _______ _______ _______ _____ _____    ______ ____
ROOT
ATOM      1  C   LIG    1        1.180   2.081   0.002  0.00  0.00    +0.018 A 
ATOM      2  C   LIG    1       -0.017   1.390   0.010  0.00  0.00    +0.031 A 
ATOM      3  C   LIG    1        0.002  -0.004   0.002  0.00  0.00    +0.089 A 
ATOM      4  N   LIG    1        1.151  -0.670  -0.013  0.00  0.00    -0.253 NA
ATOM      5  C   LIG    1        2.310  -0.050  -0.021  0.00  0.00    +0.126 A 
ATOM      6  C   LIG    1        2.373   1.346  -0.013  0.00  0.00    +0.077 A 
ENDROOT
BRANCH   3   7
ATOM      7  C   LIG    1       -1.278  -0.753   0.010  0.00  0.00    +0.089 A 
ATOM      8  C   LIG    1       -1.259  -2.147   0.003  0.00  0.00    +0.031 A 
ATOM      9  C   LIG    1       -2.455  -2.838   0.011  0.00  0.00    +0.018 A 
ATOM     10  C   LIG    1       -3.648  -2.103   0.026  0.00  0.00    +0.077 A 
ATOM     11  C   LIG    1       -3.586  -0.707   0.033  0.00  0.00    +0.126 A 
ATOM     12  N   LIG    1       -2.426  -0.088   0.030  0.00  0.00    -0.253 NA
BRANCH  10  13
ATOM     13  C   LIG    1       -4.954  -2.794   0.035  0.00  0.00    +0.338 C 
ATOM     14  O   LIG    1       -4.998  -4.008   0.029  0.00  0.00    -0.245 OA
BRANCH  13  15
ATOM     15  O   LIG    1       -6.095  -2.078   0.051  0.00  0.00    -0.477 OA
ATOM     16  H   LIG    1       -6.060  -1.142   0.056  0.00  0.00    +0.295 HD
ENDBRANCH  13  15
ENDBRANCH  10  13
ENDBRANCH   3   7
BRANCH   6  17
ATOM     17  C   LIG    1        3.678   2.037  -0.022  0.00  0.00    +0.338 C 
ATOM     18  O   LIG    1        3.723   3.251  -0.016  0.00  0.00    -0.245 OA
BRANCH  17  19
ATOM     19  O   LIG    1        4.819   1.321  -0.037  0.00  0.00    -0.477 OA
ATOM     20  H   LIG    1        4.785   0.385  -0.042  0.00  0.00    +0.295 HD
ENDBRANCH  17  19
ENDBRANCH   6  17
TORSDOF 5
