REMARK  Name = ZINC05424460
REMARK                            x       y       z     vdW  Elec       q    Type
REMARK                         _______ _______ _______ _____ _____    ______ ____
ROOT
ATOM      1  C   LIG    1        0.786  -0.391  -1.254  0.00  0.00    +0.020 C 
ATOM      2  C   LIG    1        0.053   0.033  -2.544  0.00  0.00    +0.048 C 
ATOM      3  C   LIG    1        0.334  -1.072  -3.541  0.00  0.00    -0.043 A 
ATOM      4  C   LIG    1        0.210  -1.089  -4.920  0.00  0.00    +0.007 A 
ATOM      5  C   LIG    1        0.529  -2.227  -5.633  0.00  0.00    +0.038 A 
ATOM      6  C   LIG    1        0.976  -3.356  -4.968  0.00  0.00    +0.124 A 
ATOM      7  F   LIG    1        1.289  -4.471  -5.663  0.00  0.00    -0.205 F 
ATOM      8  C   LIG    1        1.101  -3.340  -3.591  0.00  0.00    +0.042 A 
ATOM      9  C   LIG    1        0.780  -2.199  -2.875  0.00  0.00    -0.041 A 
ATOM     10  C   LIG    1        0.829  -1.928  -1.387  0.00  0.00    +0.049 C 
ENDROOT
BRANCH   1  11
ATOM     11  C   LIG    1        2.179   0.182  -1.211  0.00  0.00    +0.040 A 
ATOM     12  C   LIG    1        3.325  -0.511  -1.354  0.00  0.00    +0.105 A 
ATOM     13  N   LIG    1        4.349   0.391  -1.250  0.00  0.00    -0.352 N 
ATOM     14  C   LIG    1        3.793   1.605  -1.047  0.00  0.00    +0.171 A 
ATOM     15  H   LIG    1        5.297   0.195  -1.310  0.00  0.00    +0.166 HD
ATOM     16  N   LIG    1        2.495   1.473  -1.030  0.00  0.00    -0.349 N 
ATOM     17  H   LIG    1        1.859   2.194  -0.905  0.00  0.00    +0.166 HD
ENDBRANCH   1  11
BRANCH   1  19
ATOM     18  C   LIG    1        0.686  -0.507   1.240  0.00  0.00    +0.005 C 
ATOM     19  C   LIG    1       -0.009   0.025  -0.015  0.00  0.00    +0.010 C 
ENDBRANCH   1  19
TORSDOF 2
