REMARK  Name = ZINC05682236
REMARK                            x       y       z     vdW  Elec       q    Type
REMARK                         _______ _______ _______ _____ _____    ______ ____
ROOT
ATOM      1  C   LIG    1       -0.753   1.593  -1.232  0.00  0.00    -0.027 C 
ATOM      2  C   LIG    1       -0.013   1.086   0.008  0.00  0.00    -0.012 C 
ATOM      3  C   LIG    1       -0.729   1.579   1.267  0.00  0.00    -0.001 C 
ATOM      4  C   LIG    1       -2.164   1.050   1.278  0.00  0.00    +0.003 C 
ATOM      5  C   LIG    1       -2.904   1.556   0.038  0.00  0.00    +0.043 C 
ATOM      6  C   LIG    1       -2.188   1.063  -1.221  0.00  0.00    +0.163 C 
ENDROOT
BRANCH   1  10
ATOM      7  C   LIG    1        1.224   1.341  -5.015  0.00  0.00    +0.016 C 
ATOM      8  C   LIG    1        2.016   1.079  -3.731  0.00  0.00    -0.011 C 
ATOM      9  C   LIG    1        1.278   1.704  -2.545  0.00  0.00    -0.078 C 
ATOM     10  N   LIG    1       -0.062   1.089  -2.437  0.00  0.00    +0.384 N 
ATOM     11  H   LIG    1        0.043   0.071  -2.360  0.00  0.00    -0.081 HD
ATOM     12  C   LIG    1       -0.861   1.398  -3.642  0.00  0.00    -0.078 C 
ATOM     13  C   LIG    1       -0.186   0.765  -4.861  0.00  0.00    -0.011 C 
BRANCH   7  17
ATOM     14  C   LIG    1        3.184  -0.540  -8.311  0.00  0.00    +0.000 A 
ATOM     15  C   LIG    1        2.992   0.829  -8.311  0.00  0.00    +0.000 A 
ATOM     16  C   LIG    1        2.357   1.438  -7.244  0.00  0.00    +0.004 A 
ATOM     17  C   LIG    1        1.915   0.677  -6.178  0.00  0.00    -0.044 A 
ATOM     18  C   LIG    1        2.112  -0.691  -6.175  0.00  0.00    +0.004 A 
ATOM     19  C   LIG    1        2.742  -1.300  -7.244  0.00  0.00    +0.000 A 
ENDBRANCH   7  17
ENDBRANCH   1  10
BRANCH   6  20
ATOM     20  O   LIG    1       -2.168  -0.389  -1.229  0.00  0.00    -0.459 OA
BRANCH  20  21
ATOM     21  C   LIG    1       -3.205  -1.011  -1.822  0.00  0.00    +0.339 C 
ATOM     22  O   LIG    1       -4.101  -0.359  -2.320  0.00  0.00    -0.245 OA
BRANCH  21  23
ATOM     23  C   LIG    1       -3.252  -2.487  -1.868  0.00  0.00    +0.059 A 
ATOM     24  C   LIG    1       -2.221  -3.240  -1.303  0.00  0.00    +0.015 A 
ATOM     25  C   LIG    1       -2.274  -4.617  -1.346  0.00  0.00    +0.001 A 
ATOM     26  C   LIG    1       -3.341  -5.254  -1.956  0.00  0.00    +0.000 A 
ATOM     27  C   LIG    1       -4.363  -4.514  -2.523  0.00  0.00    +0.001 A 
ATOM     28  C   LIG    1       -4.326  -3.135  -2.483  0.00  0.00    +0.015 A 
ENDBRANCH  21  23
ENDBRANCH  20  21
ENDBRANCH   6  20
TORSDOF 5
