REMARK  Name = ZINC05648910
REMARK                            x       y       z     vdW  Elec       q    Type
REMARK                         _______ _______ _______ _____ _____    ______ ____
ROOT
ATOM      1  C   LIG    1       -0.017   1.394   0.010  0.00  0.00    +0.033 A 
ATOM      2  C   LIG    1        1.170   2.098   0.002  0.00  0.00    +0.043 A 
ATOM      3 CL   LIG    1        1.146   3.833   0.011  0.00  0.00    -0.083 Cl
ATOM      4  C   LIG    1        2.381   1.425  -0.013  0.00  0.00    +0.043 A 
ATOM      5  C   LIG    1        2.413   0.042  -0.021  0.00  0.00    +0.084 A 
ATOM      6 CL   LIG    1        3.937  -0.790  -0.041  0.00  0.00    -0.080 Cl
ATOM      7  C   LIG    1        1.231  -0.681  -0.014  0.00  0.00    +0.144 A 
ATOM      8  C   LIG    1        0.002  -0.004   0.002  0.00  0.00    +0.039 A 
ENDROOT
BRANCH   7   9
ATOM      9  O   LIG    1        1.261  -2.039  -0.022  0.00  0.00    -0.505 OA
ATOM     10  H   LIG    1        2.083  -2.489  -0.033  0.00  0.00    +0.292 HD
ENDBRANCH   7   9
BRANCH   8  11
ATOM     11  C   LIG    1       -1.259  -0.761   0.010  0.00  0.00    +0.146 C 
ATOM     12  N   LIG    1       -1.237  -2.066   0.003  0.00  0.00    -0.155 NA
BRANCH  12  13
ATOM     13  N   LIG    1       -2.343  -2.730   0.010  0.00  0.00    -0.127 NA
ATOM     14  C   LIG    1       -2.321  -4.046   0.003  0.00  0.00    +0.182 C 
ATOM     15  N   LIG    1       -3.391  -4.916   0.002  0.00  0.00    -0.263 N 
ATOM     16  H   LIG    1       -4.290  -4.550   0.009  0.00  0.00    +0.157 HD
ATOM     17  C   LIG    1       -3.239  -6.229  -0.006  0.00  0.00    +0.229 C 
ATOM     18  C   LIG    1       -1.802  -6.728  -0.015  0.00  0.00    +0.173 C 
ATOM     19  O   LIG    1       -4.184  -6.988  -0.006  0.00  0.00    -0.275 OA
ATOM     20  S   LIG    1       -0.897  -5.125  -0.018  0.00  0.00    -0.079 S 
ENDBRANCH  12  13
ENDBRANCH   8  11
TORSDOF 3
