REMARK  Name = ZINC05782275
REMARK                            x       y       z     vdW  Elec       q    Type
REMARK                         _______ _______ _______ _____ _____    ______ ____
ROOT
ATOM      1  N   LIG    1        2.622   4.525   1.176  0.00  0.00    -0.234 N 
ATOM      2  C   LIG    1        2.529   3.757  -0.079  0.00  0.00    +0.164 C 
ATOM      3  C   LIG    1        1.145   3.085   0.008  0.00  0.00    +0.221 C 
ATOM      4  O   LIG    1        0.608   3.540   1.284  0.00  0.00    -0.443 OA
ATOM      5  C   LIG    1        1.496   4.345   1.879  0.00  0.00    +0.408 C 
ATOM      6  O   LIG    1        1.299   4.864   2.960  0.00  0.00    -0.226 OA
ENDROOT
BRANCH   1  12
ATOM      7  C   LIG    1        4.714   7.508   4.476  0.00  0.00    +0.044 C 
ATOM      8  C   LIG    1        4.749   6.771   3.163  0.00  0.00    -0.049 A 
ATOM      9  C   LIG    1        5.858   6.875   2.342  0.00  0.00    +0.003 A 
ATOM     10  C   LIG    1        5.895   6.200   1.136  0.00  0.00    +0.002 A 
ATOM     11  C   LIG    1        4.823   5.420   0.746  0.00  0.00    +0.023 A 
ATOM     12  C   LIG    1        3.709   5.314   1.567  0.00  0.00    +0.040 A 
ATOM     13  C   LIG    1        3.673   5.998   2.776  0.00  0.00    +0.027 A 
ENDBRANCH   1  12
BRANCH   3  14
ATOM     14  C   LIG    1        1.286   1.562  -0.002  0.00  0.00    +0.202 C 
BRANCH  14  15
ATOM     15  O   LIG    1       -0.011   0.963   0.007  0.00  0.00    -0.391 OA
ATOM     16  H   LIG    1        0.002  -0.004   0.002  0.00  0.00    +0.210 HD
ENDBRANCH  14  15
ENDBRANCH   3  14
TORSDOF 3
