REMARK  Name = ZINC04844910
REMARK                            x       y       z     vdW  Elec       q    Type
REMARK                         _______ _______ _______ _____ _____    ______ ____
ROOT
ATOM      1  C   LIG    1        2.236  -3.579  -2.334  0.00  0.00    +0.023 A 
ATOM      2  C   LIG    1        1.679  -4.438  -1.389  0.00  0.00    +0.042 A 
ATOM      3  C   LIG    1        2.224  -5.663  -1.150  0.00  0.00    +0.131 A 
ATOM      4  C   LIG    1        3.362  -6.071  -1.865  0.00  0.00    +0.034 A 
ATOM      5  C   LIG    1        3.952  -7.330  -1.647  0.00  0.00    +0.014 A 
ATOM      6  C   LIG    1        5.057  -7.659  -2.378  0.00  0.00    +0.020 A 
ATOM      7  C   LIG    1        5.568  -6.758  -3.310  0.00  0.00    +0.111 A 
ATOM      8  N   LIG    1        5.015  -5.586  -3.510  0.00  0.00    -0.251 NA
ATOM      9  C   LIG    1        3.933  -5.203  -2.828  0.00  0.00    +0.115 A 
ATOM     10  C   LIG    1        3.339  -3.943  -3.052  0.00  0.00    +0.148 A 
ENDROOT
BRANCH   3  11
ATOM     11  N   LIG    1        1.618  -6.561  -0.141  0.00  0.00    +0.007 N 
ATOM     12  O   LIG    1        0.416  -6.616  -0.025  0.00  0.00    -0.130 OA
BRANCH  11  13
ATOM     13  O   LIG    1        2.326  -7.239   0.566  0.00  0.00    -0.396 OA
ATOM     14  H   LIG    1        3.258  -7.196   0.476  0.00  0.00    +0.329 HD
ENDBRANCH  11  13
ENDBRANCH   3  11
BRANCH  10  15
ATOM     15  O   LIG    1        3.864  -3.094  -3.973  0.00  0.00    -0.504 OA
ATOM     16  H   LIG    1        3.468  -2.258  -4.120  0.00  0.00    +0.292 HD
ENDBRANCH  10  15
BRANCH   1  17
ATOM     17  C   LIG    1        1.607  -2.230  -2.571  0.00  0.00    +0.144 C 
BRANCH  17  18
ATOM     18  C   LIG    1        0.609  -2.332  -3.696  0.00  0.00    +0.015 A 
ATOM     19  C   LIG    1        0.754  -1.989  -5.000  0.00  0.00    +0.013 A 
ATOM     20  C   LIG    1       -0.309  -2.174  -5.863  0.00  0.00    +0.008 A 
ATOM     21  C   LIG    1       -1.466  -2.691  -5.381  0.00  0.00    +0.045 A 
ATOM     22  S   LIG    1       -1.068  -2.942  -3.659  0.00  0.00    -0.099 S 
ENDBRANCH  17  18
BRANCH  17  24
ATOM     23  C   LIG    1        0.790  -0.471  -1.096  0.00  0.00    +0.213 C 
ATOM     24  N   LIG    1        0.925  -1.787  -1.353  0.00  0.00    -0.304 N 
ATOM     25  H   LIG    1        0.572  -2.441  -0.730  0.00  0.00    +0.150 HD
ATOM     26  O   LIG    1        1.233   0.347  -1.875  0.00  0.00    -0.276 OA
BRANCH  23  28
ATOM     27  C   LIG    1        0.073   1.514   0.206  0.00  0.00    +0.013 C 
ATOM     28  C   LIG    1        0.089  -0.015   0.158  0.00  0.00    +0.092 C 
ENDBRANCH  23  28
ENDBRANCH  17  24
ENDBRANCH   1  17
TORSDOF 7
