REMARK  Name = ZINC05843955
REMARK                            x       y       z     vdW  Elec       q    Type
REMARK                         _______ _______ _______ _____ _____    ______ ____
ROOT
ATOM      1  C   LIG    1       -1.198  -2.082   0.002  0.00  0.00    +0.012 C 
ATOM      2  C   LIG    1       -1.216  -0.730   0.010  0.00  0.00    +0.052 C 
ENDROOT
BRANCH   1   8
ATOM      3  C   LIG    1       -3.684  -2.152   0.032  0.00  0.00    +0.011 A 
ATOM      4  C   LIG    1       -4.863  -2.862   0.034  0.00  0.00    +0.046 A 
ATOM      5  C   LIG    1       -4.841  -4.252   0.026  0.00  0.00    +0.117 A 
ATOM      6  C   LIG    1       -3.629  -4.933   0.011  0.00  0.00    +0.046 A 
ATOM      7  C   LIG    1       -2.444  -4.234   0.003  0.00  0.00    +0.011 A 
ATOM      8  C   LIG    1       -2.460  -2.834   0.010  0.00  0.00    -0.025 A 
BRANCH   5   9
ATOM      9  O   LIG    1       -6.008  -4.947   0.033  0.00  0.00    -0.507 OA
ATOM     10  H   LIG    1       -6.337  -5.152   0.919  0.00  0.00    +0.292 HD
ENDBRANCH   5   9
ENDBRANCH   1   8
BRANCH   2  11
ATOM     11  C   LIG    1        0.002  -0.004   0.002  0.00  0.00    +0.186 C 
ATOM     12  O   LIG    1        1.065  -0.599  -0.011  0.00  0.00    -0.287 OA
BRANCH  11  13
ATOM     13  C   LIG    1       -0.018   1.473   0.010  0.00  0.00    +0.022 A 
ATOM     14  C   LIG    1       -1.237   2.157   0.020  0.00  0.00    +0.015 A 
ATOM     15  C   LIG    1       -1.251   3.534   0.033  0.00  0.00    +0.046 A 
ATOM     16  C   LIG    1       -0.056   4.243   0.026  0.00  0.00    +0.117 A 
ATOM     17  C   LIG    1        1.159   3.567   0.010  0.00  0.00    +0.046 A 
ATOM     18  C   LIG    1        1.182   2.190   0.003  0.00  0.00    +0.015 A 
BRANCH  16  19
ATOM     19  O   LIG    1       -0.074   5.600   0.034  0.00  0.00    -0.507 OA
ATOM     20  H   LIG    1       -0.088   5.999  -0.847  0.00  0.00    +0.292 HD
ENDBRANCH  16  19
ENDBRANCH  11  13
ENDBRANCH   2  11
TORSDOF 5
