REMARK  Name = ZINC05844485
REMARK                            x       y       z     vdW  Elec       q    Type
REMARK                         _______ _______ _______ _____ _____    ______ ____
ROOT
ATOM      1  C   LIG    1        4.032  -0.807  -0.041  0.00  0.00    -0.004 A 
ATOM      2  C   LIG    1        3.187  -1.908  -0.039  0.00  0.00    +0.031 A 
ATOM      3  C   LIG    1        1.818  -1.745  -0.025  0.00  0.00    +0.084 A 
ATOM      4 CL   LIG    1        0.779  -3.136  -0.023  0.00  0.00    -0.080 Cl
ATOM      5  C   LIG    1        1.268  -0.468  -0.013  0.00  0.00    +0.157 A 
ATOM      6  C   LIG    1        2.120   0.648  -0.015  0.00  0.00    +0.066 A 
ATOM      7  C   LIG    1        1.236   1.819   0.000  0.00  0.00    +0.002 A 
ATOM      8  C   LIG    1        1.651   3.267   0.003  0.00  0.00    +0.048 C 
ATOM      9  C   LIG    1       -0.016   1.341   0.009  0.00  0.00    +0.114 A 
ATOM     10  O   LIG    1        0.002  -0.004   0.002  0.00  0.00    -0.457 OA
ATOM     11  C   LIG    1        3.508   0.471  -0.029  0.00  0.00    +0.131 A 
ENDROOT
BRANCH  11  12
ATOM     12  O   LIG    1        4.335   1.550  -0.032  0.00  0.00    -0.506 OA
ATOM     13  H   LIG    1        4.565   1.867  -0.915  0.00  0.00    +0.292 HD
ENDBRANCH  11  12
BRANCH   1  14
ATOM     14  C   LIG    1        5.525  -1.007  -0.058  0.00  0.00    +0.038 C 
BRANCH  14  16
ATOM     15  C   LIG    1        7.579  -1.160   1.358  0.00  0.00    +0.004 C 
ATOM     16  C   LIG    1        6.062  -0.958   1.374  0.00  0.00    +0.001 C 
ENDBRANCH  14  16
ENDBRANCH   1  14
BRANCH   9  17
ATOM     17  C   LIG    1       -1.263   2.187   0.020  0.00  0.00    +0.109 C 
BRANCH  17  18
ATOM     18  C   LIG    1       -1.686   2.476  -1.397  0.00  0.00    -0.040 A 
ATOM     19  C   LIG    1       -1.212   3.603  -2.043  0.00  0.00    +0.007 A 
ATOM     20  C   LIG    1       -1.593   3.867  -3.344  0.00  0.00    +0.046 A 
ATOM     21  C   LIG    1       -2.463   3.007  -3.999  0.00  0.00    +0.120 A 
ATOM     22  C   LIG    1       -2.942   1.880  -3.347  0.00  0.00    +0.046 A 
ATOM     23  C   LIG    1       -2.553   1.617  -2.048  0.00  0.00    +0.007 A 
BRANCH  21  24
ATOM     24  O   LIG    1       -2.844   3.268  -5.277  0.00  0.00    -0.495 OA
ATOM     25  C   LIG    1       -2.311   4.446  -5.885  0.00  0.00    +0.277 C 
ENDBRANCH  21  24
ENDBRANCH  17  18
ENDBRANCH   9  17
TORSDOF 6
