REMARK  Name = ZINC04843014
REMARK                            x       y       z     vdW  Elec       q    Type
REMARK                         _______ _______ _______ _____ _____    ______ ____
ROOT
ATOM      1  N   LIG    1        1.234  -2.082  -0.021  0.00  0.00    -0.277 N 
ATOM      2  H   LIG    1        2.009  -2.557   0.317  0.00  0.00    +0.155 HD
ATOM      3  C   LIG    1        0.182  -2.769  -0.509  0.00  0.00    +0.284 C 
ATOM      4  O   LIG    1       -0.747  -2.175  -1.025  0.00  0.00    -0.266 OA
ENDROOT
BRANCH   1   9
ATOM      5  C   LIG    1       -0.028   1.374   0.037  0.00  0.00    +0.002 A 
ATOM      6  C   LIG    1        1.155   2.089   0.033  0.00  0.00    +0.002 A 
ATOM      7  C   LIG    1        2.368   1.427   0.010  0.00  0.00    +0.025 A 
ATOM      8  C   LIG    1        2.401   0.041  -0.007  0.00  0.00    +0.051 A 
ATOM      9  C   LIG    1        1.208  -0.681  -0.003  0.00  0.00    +0.055 A 
ATOM     10  C   LIG    1       -0.005  -0.008   0.019  0.00  0.00    +0.025 A 
BRANCH   8  11
ATOM     11  N   LIG    1        3.628  -0.632  -0.030  0.00  0.00    -0.328 N 
ATOM     12  C   LIG    1        4.368  -1.023  -1.239  0.00  0.00    +0.105 C 
ATOM     13  C   LIG    1        5.644  -1.758  -0.777  0.00  0.00    +0.020 C 
ATOM     14  C   LIG    1        5.271  -2.238   0.650  0.00  0.00    +0.020 C 
ATOM     15  C   LIG    1        4.395  -1.060   1.153  0.00  0.00    +0.105 C 
ENDBRANCH   8  11
ENDBRANCH   1   9
BRANCH   3  16
ATOM     16  C   LIG    1        0.156  -4.232  -0.417  0.00  0.00    +0.192 A 
ATOM     17  C   LIG    1       -0.840  -5.047  -0.874  0.00  0.00    +0.057 A 
ATOM     18  C   LIG    1       -0.451  -6.363  -0.579  0.00  0.00    +0.076 A 
ATOM     19  C   LIG    1        0.750  -6.295   0.036  0.00  0.00    +0.276 A 
ATOM     20  O   LIG    1        1.115  -5.009   0.127  0.00  0.00    -0.429 OA
BRANCH  19  21
ATOM     21  N   LIG    1        1.535  -7.451   0.524  0.00  0.00    +0.043 N 
ATOM     22  O   LIG    1        1.109  -8.573   0.385  0.00  0.00    -0.127 OA
BRANCH  21  23
ATOM     23  O   LIG    1        2.603  -7.272   1.063  0.00  0.00    -0.394 OA
ATOM     24  H   LIG    1        2.933  -6.402   1.171  0.00  0.00    +0.329 HD
ENDBRANCH  21  23
ENDBRANCH  19  21
ENDBRANCH   3  16
TORSDOF 5
