REMARK  Name = ZINC05815118
REMARK                            x       y       z     vdW  Elec       q    Type
REMARK                         _______ _______ _______ _____ _____    ______ ____
ROOT
ATOM      1  C   LIG    1       -2.512   0.972   0.018  0.00  0.00    +0.044 C 
ATOM      2  C   LIG    1       -1.219   1.746   0.017  0.00  0.00    -0.050 A 
ATOM      3  C   LIG    1       -1.239   3.128   0.032  0.00  0.00    +0.003 A 
ATOM      4  C   LIG    1       -0.052   3.832   0.023  0.00  0.00    +0.004 A 
ATOM      5  C   LIG    1        1.161   3.160   0.006  0.00  0.00    -0.048 A 
ATOM      6  C   LIG    1        1.182   1.782   0.000  0.00  0.00    -0.061 A 
ATOM      7  C   LIG    1        2.473   1.006  -0.011  0.00  0.00    -0.047 C 
ATOM      8  N   LIG    1        3.588   1.865  -0.432  0.00  0.00    +0.382 N 
ATOM      9  H   LIG    1        4.473   1.357  -0.315  0.00  0.00    -0.085 HD
ATOM     10  H   LIG    1        3.468   2.121  -1.419  0.00  0.00    -0.085 HD
ATOM     11  C   LIG    1        3.617   3.090   0.390  0.00  0.00    -0.077 C 
ATOM     12  C   LIG    1        2.432   3.970  -0.008  0.00  0.00    +0.016 C 
ATOM     13  C   LIG    1       -0.013   1.076   0.008  0.00  0.00    +0.005 A 
ENDROOT
TORSDOF 0
