REMARK  Name = ZINC05736728
REMARK                            x       y       z     vdW  Elec       q    Type
REMARK                         _______ _______ _______ _____ _____    ______ ____
ROOT
ATOM      1  N   LIG    1       -0.113   5.829  -1.366  0.00  0.00    +0.382 N 
ATOM      2  H   LIG    1       -0.883   5.360  -1.858  0.00  0.00    -0.081 HD
ATOM      3  C   LIG    1       -0.348   7.288  -1.390  0.00  0.00    -0.076 C 
ATOM      4  C   LIG    1       -0.507   7.743  -2.842  0.00  0.00    +0.006 C 
ATOM      5  C   LIG    1        0.773   7.414  -3.617  0.00  0.00    +0.084 C 
ATOM      6  C   LIG    1        1.045   5.910  -3.522  0.00  0.00    +0.006 C 
ATOM      7  C   LIG    1        1.158   5.509  -2.050  0.00  0.00    -0.076 C 
ENDROOT
BRANCH   5   8
ATOM      8  N   LIG    1        0.605   7.794  -5.022  0.00  0.00    -0.342 N 
ATOM      9  C   LIG    1       -0.328   7.304  -5.863  0.00  0.00    +0.086 A 
ATOM     10  C   LIG    1       -0.181   7.889  -7.078  0.00  0.00    +0.020 A 
ATOM     11  C   LIG    1        0.895   8.775  -7.000  0.00  0.00    +0.030 A 
ATOM     12  C   LIG    1        1.380   8.707  -5.705  0.00  0.00    +0.082 A 
BRANCH  12  13
ATOM     13  C   LIG    1        2.469   9.439  -5.180  0.00  0.00    +0.276 C 
ATOM     14  O   LIG    1        3.075  10.218  -5.888  0.00  0.00    -0.294 OA
ENDBRANCH  12  13
ENDBRANCH   5   8
BRANCH   1  15
ATOM     15  C   LIG    1       -0.070   5.347   0.030  0.00  0.00    -0.043 C 
BRANCH  15  19
ATOM     16  C   LIG    1       -0.013   1.076   0.008  0.00  0.00    +0.000 A 
ATOM     17  C   LIG    1       -1.219   1.751   0.017  0.00  0.00    +0.000 A 
ATOM     18  C   LIG    1       -1.238   3.133   0.030  0.00  0.00    +0.002 A 
ATOM     19  C   LIG    1       -0.050   3.840   0.022  0.00  0.00    -0.064 A 
ATOM     20  C   LIG    1        1.156   3.165   0.008  0.00  0.00    +0.002 A 
ATOM     21  C   LIG    1        1.175   1.783   0.000  0.00  0.00    +0.000 A 
ENDBRANCH  15  19
ENDBRANCH   1  15
TORSDOF 4
