REMARK  Name = ZINC05420970
REMARK                            x       y       z     vdW  Elec       q    Type
REMARK                         _______ _______ _______ _____ _____    ______ ____
ROOT
ATOM      1  C   LIG    1        2.920   0.803  -1.442  0.00  0.00    +0.001 A 
ATOM      2  C   LIG    1        2.692  -0.314  -2.163  0.00  0.00    +0.089 A 
ATOM      3  N   LIG    1        3.221  -0.166  -3.409  0.00  0.00    -0.355 N 
ATOM      4  C   LIG    1        3.806   1.079  -3.497  0.00  0.00    +0.128 A 
ATOM      5  C   LIG    1        4.490   1.769  -4.516  0.00  0.00    +0.242 A 
ATOM      6  N   LIG    1        4.946   3.014  -4.258  0.00  0.00    -0.178 NA
ATOM      7  C   LIG    1        4.745   3.584  -3.035  0.00  0.00    +0.216 A 
ATOM      8  N   LIG    1        4.110   2.955  -2.074  0.00  0.00    -0.213 NA
ATOM      9  H   LIG    1        3.133  -0.980  -4.143  0.00  0.00    +0.166 HD
ATOM     10  C   LIG    1        3.622   1.713  -2.263  0.00  0.00    +0.101 A 
ENDROOT
BRANCH   7  11
ATOM     11  N   LIG    1        5.222   4.851  -2.802  0.00  0.00    -0.327 N 
ATOM     12  H   LIG    1        5.069   5.325  -1.822  0.00  0.00    +0.145 HD
ATOM     13  H   LIG    1        5.757   5.392  -3.597  0.00  0.00    +0.145 HD
ENDBRANCH   7  11
BRANCH   5  14
ATOM     14  O   LIG    1        4.667   1.253  -5.607  0.00  0.00    -0.491 OA
ATOM     15  H   LIG    1        4.346   0.389  -5.775  0.00  0.00    +0.294 HD
ENDBRANCH   5  14
BRANCH   1  16
ATOM     16  C   LIG    1        2.495   1.040  -0.016  0.00  0.00    +0.075 C 
BRANCH  16  19
ATOM     17  C   LIG    1       -0.084   3.795   0.022  0.00  0.00    +0.020 A 
ATOM     18  C   LIG    1        1.150   3.161   0.008  0.00  0.00    +0.007 A 
ATOM     19  C   LIG    1        1.180   1.775   0.000  0.00  0.00    -0.025 A 
ATOM     20  C   LIG    1       -0.013   1.076   0.008  0.00  0.00    +0.114 A 
ATOM     21  N   LIG    1       -1.167   1.712   0.017  0.00  0.00    -0.263 NA
ATOM     22  C   LIG    1       -1.234   3.029   0.029  0.00  0.00    +0.111 A 
ENDBRANCH  16  19
ENDBRANCH   1  16
TORSDOF 4
