REMARK  Name = ZINC05671763
REMARK                            x       y       z     vdW  Elec       q    Type
REMARK                         _______ _______ _______ _____ _____    ______ ____
ROOT
ATOM      1  C   LIG    1       -2.449   1.120   0.020  0.00  0.00    +0.081 C 
ATOM      2  C   LIG    1       -2.830   0.759  -1.417  0.00  0.00    +0.010 C 
ATOM      3  C   LIG    1       -3.000   2.039  -2.237  0.00  0.00    +0.009 C 
ATOM      4  C   LIG    1       -4.105   2.898  -1.617  0.00  0.00    -0.010 C 
ATOM      5  C   LIG    1       -5.419   2.115  -1.616  0.00  0.00    +0.007 C 
ATOM      6  C   LIG    1       -5.249   0.835  -0.796  0.00  0.00    -0.010 C 
ATOM      7  C   LIG    1       -4.868   1.196   0.641  0.00  0.00    +0.009 C 
ATOM      8  C   LIG    1       -3.724   3.260  -0.180  0.00  0.00    +0.009 C 
ATOM      9  C   LIG    1       -4.144  -0.024  -1.415  0.00  0.00    +0.009 C 
ATOM     10  C   LIG    1       -3.554   1.979   0.639  0.00  0.00    +0.010 C 
ENDROOT
BRANCH   1  14
ATOM     11  N   LIG    1        1.143   1.901   0.001  0.00  0.00    -0.299 N 
ATOM     12  H   LIG    1        1.130   2.871   0.007  0.00  0.00    +0.150 HD
ATOM     13  C   LIG    1       -0.014   1.212   0.009  0.00  0.00    +0.300 C 
ATOM     14  N   LIG    1       -1.191   1.870   0.018  0.00  0.00    -0.296 N 
ATOM     15  H   LIG    1       -1.204   2.840   0.023  0.00  0.00    +0.151 HD
ATOM     16  O   LIG    1        0.002  -0.004   0.002  0.00  0.00    -0.253 OA
BRANCH  11  17
ATOM     17  C   LIG    1        2.422   1.186  -0.015  0.00  0.00    +0.105 C 
BRANCH  17  19
ATOM     18  C   LIG    1        4.907   1.449  -0.037  0.00  0.00    +0.005 C 
ATOM     19  C   LIG    1        3.571   2.196  -0.020  0.00  0.00    +0.015 C 
ENDBRANCH  17  19
ENDBRANCH  11  17
ENDBRANCH   1  14
TORSDOF 3
