REMARK  Name = ZINC05125930
REMARK                            x       y       z     vdW  Elec       q    Type
REMARK                         _______ _______ _______ _____ _____    ______ ____
ROOT
ATOM      1  C   LIG    1       -2.498   0.985   0.019  0.00  0.00    +0.044 C 
ATOM      2  C   LIG    1       -1.197   1.746   0.017  0.00  0.00    -0.046 A 
ATOM      3  C   LIG    1       -1.202   3.151   0.031  0.00  0.00    +0.021 A 
ATOM      4  C   LIG    1       -0.038   3.835   0.023  0.00  0.00    +0.095 A 
ATOM      5  N   LIG    1        1.156   3.175   0.008  0.00  0.00    -0.284 N 
ATOM      6  C   LIG    1        1.194   1.803   0.000  0.00  0.00    +0.140 A 
ATOM      7  N   LIG    1        2.462   1.410  -0.014  0.00  0.00    -0.226 NA
ATOM      8  C   LIG    1        3.264   2.481  -0.017  0.00  0.00    +0.116 A 
ATOM      9  C   LIG    1        2.460   3.619  -0.002  0.00  0.00    +0.165 A 
ATOM     10  C   LIG    1       -0.013   1.076   0.008  0.00  0.00    +0.050 A 
ENDROOT
BRANCH   8  11
ATOM     11  C   LIG    1        4.745   2.460  -0.032  0.00  0.00    +0.008 A 
ATOM     12  C   LIG    1        5.450   3.442  -0.727  0.00  0.00    +0.014 A 
ATOM     13  C   LIG    1        6.830   3.422  -0.740  0.00  0.00    +0.050 A 
ATOM     14  C   LIG    1        7.518   2.426  -0.063  0.00  0.00    +0.158 A 
ATOM     15  C   LIG    1        6.819   1.442   0.632  0.00  0.00    +0.162 A 
ATOM     16  C   LIG    1        5.437   1.460   0.653  0.00  0.00    +0.059 A 
BRANCH  14  17
ATOM     17  O   LIG    1        8.877   2.410  -0.079  0.00  0.00    -0.503 OA
ATOM     18  H   LIG    1        9.285   2.908   0.642  0.00  0.00    +0.292 HD
ENDBRANCH  14  17
BRANCH  15  19
ATOM     19  O   LIG    1        7.497   0.467   1.295  0.00  0.00    -0.491 OA
ATOM     20  C   LIG    1        6.716  -0.509   1.988  0.00  0.00    +0.277 C 
ENDBRANCH  15  19
ENDBRANCH   8  11
BRANCH   9  21
ATOM     21  N   LIG    1        2.877   4.903   0.001  0.00  0.00    -0.235 NA
ATOM     22  C   LIG    1        3.090   5.518   1.135  0.00  0.00    +0.124 C 
BRANCH  22  23
ATOM     23  C   LIG    1        3.543   6.915   1.138  0.00  0.00    +0.036 A 
ATOM     24  C   LIG    1        3.767   7.580   2.349  0.00  0.00    +0.033 A 
ATOM     25  C   LIG    1        4.197   8.890   2.344  0.00  0.00    +0.042 A 
ATOM     26 CL   LIG    1        4.481   9.713   3.846  0.00  0.00    -0.084 Cl
ATOM     27  C   LIG    1        4.398   9.555   1.145  0.00  0.00    +0.023 A 
ATOM     28  C   LIG    1        4.176   8.912  -0.058  0.00  0.00    +0.047 A 
ATOM     29  C   LIG    1        3.749   7.594  -0.073  0.00  0.00    +0.126 A 
BRANCH  29  30
ATOM     30  O   LIG    1        3.530   6.962  -1.255  0.00  0.00    -0.506 OA
ATOM     31  H   LIG    1        2.626   7.051  -1.587  0.00  0.00    +0.292 HD
ENDBRANCH  29  30
ENDBRANCH  22  23
ENDBRANCH   9  21
TORSDOF 6
