REMARK  Name = ZINC05060466
REMARK                            x       y       z     vdW  Elec       q    Type
REMARK                         _______ _______ _______ _____ _____    ______ ____
ROOT
ATOM      1  N   LIG    1        2.394   3.964  -0.283  0.00  0.00    -0.297 N 
ATOM      2  H   LIG    1        2.382   4.921  -0.130  0.00  0.00    +0.154 HD
ENDROOT
BRANCH   1   3
ATOM      3  C   LIG    1        1.208   3.289  -0.591  0.00  0.00    +0.036 A 
ATOM      4  C   LIG    1        0.056   3.545   0.149  0.00  0.00    +0.024 A 
ATOM      5  C   LIG    1       -1.115   2.884  -0.148  0.00  0.00    +0.014 A 
ATOM      6  C   LIG    1       -1.143   1.956  -1.186  0.00  0.00    +0.028 A 
ATOM      7  C   LIG    1       -2.194   1.097  -1.763  0.00  0.00    +0.028 A 
ATOM      8  C   LIG    1       -3.539   0.889  -1.476  0.00  0.00    +0.012 A 
ATOM      9  C   LIG    1       -4.266  -0.014  -2.221  0.00  0.00    +0.001 A 
ATOM     10  C   LIG    1       -3.660  -0.712  -3.253  0.00  0.00    +0.004 A 
ATOM     11  C   LIG    1       -2.327  -0.515  -3.546  0.00  0.00    +0.047 A 
ATOM     12  C   LIG    1       -1.578   0.392  -2.806  0.00  0.00    +0.136 A 
ATOM     13  O   LIG    1       -0.283   0.773  -2.877  0.00  0.00    -0.455 OA
ATOM     14  C   LIG    1        0.013   1.699  -1.938  0.00  0.00    +0.138 A 
ATOM     15  C   LIG    1        1.188   2.372  -1.628  0.00  0.00    +0.070 A 
ENDBRANCH   1   3
BRANCH   1  16
ATOM     16  C   LIG    1        3.554   3.283  -0.200  0.00  0.00    +0.139 C 
ATOM     17  S   LIG    1        3.596   1.613  -0.576  0.00  0.00    -0.018 S 
BRANCH  16  18
ATOM     18  N   LIG    1        4.682   3.916   0.180  0.00  0.00    -0.296 N 
ATOM     19  H   LIG    1        4.645   4.843   0.464  0.00  0.00    +0.154 HD
BRANCH  18  28
ATOM     20  C   LIG    1        9.276   4.915  -1.655  0.00  0.00    +0.001 A 
ATOM     21  C   LIG    1        8.068   5.608  -1.651  0.00  0.00    +0.001 A 
ATOM     22  C   LIG    1        6.958   5.079  -1.065  0.00  0.00    +0.010 A 
ATOM     23  C   LIG    1        7.029   3.816  -0.458  0.00  0.00    +0.003 A 
ATOM     24  C   LIG    1        8.258   3.112  -0.456  0.00  0.00    -0.016 A 
ATOM     25  C   LIG    1        8.332   1.848   0.155  0.00  0.00    +0.008 A 
ATOM     26  C   LIG    1        7.227   1.313   0.744  0.00  0.00    +0.002 A 
ATOM     27  C   LIG    1        6.015   1.997   0.753  0.00  0.00    +0.024 A 
ATOM     28  C   LIG    1        5.902   3.239   0.165  0.00  0.00    +0.040 A 
ATOM     29  C   LIG    1        9.383   3.689  -1.072  0.00  0.00    +0.008 A 
ENDBRANCH  18  28
ENDBRANCH  16  18
ENDBRANCH   1  16
TORSDOF 4
