REMARK  Name = ZINC05226732
REMARK                            x       y       z     vdW  Elec       q    Type
REMARK                         _______ _______ _______ _____ _____    ______ ____
ROOT
ATOM      1  N   LIG    1       -2.112   5.794  -0.958  0.00  0.00    -0.308 N 
ATOM      2  H   LIG    1       -2.533   5.307  -1.684  0.00  0.00    +0.149 HD
ATOM      3  C   LIG    1       -1.510   5.123   0.044  0.00  0.00    +0.220 C 
ATOM      4  O   LIG    1       -0.985   5.731   0.952  0.00  0.00    -0.275 OA
ENDROOT
BRANCH   3   5
ATOM      5  C   LIG    1       -1.490   3.616   0.036  0.00  0.00    +0.048 C 
ATOM      6  C   LIG    1       -0.773   3.123  -1.223  0.00  0.00    +0.019 C 
ATOM      7  C   LIG    1       -0.753   1.593  -1.232  0.00  0.00    -0.009 C 
ATOM      8  C   LIG    1       -0.013   1.086   0.008  0.00  0.00    +0.007 C 
ATOM      9  C   LIG    1       -0.729   1.579   1.267  0.00  0.00    -0.009 C 
ATOM     10  C   LIG    1       -2.164   1.050   1.278  0.00  0.00    +0.007 C 
ATOM     11  C   LIG    1       -2.904   1.556   0.038  0.00  0.00    -0.009 C 
ATOM     12  C   LIG    1       -2.188   1.063  -1.221  0.00  0.00    +0.007 C 
ATOM     13  C   LIG    1       -2.925   3.086   0.047  0.00  0.00    +0.019 C 
ATOM     14  C   LIG    1       -0.750   3.109   1.275  0.00  0.00    +0.019 C 
ENDBRANCH   3   5
BRANCH   1  16
ATOM     15  C   LIG    1       -3.313   7.748  -0.108  0.00  0.00    +0.033 C 
ATOM     16  C   LIG    1       -2.132   7.259  -0.950  0.00  0.00    +0.100 C 
BRANCH  16  17
ATOM     17  C   LIG    1       -2.276   7.767  -2.361  0.00  0.00    -0.025 A 
ATOM     18  C   LIG    1       -3.119   7.133  -3.261  0.00  0.00    +0.025 A 
ATOM     19  C   LIG    1       -3.229   7.630  -4.546  0.00  0.00    +0.111 A 
ATOM     20  N   LIG    1       -2.537   8.688  -4.921  0.00  0.00    -0.263 NA
ATOM     21  C   LIG    1       -1.722   9.313  -4.094  0.00  0.00    +0.111 A 
ATOM     22  C   LIG    1       -1.565   8.876  -2.792  0.00  0.00    +0.025 A 
ENDBRANCH  16  17
ENDBRANCH   1  16
TORSDOF 3
