REMARK  Name = ZINC05252975
REMARK                            x       y       z     vdW  Elec       q    Type
REMARK                         _______ _______ _______ _____ _____    ______ ____
ROOT
ATOM      1  N   LIG    1        2.744   0.977  -1.615  0.00  0.00    -0.296 N 
ATOM      2  C   LIG    1        2.488   1.027  -0.171  0.00  0.00    +0.123 C 
ATOM      3  C   LIG    1        1.280   1.975   0.000  0.00  0.00    +0.124 C 
ATOM      4  C   LIG    1        1.391   2.858  -1.264  0.00  0.00    +0.112 C 
ATOM      5  C   LIG    1        2.144   1.997  -2.253  0.00  0.00    +0.217 C 
ATOM      6  O   LIG    1        2.199   2.197  -3.448  0.00  0.00    -0.276 OA
ENDROOT
BRANCH   3   7
ATOM      7  C   LIG    1       -0.014   1.204   0.009  0.00  0.00    +0.310 C 
ATOM      8  O   LIG    1        0.002  -0.004   0.002  0.00  0.00    -0.251 OA
BRANCH   7   9
ATOM      9  O   LIG    1       -1.186   1.859   0.018  0.00  0.00    -0.480 OA
ATOM     10  H   LIG    1       -1.198   2.796   0.023  0.00  0.00    +0.295 HD
ENDBRANCH   7   9
ENDBRANCH   3   7
BRANCH   1  11
ATOM     11  C   LIG    1        3.550  -0.053  -2.277  0.00  0.00    +0.142 C 
BRANCH  11  18
ATOM     12  C   LIG    1        5.453   1.113  -3.409  0.00  0.00    +0.006 A 
ATOM     13  C   LIG    1        6.772   1.524  -3.452  0.00  0.00    +0.020 A 
ATOM     14  C   LIG    1        7.631   1.202  -2.416  0.00  0.00    +0.041 A 
ATOM     15 CL   LIG    1        9.290   1.710  -2.473  0.00  0.00    -0.084 Cl
ATOM     16  C   LIG    1        7.167   0.473  -1.335  0.00  0.00    +0.020 A 
ATOM     17  C   LIG    1        5.847   0.068  -1.290  0.00  0.00    +0.006 A 
ATOM     18  C   LIG    1        4.989   0.390  -2.326  0.00  0.00    -0.030 A 
ENDBRANCH  11  18
ENDBRANCH   1  11
TORSDOF 4
