REMARK  Name = ZINC05525686
REMARK                            x       y       z     vdW  Elec       q    Type
REMARK                         _______ _______ _______ _____ _____    ______ ____
ROOT
ATOM      1  C   LIG    1       -0.690   1.992   1.212  0.00  0.00    -0.096 C 
ATOM      2  N   LIG    1        0.008   1.457   0.001  0.00  0.00    +0.379 N 
ATOM      3  H   LIG    1       -0.462   1.809  -0.842  0.00  0.00    -0.082 HD
ATOM      4  C   LIG    1        0.002  -0.004   0.002  0.00  0.00    -0.067 C 
ATOM      5  C   LIG    1        1.151  -0.372  -0.961  0.00  0.00    +0.049 C 
ATOM      6  C   LIG    1        2.082   0.858  -0.963  0.00  0.00    +0.011 C 
ATOM      7  C   LIG    1        1.417   1.866  -0.001  0.00  0.00    -0.070 C 
ENDROOT
BRANCH   6   8
ATOM      8  C   LIG    1        3.452   0.479  -0.462  0.00  0.00    -0.045 A 
ATOM      9  C   LIG    1        3.604  -0.031   0.814  0.00  0.00    +0.005 A 
ATOM     10  C   LIG    1        4.859  -0.384   1.272  0.00  0.00    +0.020 A 
ATOM     11  C   LIG    1        5.965  -0.217   0.457  0.00  0.00    +0.041 A 
ATOM     12 CL   LIG    1        7.543  -0.653   1.034  0.00  0.00    -0.084 Cl
ATOM     13  C   LIG    1        5.813   0.299  -0.818  0.00  0.00    +0.020 A 
ATOM     14  C   LIG    1        4.556   0.647  -1.277  0.00  0.00    +0.005 A 
ENDBRANCH   6   8
BRANCH   5  15
ATOM     15  C   LIG    1        0.613  -0.626  -2.345  0.00  0.00    +0.166 C 
ATOM     16  O   LIG    1        0.584   0.272  -3.159  0.00  0.00    -0.292 OA
BRANCH  15  17
ATOM     17  C   LIG    1        0.123  -1.964  -2.709  0.00  0.00    +0.036 A 
ATOM     18  C   LIG    1        0.160  -3.006  -1.776  0.00  0.00    +0.013 A 
ATOM     19  C   LIG    1       -0.305  -4.255  -2.123  0.00  0.00    +0.001 A 
ATOM     20  C   LIG    1       -0.799  -4.486  -3.396  0.00  0.00    +0.001 A 
ATOM     21  C   LIG    1       -0.836  -3.465  -4.328  0.00  0.00    +0.021 A 
ATOM     22  C   LIG    1       -0.378  -2.205  -3.994  0.00  0.00    +0.051 A 
ATOM     23 CL   LIG    1       -0.423  -0.924  -5.165  0.00  0.00    -0.083 Cl
ENDBRANCH  15  17
ENDBRANCH   5  15
TORSDOF 3
