REMARK  Name = ZINC05417663
REMARK                            x       y       z     vdW  Elec       q    Type
REMARK                         _______ _______ _______ _____ _____    ______ ____
ROOT
ATOM      1  C   LIG    1        2.144  -4.288  -3.926  0.00  0.00    +0.033 A 
ATOM      2  C   LIG    1        1.682  -5.460  -4.512  0.00  0.00    +0.025 A 
ATOM      3  C   LIG    1        2.237  -5.904  -5.695  0.00  0.00    +0.030 A 
ATOM      4  C   LIG    1        3.253  -5.185  -6.297  0.00  0.00    +0.105 A 
ATOM      5  C   LIG    1        3.716  -4.018  -5.717  0.00  0.00    +0.030 A 
ATOM      6  C   LIG    1        3.160  -3.565  -4.536  0.00  0.00    +0.025 A 
ENDROOT
BRANCH   1   8
ATOM      7  C   LIG    1        1.443  -2.513  -2.506  0.00  0.00    +0.217 C 
ATOM      8  N   LIG    1        1.583  -3.835  -2.727  0.00  0.00    -0.285 N 
ATOM      9  H   LIG    1        1.296  -4.473  -2.054  0.00  0.00    +0.155 HD
ATOM     10  O   LIG    1        1.878  -1.715  -3.308  0.00  0.00    -0.275 OA
BRANCH   7  11
ATOM     11  C   LIG    1        0.745  -2.027  -1.262  0.00  0.00    +0.096 C 
BRANCH  11  12
ATOM     12  C   LIG    1        0.721  -0.498  -1.255  0.00  0.00    +0.009 C 
BRANCH  12  14
ATOM     13  C   LIG    1       -0.012   1.526   0.015  0.00  0.00    +0.004 C 
ATOM     14  C   LIG    1        0.012  -0.004   0.008  0.00  0.00    -0.003 C 
ENDBRANCH  12  14
ENDBRANCH  11  12
ENDBRANCH   7  11
ENDBRANCH   1   8
BRANCH   4  15
ATOM     15  S   LIG    1        3.959  -5.755  -7.807  0.00  0.00    +0.056 S 
ATOM     16  O   LIG    1        3.727  -7.156  -7.861  0.00  0.00    -0.153 OA
ATOM     17  O   LIG    1        5.263  -5.196  -7.883  0.00  0.00    -0.153 OA
BRANCH  15  18
ATOM     18  N   LIG    1        3.084  -5.083  -9.042  0.00  0.00    -0.204 NA
ATOM     19  H   LIG    1        3.317  -5.277  -9.963  0.00  0.00    +0.144 HD
ATOM     20  H   LIG    1        2.337  -4.496  -8.844  0.00  0.00    +0.144 HD
ENDBRANCH  15  18
ENDBRANCH   4  15
TORSDOF 6
