REMARK  Name = ZINC05682240
REMARK                            x       y       z     vdW  Elec       q    Type
REMARK                         _______ _______ _______ _____ _____    ______ ____
ROOT
ATOM      1  C   LIG    1        3.476   1.907   0.700  0.00  0.00    -0.027 C 
ATOM      2  C   LIG    1        4.722   1.020   0.683  0.00  0.00    -0.012 C 
ATOM      3  C   LIG    1        5.140   0.755  -0.765  0.00  0.00    -0.001 C 
ATOM      4  C   LIG    1        4.001   0.050  -1.504  0.00  0.00    +0.003 C 
ATOM      5  C   LIG    1        2.754   0.937  -1.486  0.00  0.00    +0.043 C 
ATOM      6  C   LIG    1        2.337   1.201  -0.038  0.00  0.00    +0.163 C 
ENDROOT
BRANCH   1  10
ATOM      7  C   LIG    1        3.339   2.163   4.966  0.00  0.00    +0.016 C 
ATOM      8  C   LIG    1        2.404   1.193   4.239  0.00  0.00    -0.011 C 
ATOM      9  C   LIG    1        2.962   0.904   2.843  0.00  0.00    -0.078 C 
ATOM     10  N   LIG    1        3.048   2.173   2.089  0.00  0.00    +0.384 N 
ATOM     11  H   LIG    1        2.121   2.615   2.074  0.00  0.00    -0.081 HD
ATOM     12  C   LIG    1        4.004   3.090   2.745  0.00  0.00    -0.078 C 
ATOM     13  C   LIG    1        3.477   3.444   4.138  0.00  0.00    -0.011 C 
BRANCH   7  17
ATOM     14  C   LIG    1        1.712   3.109   8.801  0.00  0.00    +0.000 A 
ATOM     15  C   LIG    1        2.954   2.510   8.706  0.00  0.00    +0.000 A 
ATOM     16  C   LIG    1        3.481   2.204   7.465  0.00  0.00    +0.004 A 
ATOM     17  C   LIG    1        2.765   2.497   6.319  0.00  0.00    -0.044 A 
ATOM     18  C   LIG    1        1.526   3.102   6.414  0.00  0.00    +0.004 A 
ATOM     19  C   LIG    1        0.997   3.403   7.655  0.00  0.00    +0.000 A 
ENDBRANCH   7  17
ENDBRANCH   1  10
BRANCH   6  20
ATOM     20  O   LIG    1        1.154   2.043  -0.022  0.00  0.00    -0.459 OA
BRANCH  20  21
ATOM     21  C   LIG    1       -0.040   1.420  -0.037  0.00  0.00    +0.339 C 
ATOM     22  O   LIG    1       -0.092   0.207  -0.064  0.00  0.00    -0.245 OA
BRANCH  21  23
ATOM     23  C   LIG    1       -1.287   2.212  -0.028  0.00  0.00    +0.059 A 
ATOM     24  C   LIG    1       -1.231   3.607   0.009  0.00  0.00    +0.015 A 
ATOM     25  C   LIG    1       -2.399   4.341   0.011  0.00  0.00    +0.001 A 
ATOM     26  C   LIG    1       -3.624   3.698  -0.010  0.00  0.00    +0.000 A 
ATOM     27  C   LIG    1       -3.687   2.317  -0.041  0.00  0.00    +0.001 A 
ATOM     28  C   LIG    1       -2.527   1.570  -0.050  0.00  0.00    +0.015 A 
ENDBRANCH  21  23
ENDBRANCH  20  21
ENDBRANCH   6  20
TORSDOF 5
