REMARK  Name = ZINC05050625
REMARK                            x       y       z     vdW  Elec       q    Type
REMARK                         _______ _______ _______ _____ _____    ______ ____
ROOT
ATOM      1  C   LIG    1       -2.378   0.140   0.011  0.00  0.00    +0.075 A 
ATOM      2  C   LIG    1       -1.218  -0.624   0.009  0.00  0.00    +0.028 A 
ATOM      3  C   LIG    1        0.002  -0.002  -0.001  0.00  0.00    +0.005 A 
ATOM      4  C   LIG    1       -0.018   1.401  -0.012  0.00  0.00    +0.030 A 
ATOM      5  C   LIG    1        1.202   2.197  -0.030  0.00  0.00    +0.031 A 
ATOM      6  C   LIG    1        1.247   3.557   0.236  0.00  0.00    +0.012 A 
ATOM      7  C   LIG    1        2.460   4.219   0.211  0.00  0.00    +0.001 A 
ATOM      8  C   LIG    1        3.623   3.526  -0.079  0.00  0.00    +0.004 A 
ATOM      9  C   LIG    1        3.589   2.172  -0.353  0.00  0.00    +0.046 A 
ATOM     10  C   LIG    1        2.386   1.491  -0.342  0.00  0.00    +0.129 A 
ATOM     11  O   LIG    1        2.321   0.170  -0.626  0.00  0.00    -0.487 OA
ATOM     12  C   LIG    1        1.366  -0.683   0.002  0.00  0.00    +0.265 C 
ATOM     13  S   LIG    1       -1.731   1.808  -0.006  0.00  0.00    -0.083 S 
ENDROOT
BRANCH   1  15
ATOM     14  N   LIG    1       -4.767   0.598   0.135  0.00  0.00    -0.270 N 
ATOM     15  C   LIG    1       -3.772  -0.305   0.023  0.00  0.00    +0.257 C 
ATOM     16  O   LIG    1       -4.034  -1.490  -0.070  0.00  0.00    -0.269 OA
ATOM     17  C   LIG    1       -6.156   0.147   0.250  0.00  0.00    +0.138 C 
BRANCH  14  24
ATOM     18  C   LIG    1       -4.257   1.850   2.639  0.00  0.00    +0.045 C 
ATOM     19  C   LIG    1       -4.218   2.616   1.342  0.00  0.00    -0.029 A 
ATOM     20  C   LIG    1       -3.928   3.966   1.345  0.00  0.00    +0.005 A 
ATOM     21  C   LIG    1       -3.891   4.670   0.155  0.00  0.00    +0.000 A 
ATOM     22  C   LIG    1       -4.144   4.024  -1.042  0.00  0.00    +0.002 A 
ATOM     23  C   LIG    1       -4.430   2.673  -1.052  0.00  0.00    +0.024 A 
ATOM     24  C   LIG    1       -4.473   1.965   0.142  0.00  0.00    +0.039 A 
ENDBRANCH  14  24
ENDBRANCH   1  15
TORSDOF 2
