REMARK  Name = ZINC05532944
REMARK                            x       y       z     vdW  Elec       q    Type
REMARK                         _______ _______ _______ _____ _____    ______ ____
ROOT
ATOM      1  N   LIG    1       -2.410  -0.361   0.022  0.00  0.00    -0.304 N 
ATOM      2  H   LIG    1       -2.528   0.602   0.029  0.00  0.00    +0.150 HD
ATOM      3  C   LIG    1       -1.169  -0.887   0.008  0.00  0.00    +0.261 C 
ATOM      4  O   LIG    1       -1.021  -2.095   0.000  0.00  0.00    -0.269 OA
ENDROOT
BRANCH   3   5
ATOM      5  C   LIG    1        0.002  -0.004   0.002  0.00  0.00    +0.102 A 
ATOM      6  C   LIG    1        1.322  -0.402  -0.013  0.00  0.00    +0.032 A 
ATOM      7  C   LIG    1        2.101   0.760  -0.014  0.00  0.00    +0.020 A 
ATOM      8  C   LIG    1        1.262   1.823  -0.000  0.00  0.00    +0.083 A 
ATOM      9  N   LIG    1       -0.017   1.372   0.010  0.00  0.00    -0.357 N 
ATOM     10  H   LIG    1       -0.812   1.927   0.017  0.00  0.00    +0.165 HD
ENDBRANCH   3   5
BRANCH   1  12
ATOM     11  C   LIG    1       -3.924  -1.642  -1.408  0.00  0.00    +0.033 C 
ATOM     12  C   LIG    1       -3.580  -1.243   0.028  0.00  0.00    +0.100 C 
BRANCH  12  13
ATOM     13  C   LIG    1       -4.750  -0.520   0.643  0.00  0.00    -0.027 A 
ATOM     14  C   LIG    1       -4.961   0.817   0.364  0.00  0.00    +0.005 A 
ATOM     15  C   LIG    1       -6.038   1.479   0.925  0.00  0.00    +0.000 A 
ATOM     16  C   LIG    1       -6.898   0.806   1.772  0.00  0.00    +0.000 A 
ATOM     17  C   LIG    1       -6.684  -0.530   2.055  0.00  0.00    +0.000 A 
ATOM     18  C   LIG    1       -5.610  -1.193   1.491  0.00  0.00    +0.005 A 
ENDBRANCH  12  13
ENDBRANCH   1  12
TORSDOF 3
