REMARK  Name = ZINC04845158
REMARK                            x       y       z     vdW  Elec       q    Type
REMARK                         _______ _______ _______ _____ _____    ______ ____
ROOT
ATOM      1  C   LIG    1        5.319  -1.605   1.467  0.00  0.00    +0.121 A 
ATOM      2  C   LIG    1        6.048  -2.007   0.357  0.00  0.00    +0.049 A 
ATOM      3  C   LIG    1        7.245  -2.677   0.522  0.00  0.00    +0.049 A 
ATOM      4  C   LIG    1        7.718  -2.946   1.798  0.00  0.00    +0.121 A 
ATOM      5  C   LIG    1        6.990  -2.544   2.907  0.00  0.00    +0.049 A 
ATOM      6  C   LIG    1        5.795  -1.871   2.742  0.00  0.00    +0.049 A 
ENDROOT
BRANCH   1   7
ATOM      7  O   LIG    1        4.141  -0.946   1.304  0.00  0.00    -0.487 OA
BRANCH   7   8
ATOM      8  C   LIG    1        3.711  -0.707  -0.038  0.00  0.00    +0.264 C 
BRANCH   8  12
ATOM      9  C   LIG    1       -0.017   1.378   0.010  0.00  0.00    +0.000 A 
ATOM     10  C   LIG    1        1.171   2.086   0.002  0.00  0.00    +0.000 A 
ATOM     11  C   LIG    1        2.377   1.411  -0.013  0.00  0.00    +0.007 A 
ATOM     12  C   LIG    1        2.396   0.029  -0.020  0.00  0.00    -0.010 A 
ATOM     13  C   LIG    1        1.208  -0.679  -0.012  0.00  0.00    +0.007 A 
ATOM     14  C   LIG    1        0.002  -0.004   0.002  0.00  0.00    +0.000 A 
ENDBRANCH   8  12
ENDBRANCH   7   8
ENDBRANCH   1   7
BRANCH   4  15
ATOM     15  O   LIG    1        8.896  -3.606   1.960  0.00  0.00    -0.494 OA
BRANCH  15  16
ATOM     16  C   LIG    1        9.323  -3.850   3.302  0.00  0.00    +0.210 C 
BRANCH  16  17
ATOM     17  C   LIG    1       10.659  -4.597   3.284  0.00  0.00    -0.037 C 
BRANCH  17  18
ATOM     18  N   LIG    1       11.694  -3.736   2.697  0.00  0.00    +0.382 N 
ATOM     19  H   LIG    1       11.726  -2.857   3.192  0.00  0.00    -0.082 HD
ATOM     20  C   LIG    1       11.387  -3.490   1.272  0.00  0.00    -0.079 C 
ATOM     21  C   LIG    1       12.768  -3.457   0.570  0.00  0.00    -0.020 C 
ATOM     22  C   LIG    1       13.541  -4.555   1.348  0.00  0.00    -0.020 C 
ATOM     23  C   LIG    1       13.005  -4.404   2.787  0.00  0.00    -0.079 C 
ENDBRANCH  17  18
ENDBRANCH  16  17
ENDBRANCH  15  16
ENDBRANCH   4  15
TORSDOF 7
