REMARK  Name = ZINC05681419
REMARK                            x       y       z     vdW  Elec       q    Type
REMARK                         _______ _______ _______ _____ _____    ______ ____
ROOT
ATOM      1  C   LIG    1       -0.587   0.881   2.367  0.00  0.00    +0.244 C 
ATOM      2  N   LIG    1       -0.704   1.561   1.209  0.00  0.00    -0.310 N 
ATOM      3  H   LIG    1       -1.245   2.365   1.172  0.00  0.00    +0.149 HD
ATOM      4  O   LIG    1        0.092  -0.126   2.415  0.00  0.00    -0.270 OA
ENDROOT
BRANCH   2   5
ATOM      5  C   LIG    1       -0.013   1.086   0.008  0.00  0.00    +0.060 C 
ATOM      6  C   LIG    1        1.423   1.619  -0.003  0.00  0.00    -0.056 C 
ATOM      7  N   LIG    1        1.656   2.451  -1.203  0.00  0.00    +0.381 N 
ATOM      8  H   LIG    1        2.623   2.795  -1.187  0.00  0.00    -0.082 HD
ATOM      9  C   LIG    1        0.735   3.607  -1.204  0.00  0.00    -0.078 C 
ATOM     10  C   LIG    1       -0.721   3.131  -1.227  0.00  0.00    -0.014 C 
ATOM     11  C   LIG    1        1.454   1.643  -2.425  0.00  0.00    -0.078 C 
ATOM     12  C   LIG    1        0.020   1.111  -2.483  0.00  0.00    -0.014 C 
ATOM     13  C   LIG    1       -0.740   1.597  -1.242  0.00  0.00    +0.004 C 
ENDBRANCH   2   5
BRANCH   1  17
ATOM     14  C   LIG    1       -2.588   2.259   5.851  0.00  0.00    +0.000 A 
ATOM     15  C   LIG    1       -1.817   1.111   5.908  0.00  0.00    +0.001 A 
ATOM     16  C   LIG    1       -1.165   0.658   4.780  0.00  0.00    +0.013 A 
ATOM     17  C   LIG    1       -1.284   1.360   3.580  0.00  0.00    +0.037 A 
ATOM     18  C   LIG    1       -2.059   2.520   3.530  0.00  0.00    +0.013 A 
ATOM     19  C   LIG    1       -2.711   2.959   4.664  0.00  0.00    +0.001 A 
ENDBRANCH   1  17
TORSDOF 2
