REMARK  Name = ZINC05682980
REMARK                            x       y       z     vdW  Elec       q    Type
REMARK                         _______ _______ _______ _____ _____    ______ ____
ROOT
ATOM      1  N   LIG    1       -2.337   1.117   0.126  0.00  0.00    -0.296 N 
ATOM      2  H   LIG    1       -2.397   0.151   0.199  0.00  0.00    +0.151 HD
ATOM      3  C   LIG    1       -1.133   1.712   0.016  0.00  0.00    +0.304 C 
ATOM      4  N   LIG    1       -0.011   0.966   0.007  0.00  0.00    -0.269 N 
ATOM      5  H   LIG    1       -0.072  -0.002   0.014  0.00  0.00    +0.156 HD
ATOM      6  O   LIG    1       -1.059   2.922  -0.074  0.00  0.00    -0.253 OA
ENDROOT
BRANCH   4   7
ATOM      7  C   LIG    1        1.240   1.586  -0.017  0.00  0.00    +0.042 A 
ATOM      8  C   LIG    1        1.418   2.764  -0.710  0.00  0.00    +0.024 A 
ATOM      9  C   LIG    1        2.659   3.393  -0.737  0.00  0.00    +0.002 A 
ATOM     10  C   LIG    1        3.732   2.859  -0.089  0.00  0.00    +0.008 A 
ATOM     11  C   LIG    1        3.593   1.657   0.624  0.00  0.00    -0.016 A 
ATOM     12  C   LIG    1        4.683   1.082   1.301  0.00  0.00    +0.008 A 
ATOM     13  C   LIG    1        4.514  -0.085   1.981  0.00  0.00    +0.001 A 
ATOM     14  C   LIG    1        3.275  -0.720   2.019  0.00  0.00    +0.001 A 
ATOM     15  C   LIG    1        2.197  -0.192   1.375  0.00  0.00    +0.010 A 
ATOM     16  C   LIG    1        2.333   1.010   0.662  0.00  0.00    +0.003 A 
ENDBRANCH   4   7
BRANCH   1  21
ATOM     17  N   LIG    1       -6.246   2.331   1.121  0.00  0.00    +0.382 N 
ATOM     18  H   LIG    1       -6.272   1.494   1.716  0.00  0.00    -0.081 HD
ATOM     19  C   LIG    1       -5.146   3.207   1.576  0.00  0.00    -0.077 C 
ATOM     20  C   LIG    1       -3.839   2.412   1.561  0.00  0.00    +0.004 C 
ATOM     21  C   LIG    1       -3.557   1.928   0.136  0.00  0.00    +0.071 C 
ATOM     22  C   LIG    1       -4.738   1.083  -0.350  0.00  0.00    +0.004 C 
ATOM     23  C   LIG    1       -6.019   1.917  -0.280  0.00  0.00    -0.077 C 
BRANCH  17  24
ATOM     24  C   LIG    1       -7.537   3.041   1.235  0.00  0.00    -0.043 C 
BRANCH  24  28
ATOM     25  C   LIG    1       -8.412   3.652   5.371  0.00  0.00    +0.000 A 
ATOM     26  C   LIG    1       -7.712   4.611   4.663  0.00  0.00    +0.000 A 
ATOM     27  C   LIG    1       -7.429   4.413   3.325  0.00  0.00    +0.002 A 
ATOM     28  C   LIG    1       -7.845   3.256   2.694  0.00  0.00    -0.064 A 
ATOM     29  C   LIG    1       -8.550   2.299   3.401  0.00  0.00    +0.002 A 
ATOM     30  C   LIG    1       -8.828   2.494   4.740  0.00  0.00    +0.000 A 
ENDBRANCH  24  28
ENDBRANCH  17  24
ENDBRANCH   1  21
TORSDOF 4
