REMARK  Name = ZINC05236908
REMARK                            x       y       z     vdW  Elec       q    Type
REMARK                         _______ _______ _______ _____ _____    ______ ____
ROOT
ATOM      1  C   LIG    1        3.654   2.162  -0.022  0.00  0.00    +0.138 C 
ATOM      2  N   LIG    1        4.786   1.527  -0.036  0.00  0.00    -0.188 NA
ENDROOT
BRANCH   1   5
ATOM      3  C   LIG    1       -0.017   1.379   0.010  0.00  0.00    +0.003 A 
ATOM      4  C   LIG    1        1.166   2.089   0.002  0.00  0.00    +0.009 A 
ATOM      5  C   LIG    1        2.386   1.409  -0.013  0.00  0.00    -0.003 A 
ATOM      6  C   LIG    1        2.400   0.012  -0.021  0.00  0.00    +0.047 A 
ATOM      7  C   LIG    1        1.208  -0.687  -0.013  0.00  0.00    +0.124 A 
ATOM      8  F   LIG    1        1.218  -2.038  -0.020  0.00  0.00    -0.205 F 
ATOM      9  C   LIG    1        0.002  -0.004   0.002  0.00  0.00    +0.038 A 
ENDBRANCH   1   5
BRANCH   2  10
ATOM     10  N   LIG    1        5.990   2.243  -0.044  0.00  0.00    -0.219 N 
ATOM     11  H   LIG    1        5.978   3.212  -0.039  0.00  0.00    +0.176 HD
BRANCH  10  12
ATOM     12  C   LIG    1        7.166   1.583  -0.059  0.00  0.00    +0.147 C 
ATOM     13  S   LIG    1        8.637   2.458  -0.069  0.00  0.00    -0.017 S 
BRANCH  12  14
ATOM     14  N   LIG    1        7.182   0.235  -0.066  0.00  0.00    -0.339 N 
ATOM     15  H   LIG    1        8.028  -0.239  -0.076  0.00  0.00    +0.144 HD
ATOM     16  H   LIG    1        6.348  -0.260  -0.060  0.00  0.00    +0.144 HD
ENDBRANCH  12  14
ENDBRANCH  10  12
ENDBRANCH   2  10
TORSDOF 4
