REMARK  Name = ZINC05388583
REMARK                            x       y       z     vdW  Elec       q    Type
REMARK                         _______ _______ _______ _____ _____    ______ ____
ROOT
ATOM      1  C   LIG    1       -1.140   3.177   0.029  0.00  0.00    +0.092 A 
ATOM      2  C   LIG    1       -1.190   1.763   0.017  0.00  0.00    +0.035 A 
ATOM      3  C   LIG    1       -0.013   1.076   0.008  0.00  0.00    +0.074 A 
ATOM      4  C   LIG    1        1.188   1.821   0.001  0.00  0.00    +0.268 A 
ATOM      5  N   LIG    1        1.133   3.166   0.008  0.00  0.00    -0.225 N 
ATOM      6  O   LIG    1        2.266   1.249  -0.013  0.00  0.00    -0.266 OA
ATOM      7  N   LIG    1        0.016   3.797   0.021  0.00  0.00    -0.168 NA
ENDROOT
BRANCH   1  11
ATOM      8  C   LIG    1       -4.757   5.421   0.074  0.00  0.00    +0.162 A 
ATOM      9  C   LIG    1       -4.801   4.035   0.068  0.00  0.00    +0.050 A 
ATOM     10  C   LIG    1       -3.630   3.305   0.053  0.00  0.00    +0.014 A 
ATOM     11  C   LIG    1       -2.399   3.960   0.045  0.00  0.00    +0.006 A 
ATOM     12  C   LIG    1       -2.354   5.354   0.057  0.00  0.00    +0.059 A 
ATOM     13  C   LIG    1       -3.531   6.081   0.066  0.00  0.00    +0.162 A 
BRANCH   8  15
ATOM     14  C   LIG    1       -7.135   5.394   0.097  0.00  0.00    +0.277 C 
ATOM     15  O   LIG    1       -5.913   6.136   0.089  0.00  0.00    -0.491 OA
ENDBRANCH   8  15
BRANCH  13  16
ATOM     16  O   LIG    1       -3.490   7.440   0.073  0.00  0.00    -0.491 OA
ATOM     17  C   LIG    1       -2.198   8.051   0.064  0.00  0.00    +0.277 C 
ENDBRANCH  13  16
ENDBRANCH   1  11
BRANCH   5  18
ATOM     18  C   LIG    1        2.384   3.929   0.000  0.00  0.00    +0.182 C 
BRANCH  18  19
ATOM     19  C   LIG    1        2.800   4.198  -1.423  0.00  0.00    -0.026 A 
ATOM     20  C   LIG    1        3.619   3.303  -2.084  0.00  0.00    +0.005 A 
ATOM     21  C   LIG    1        3.997   3.547  -3.392  0.00  0.00    +0.000 A 
ATOM     22  C   LIG    1        3.564   4.692  -4.034  0.00  0.00    +0.000 A 
ATOM     23  C   LIG    1        2.748   5.590  -3.370  0.00  0.00    +0.000 A 
ATOM     24  C   LIG    1        2.367   5.343  -2.065  0.00  0.00    +0.005 A 
ENDBRANCH  18  19
ENDBRANCH   5  18
TORSDOF 5
