REMARK  Name = ZINC05612175
REMARK                            x       y       z     vdW  Elec       q    Type
REMARK                         _______ _______ _______ _____ _____    ______ ____
ROOT
ATOM      1  C   LIG    1       -1.298  -0.764   0.137  0.00  0.00    +0.044 C 
ATOM      2  C   LIG    1        0.000   0.001   0.123  0.00  0.00    -0.045 A 
ATOM      3  C   LIG    1       -0.017   1.374   0.011  0.00  0.00    +0.031 A 
ATOM      4  C   LIG    1        1.180   2.083  -0.002  0.00  0.00    +0.068 A 
ATOM      5  C   LIG    1        2.401   1.389   0.101  0.00  0.00    +0.088 A 
ATOM      6  N   LIG    1        3.571   2.054   0.092  0.00  0.00    -0.240 NA
ATOM      7  C   LIG    1        3.604   3.361  -0.015  0.00  0.00    +0.136 A 
ATOM      8  C   LIG    1        2.348   4.125  -0.125  0.00  0.00    +0.275 A 
ATOM      9  O   LIG    1        2.370   5.338  -0.224  0.00  0.00    -0.266 OA
ATOM     10  C   LIG    1        2.390  -0.010   0.215  0.00  0.00    +0.033 A 
ATOM     11  N   LIG    1        1.172   3.460  -0.115  0.00  0.00    -0.319 N 
ATOM     12  H   LIG    1        0.334   3.943  -0.187  0.00  0.00    +0.169 HD
ATOM     13  C   LIG    1        1.204  -0.684   0.226  0.00  0.00    -0.045 A 
ATOM     14  C   LIG    1        1.200  -2.186   0.348  0.00  0.00    +0.044 C 
ENDROOT
BRANCH   7  15
ATOM     15  C   LIG    1        4.904   4.069  -0.024  0.00  0.00    +0.006 A 
ATOM     16  C   LIG    1        5.041   5.273  -0.717  0.00  0.00    +0.010 A 
ATOM     17  C   LIG    1        6.253   5.931  -0.716  0.00  0.00    +0.001 A 
ATOM     18  C   LIG    1        7.335   5.395  -0.040  0.00  0.00    +0.000 A 
ATOM     19  C   LIG    1        7.207   4.199   0.645  0.00  0.00    +0.001 A 
ATOM     20  C   LIG    1        5.998   3.534   0.656  0.00  0.00    +0.010 A 
ENDBRANCH   7  15
TORSDOF 1
