REMARK  Name = ZINC05009799
REMARK                            x       y       z     vdW  Elec       q    Type
REMARK                         _______ _______ _______ _____ _____    ______ ____
ROOT
ATOM      1  C   LIG    1        4.220   0.902   2.278  0.00  0.00    +0.059 A 
ATOM      2  C   LIG    1        5.559   1.292   2.405  0.00  0.00    +0.015 A 
ATOM      3  C   LIG    1        6.105   2.175   1.502  0.00  0.00    +0.001 A 
ATOM      4  C   LIG    1        5.336   2.682   0.465  0.00  0.00    +0.004 A 
ATOM      5  C   LIG    1        4.016   2.303   0.323  0.00  0.00    +0.046 A 
ATOM      6  C   LIG    1        3.445   1.418   1.226  0.00  0.00    +0.131 A 
ENDROOT
BRANCH   1   7
ATOM      7  C   LIG    1        3.630  -0.040   3.237  0.00  0.00    +0.167 C 
ATOM      8  O   LIG    1        2.470  -0.375   3.122  0.00  0.00    -0.292 OA
BRANCH   7   9
ATOM      9  C   LIG    1        4.466  -0.590   4.363  0.00  0.00    +0.084 C 
BRANCH   9  10
ATOM     10  C   LIG    1        3.618  -1.541   5.210  0.00  0.00    +0.043 C 
BRANCH  10  14
ATOM     11  C   LIG    1        5.987  -3.102   8.403  0.00  0.00    +0.000 A 
ATOM     12  C   LIG    1        5.270  -1.934   8.582  0.00  0.00    +0.000 A 
ATOM     13  C   LIG    1        4.504  -1.429   7.548  0.00  0.00    +0.003 A 
ATOM     14  C   LIG    1        4.454  -2.092   6.337  0.00  0.00    -0.047 A 
ATOM     15  C   LIG    1        5.166  -3.264   6.160  0.00  0.00    +0.003 A 
ATOM     16  C   LIG    1        5.936  -3.766   7.192  0.00  0.00    +0.000 A 
ENDBRANCH  10  14
ENDBRANCH   9  10
ENDBRANCH   7   9
ENDBRANCH   1   7
BRANCH   6  17
ATOM     17  O   LIG    1        2.147   1.049   1.091  0.00  0.00    -0.489 OA
BRANCH  17  18
ATOM     18  C   LIG    1        1.423   1.615  -0.003  0.00  0.00    +0.258 C 
BRANCH  18  19
ATOM     19  C   LIG    1       -0.013   1.086   0.008  0.00  0.00    +0.135 C 
BRANCH  19  20
ATOM     20  O   LIG    1       -0.682   1.547   1.184  0.00  0.00    -0.390 OA
ATOM     21  H   LIG    1       -0.732   2.510   1.256  0.00  0.00    +0.210 HD
ENDBRANCH  19  20
BRANCH  19  22
ATOM     22  C   LIG    1       -0.753   1.593  -1.232  0.00  0.00    -0.044 C 
BRANCH  22  23
ATOM     23  N   LIG    1       -2.142   1.091  -1.194  0.00  0.00    +0.381 N 
ATOM     24  H   LIG    1       -2.556   1.323  -0.283  0.00  0.00    -0.082 HD
ATOM     25  C   LIG    1       -2.940   1.734  -2.260  0.00  0.00    -0.079 C 
ATOM     26  C   LIG    1       -4.398   1.290  -2.126  0.00  0.00    -0.019 C 
ATOM     27  C   LIG    1       -4.478  -0.233  -2.269  0.00  0.00    -0.004 C 
ATOM     28  C   LIG    1       -3.589  -0.884  -1.206  0.00  0.00    -0.019 C 
ATOM     29  C   LIG    1       -2.154  -0.377  -1.367  0.00  0.00    -0.079 C 
ENDBRANCH  22  23
ENDBRANCH  19  22
ENDBRANCH  18  19
ENDBRANCH  17  18
ENDBRANCH   6  17
TORSDOF 10
