REMARK  Name = ZINC05081018
REMARK                            x       y       z     vdW  Elec       q    Type
REMARK                         _______ _______ _______ _____ _____    ______ ____
ROOT
ATOM      1  C   UNK    1       -0.104   5.306   0.066  0.00  0.00    +0.091 C 
ENDROOT
BRANCH   1   2
ATOM      2  C   UNK    1       -1.498   5.792  -0.237  0.00  0.00    -0.023 A 
ATOM      3  C   UNK    1       -2.288   6.301   0.777  0.00  0.00    +0.007 A 
ATOM      4  C   UNK    1       -3.565   6.751   0.499  0.00  0.00    +0.015 A 
ATOM      5  C   UNK    1       -4.057   6.681  -0.792  0.00  0.00    +0.018 A 
ATOM      6 BR   UNK    1       -5.807   7.290  -1.172  0.00  0.00    -0.050 Br
ATOM      7  C   UNK    1       -3.269   6.166  -1.805  0.00  0.00    +0.015 A 
ATOM      8  C   UNK    1       -1.990   5.721  -1.527  0.00  0.00    +0.007 A 
ENDBRANCH   1   2
BRANCH   1  12
ATOM      9  C   UNK    1       -0.219   1.141   1.006  0.00  0.00    +0.000 A 
ATOM     10  C   UNK    1       -0.918   2.045   1.784  0.00  0.00    +0.000 A 
ATOM     11  C   UNK    1       -0.876   3.393   1.484  0.00  0.00    +0.005 A 
ATOM     12  C   UNK    1       -0.145   3.837   0.398  0.00  0.00    -0.023 A 
ATOM     13  C   UNK    1        0.550   2.933  -0.384  0.00  0.00    +0.005 A 
ATOM     14  C   UNK    1        0.512   1.585  -0.080  0.00  0.00    +0.000 A 
ENDBRANCH   1  12
BRANCH   1  15
ATOM     15  C   UNK    1        0.450   6.071   1.240  0.00  0.00    -0.023 A 
ATOM     16  C   UNK    1        0.940   5.391   2.339  0.00  0.00    +0.005 A 
ATOM     17  C   UNK    1        1.453   6.093   3.414  0.00  0.00    +0.000 A 
ATOM     18  C   UNK    1        1.466   7.475   3.394  0.00  0.00    +0.000 A 
ATOM     19  C   UNK    1        0.971   8.155   2.298  0.00  0.00    +0.000 A 
ATOM     20  C   UNK    1        0.463   7.454   1.221  0.00  0.00    +0.005 A 
ENDBRANCH   1  15
BRANCH   1  21
ATOM     21  S   UNK    1        0.956   5.570  -1.382  0.00  0.00    -0.141 S 
BRANCH  21  22
ATOM     22  C   UNK    1        2.614   5.121  -0.800  0.00  0.00    +0.065 C 
BRANCH  22  23
ATOM     23  C   UNK    1        3.635   5.397  -1.906  0.00  0.00    +0.046 C 
BRANCH  23  24
ATOM     24  N   UNK    1        3.318   4.605  -3.108  0.00  0.00    +0.387 N 
ATOM     25  H   UNK    1        4.033   4.780  -3.825  0.00  0.00    -0.089 HD
ATOM     26  H   UNK    1        2.407   4.876  -3.474  0.00  0.00    -0.089 HD
ATOM     27  H   UNK    1        3.311   3.612  -2.880  0.00  0.00    -0.089 HD
ENDBRANCH  23  24
BRANCH  23  28
ATOM     28  C   UNK    1        5.012   5.024  -1.423  0.00  0.00    +0.291 C 
ATOM     29  O   UNK    1        5.502   3.969  -1.750  0.00  0.00    -0.253 OA
BRANCH  28  30
ATOM     30  O   UNK    1        5.695   5.864  -0.629  0.00  0.00    -0.482 OA
ATOM     31  H   UNK    1        5.316   6.682  -0.375  0.00  0.00    +0.295 HD
ENDBRANCH  28  30
ENDBRANCH  23  28
ENDBRANCH  22  23
ENDBRANCH  21  22
ENDBRANCH   1  21
TORSDOF 9
