REMARK  Name = ZINC05610419
REMARK                            x       y       z     vdW  Elec       q    Type
REMARK                         _______ _______ _______ _____ _____    ______ ____
ROOT
ATOM      1  C   LIG    1        1.024   5.873   0.763  0.00  0.00    +0.162 A 
ATOM      2  C   LIG    1       -0.132   5.186   0.525  0.00  0.00    +0.062 A 
ATOM      3  C   LIG    1       -0.137   3.788   0.606  0.00  0.00    +0.044 A 
ATOM      4  C   LIG    1        1.055   3.096   0.934  0.00  0.00    +0.080 A 
ATOM      5  N   LIG    1        1.023   1.756   1.005  0.00  0.00    -0.235 NA
ATOM      6  C   LIG    1       -0.092   1.104   0.774  0.00  0.00    +0.223 A 
ATOM      7  N   LIG    1       -1.227   1.707   0.460  0.00  0.00    -0.220 NA
ATOM      8  C   LIG    1        2.228   3.821   1.174  0.00  0.00    +0.078 A 
ATOM      9  C   LIG    1       -1.307   3.029   0.369  0.00  0.00    +0.134 A 
ATOM     10  C   LIG    1        2.207   5.195   1.088  0.00  0.00    +0.164 A 
ENDROOT
BRANCH   1  12
ATOM     11  C   LIG    1       -0.209   7.864   0.349  0.00  0.00    +0.277 C 
ATOM     12  O   LIG    1        1.027   7.231   0.684  0.00  0.00    -0.491 OA
ENDBRANCH   1  12
BRANCH   9  13
ATOM     13  N   LIG    1       -2.499   3.645   0.045  0.00  0.00    -0.297 N 
ATOM     14  H   LIG    1       -2.523   4.602  -0.113  0.00  0.00    +0.154 HD
BRANCH  13  15
ATOM     15  C   LIG    1       -3.673   2.890  -0.053  0.00  0.00    +0.068 A 
ATOM     16  C   LIG    1       -3.743   1.633   0.532  0.00  0.00    +0.026 A 
ATOM     17  C   LIG    1       -4.905   0.892   0.437  0.00  0.00    +0.002 A 
ATOM     18  C   LIG    1       -5.995   1.396  -0.249  0.00  0.00    +0.003 A 
ATOM     19  C   LIG    1       -5.929   2.646  -0.837  0.00  0.00    +0.040 A 
ATOM     20  C   LIG    1       -4.771   3.395  -0.742  0.00  0.00    +0.144 A 
ATOM     21  F   LIG    1       -4.705   4.616  -1.317  0.00  0.00    -0.204 F 
ENDBRANCH  13  15
ENDBRANCH   9  13
BRANCH  10  22
ATOM     22  O   LIG    1        3.344   5.901   1.321  0.00  0.00    -0.491 OA
ATOM     23  C   LIG    1        4.516   5.153   1.647  0.00  0.00    +0.277 C 
ENDBRANCH  10  22
TORSDOF 4
