REMARK  Name = ZINC05138969
REMARK                            x       y       z     vdW  Elec       q    Type
REMARK                         _______ _______ _______ _____ _____    ______ ____
ROOT
ATOM      1  C   LIG    1        4.824   4.815   0.880  0.00  0.00    +0.169 C 
ATOM      2  N   LIG    1        3.380   4.650   0.628  0.00  0.00    -0.271 N 
ATOM      3  C   LIG    1        2.733   3.502   0.908  0.00  0.00    +0.218 C 
ATOM      4  O   LIG    1        1.548   3.399   0.669  0.00  0.00    -0.276 OA
ATOM      5  C   LIG    1        2.693   5.803   0.050  0.00  0.00    +0.196 C 
ATOM      6  C   LIG    1        3.650   6.620  -0.863  0.00  0.00    +0.105 C 
ATOM      7  S   LIG    1        5.190   6.467   0.150  0.00  0.00    -0.131 S 
ENDROOT
BRANCH   1  12
ATOM      8  C   LIG    1        4.400   4.385   4.607  0.00  0.00    +0.001 A 
ATOM      9  C   LIG    1        5.634   4.794   5.078  0.00  0.00    +0.004 A 
ATOM     10  C   LIG    1        6.609   5.210   4.192  0.00  0.00    +0.046 A 
ATOM     11  C   LIG    1        6.351   5.213   2.829  0.00  0.00    +0.123 A 
ATOM     12  C   LIG    1        5.110   4.808   2.360  0.00  0.00    +0.024 A 
ATOM     13  C   LIG    1        4.138   4.393   3.250  0.00  0.00    +0.010 A 
BRANCH  11  14
ATOM     14  O   LIG    1        7.310   5.617   1.955  0.00  0.00    -0.506 OA
ATOM     15  H   LIG    1        7.293   6.564   1.763  0.00  0.00    +0.292 HD
ENDBRANCH  11  14
ENDBRANCH   1  12
BRANCH   5  16
ATOM     16  C   LIG    1        1.519   5.324  -0.763  0.00  0.00    +0.326 C 
ATOM     17  O   LIG    1        1.620   4.332  -1.445  0.00  0.00    -0.249 OA
BRANCH  16  18
ATOM     18  O   LIG    1        0.360   6.000  -0.731  0.00  0.00    -0.479 OA
ATOM     19  H   LIG    1        0.281   6.770  -0.203  0.00  0.00    +0.295 HD
ENDBRANCH  16  18
ENDBRANCH   5  16
BRANCH   3  20
ATOM     20  C   LIG    1        3.481   2.345   1.519  0.00  0.00    +0.106 C 
BRANCH  20  21
ATOM     21  C   LIG    1        2.551   1.135   1.626  0.00  0.00    +0.075 C 
BRANCH  21  22
ATOM     22  S   LIG    1        3.453  -0.257   2.361  0.00  0.00    -0.178 S 
ATOM     23  H   LIG    1        2.543  -1.248   2.403  0.00  0.00    +0.102 HD
ENDBRANCH  21  22
ENDBRANCH  20  21
ENDBRANCH   3  20
TORSDOF 7
