REMARK  Name = ZINC04899517
REMARK                            x       y       z     vdW  Elec       q    Type
REMARK                         _______ _______ _______ _____ _____    ______ ____
ROOT
ATOM      1  CA  TYR A  2       -1.181   3.153   5.444  0.00  0.00    +0.186 C 
ENDROOT
BRANCH   1   3
ATOM      2  C   ILE A  1       -0.769   1.457   3.743  0.00  0.00    +0.199 C 
ATOM      3  N   TYR A  2       -0.495   2.680   4.239  0.00  0.00    -0.303 N 
ATOM      4  H   TYR A  2        0.156   3.248   3.797  0.00  0.00    +0.149 HD
ATOM      5  O   ILE A  1       -1.583   0.748   4.295  0.00  0.00    -0.278 OA
BRANCH   2   6
ATOM      6  CA  ILE A  1       -0.064   0.971   2.503  0.00  0.00    +0.016 C 
BRANCH   6   7
ATOM      7  N   ILE A  1       -0.137  -0.500   2.456  0.00  0.00    +0.386 N 
ATOM      8  H1  ILE A  1        0.284  -0.886   3.309  0.00  0.00    -0.089 HD
ATOM      9  H2  ILE A  1        0.372  -0.849   1.646  0.00  0.00    -0.089 HD
ATOM     10  H3  ILE A  1       -1.109  -0.799   2.401  0.00  0.00    -0.089 HD
ENDBRANCH   6   7
BRANCH   6  11
ATOM     11  CB  ILE A  1       -0.729   1.579   1.267  0.00  0.00    -0.020 C 
ATOM     12  CG2 ILE A  1       -0.641   3.105   1.339  0.00  0.00    +0.006 C 
BRANCH  11  14
ATOM     13  CD1 ILE A  1       -0.753   1.593  -1.232  0.00  0.00    +0.004 C 
ATOM     14  CG1 ILE A  1       -0.013   1.086   0.008  0.00  0.00    -0.001 C 
ENDBRANCH  11  14
ENDBRANCH   6  11
ENDBRANCH   2   6
ENDBRANCH   1   3
BRANCH   1  15
ATOM     15  C   TYR A  2       -2.505   3.763   5.062  0.00  0.00    +0.326 C 
ATOM     16  O   TYR A  2       -2.841   3.799   3.902  0.00  0.00    -0.249 OA
BRANCH  15  17
ATOM     17  OXT TYR A  2       -3.311   4.266   6.011  0.00  0.00    -0.479 OA
ATOM     18  HXT TYR A  2       -3.050   4.238   6.910  0.00  0.00    +0.295 HD
ENDBRANCH  15  17
ENDBRANCH   1  15
BRANCH   1  19
ATOM     19  CB  TYR A  2       -0.317   4.205   6.143  0.00  0.00    +0.069 C 
BRANCH  19  20
ATOM     20  CG  TYR A  2        0.956   3.565   6.633  0.00  0.00    -0.045 A 
ATOM     21  CD2 TYR A  2        1.009   3.020   7.903  0.00  0.00    +0.007 A 
ATOM     22  CE2 TYR A  2        2.174   2.428   8.353  0.00  0.00    +0.045 A 
ATOM     23  CZ  TYR A  2        3.292   2.389   7.534  0.00  0.00    +0.117 A 
ATOM     24  CE1 TYR A  2        3.238   2.942   6.262  0.00  0.00    +0.045 A 
ATOM     25  CD1 TYR A  2        2.070   3.529   5.815  0.00  0.00    +0.007 A 
BRANCH  23  26
ATOM     26  OH  TYR A  2        4.441   1.812   7.976  0.00  0.00    -0.507 OA
ATOM     27  HH  TYR A  2        5.038   2.422   8.430  0.00  0.00    +0.292 HD
ENDBRANCH  23  26
ENDBRANCH  19  20
ENDBRANCH   1  19
TORSDOF 10
