REMARK  Name = ZINC05121035
REMARK                            x       y       z     vdW  Elec       q    Type
REMARK                         _______ _______ _______ _____ _____    ______ ____
ROOT
ATOM      1  C   LIG    1        1.976  -6.349  -0.043  0.00  0.00    +0.060 A 
ATOM      2  C   LIG    1        0.972  -7.310  -0.049  0.00  0.00    +0.025 A 
ATOM      3  C   LIG    1        1.297  -8.650  -0.058  0.00  0.00    +0.002 A 
ATOM      4  C   LIG    1        2.624  -9.050  -0.063  0.00  0.00    +0.001 A 
ATOM      5  C   LIG    1        3.634  -8.113  -0.057  0.00  0.00    +0.015 A 
ATOM      6  C   LIG    1        3.321  -6.751  -0.053  0.00  0.00    +0.059 A 
ENDROOT
BRANCH   6   7
ATOM      7  C   LIG    1        4.396  -5.743  -0.053  0.00  0.00    +0.246 C 
ATOM      8  N   LIG    1        5.686  -6.133  -0.063  0.00  0.00    -0.307 N 
ATOM      9  H   LIG    1        5.907  -7.078  -0.069  0.00  0.00    +0.149 HD
ATOM     10  O   LIG    1        4.119  -4.559  -0.045  0.00  0.00    -0.270 OA
BRANCH   8  11
ATOM     11  C   LIG    1        6.755  -5.131  -0.063  0.00  0.00    +0.139 C 
BRANCH  11  12
ATOM     12  C   LIG    1        8.093  -5.824  -0.074  0.00  0.00    -0.030 A 
ATOM     13  C   LIG    1        8.711  -6.153   1.118  0.00  0.00    +0.005 A 
ATOM     14  C   LIG    1        9.938  -6.789   1.107  0.00  0.00    +0.000 A 
ATOM     15  C   LIG    1       10.548  -7.095  -0.095  0.00  0.00    +0.000 A 
ATOM     16  C   LIG    1        9.930  -6.767  -1.287  0.00  0.00    +0.000 A 
ATOM     17  C   LIG    1        8.700  -6.135  -1.277  0.00  0.00    +0.005 A 
ENDBRANCH  11  12
ENDBRANCH   8  11
ENDBRANCH   6   7
BRANCH   1  18
ATOM     18  N   LIG    1        1.651  -4.999  -0.034  0.00  0.00    -0.216 N 
ATOM     19  H   LIG    1        2.365  -4.321  -0.035  0.00  0.00    +0.174 HD
BRANCH  18  20
ATOM     20  S   LIG    1        0.063  -4.530  -0.023  0.00  0.00    +0.072 S 
ATOM     21  O   LIG    1       -0.490  -4.937  -1.267  0.00  0.00    -0.150 OA
ATOM     22  O   LIG    1       -0.476  -4.950   1.223  0.00  0.00    -0.150 OA
BRANCH  20  27
ATOM     23  C   LIG    1       -0.018   1.503   0.010  0.00  0.00    +0.044 C 
ATOM     24  C   LIG    1        0.002  -0.004   0.002  0.00  0.00    -0.050 A 
ATOM     25  C   LIG    1        0.006  -0.689  -1.199  0.00  0.00    +0.005 A 
ATOM     26  C   LIG    1        0.025  -2.071  -1.206  0.00  0.00    +0.029 A 
ATOM     27  C   LIG    1        0.040  -2.768  -0.013  0.00  0.00    +0.109 A 
ATOM     28  C   LIG    1        0.037  -2.084   1.188  0.00  0.00    +0.029 A 
ATOM     29  C   LIG    1        0.023  -0.702   1.195  0.00  0.00    +0.005 A 
ENDBRANCH  20  27
ENDBRANCH  18  20
ENDBRANCH   1  18
TORSDOF 6
