REMARK  Name = ZINC04970403
REMARK                            x       y       z     vdW  Elec       q    Type
REMARK                         _______ _______ _______ _____ _____    ______ ____
ROOT
ATOM      1  C   LIG    1       -0.018   1.503   0.010  0.00  0.00    +0.047 C 
ATOM      2  C   LIG    1        0.002  -0.004   0.002  0.00  0.00    -0.005 A 
ATOM      3  C   LIG    1        0.006  -0.688  -1.198  0.00  0.00    +0.054 A 
ATOM      4  C   LIG    1        0.025  -2.075  -1.206  0.00  0.00    +0.147 A 
ATOM      5  C   LIG    1        0.041  -2.775  -0.008  0.00  0.00    +0.153 A 
ATOM      6  C   LIG    1        0.037  -2.091   1.192  0.00  0.00    +0.078 A 
ATOM      7  C   LIG    1        0.023  -0.704   1.199  0.00  0.00    +0.125 A 
ENDROOT
BRANCH   5   8
ATOM      8  S   LIG    1        0.065  -4.537  -0.018  0.00  0.00    +0.076 S 
ATOM      9  O   LIG    1        0.050  -4.951   1.341  0.00  0.00    -0.150 OA
ATOM     10  O   LIG    1        1.091  -4.924  -0.921  0.00  0.00    -0.150 OA
BRANCH   8  11
ATOM     11  N   LIG    1       -1.366  -5.042  -0.682  0.00  0.00    -0.215 N 
ATOM     12  H   LIG    1       -2.003  -5.536  -0.143  0.00  0.00    +0.174 HD
BRANCH  11  13
ATOM     13  C   LIG    1       -1.655  -4.757  -2.019  0.00  0.00    +0.066 A 
ATOM     14  C   LIG    1       -2.911  -4.277  -2.384  0.00  0.00    +0.027 A 
ATOM     15  C   LIG    1       -3.150  -4.009  -3.721  0.00  0.00    +0.022 A 
ATOM     16  C   LIG    1       -2.142  -4.224  -4.643  0.00  0.00    +0.111 A 
ATOM     17  N   LIG    1       -0.963  -4.678  -4.266  0.00  0.00    -0.261 NA
ATOM     18  C   LIG    1       -0.692  -4.941  -3.003  0.00  0.00    +0.135 A 
ENDBRANCH  11  13
ENDBRANCH   8  11
ENDBRANCH   5   8
BRANCH   4  19
ATOM     19  O   LIG    1        0.028  -2.748  -2.387  0.00  0.00    -0.493 OA
ATOM     20  C   LIG    1        0.011  -1.964  -3.581  0.00  0.00    +0.277 C 
ENDBRANCH   4  19
BRANCH   7  21
ATOM     21  O   LIG    1        0.025  -0.030   2.380  0.00  0.00    -0.495 OA
ATOM     22  C   LIG    1        0.047  -0.815   3.575  0.00  0.00    +0.277 C 
ENDBRANCH   7  21
TORSDOF 5
