REMARK  Name = ZINC04867554
REMARK                            x       y       z     vdW  Elec       q    Type
REMARK                         _______ _______ _______ _____ _____    ______ ____
ROOT
ATOM      1  C   LIG    1        4.996  -2.737  -0.011  0.00  0.00    +0.225 C 
ATOM      2  N   LIG    1        5.113  -4.040  -0.039  0.00  0.00    -0.206 NA
ATOM      3  C   LIG    1        6.435  -4.368  -0.070  0.00  0.00    +0.152 C 
ATOM      4  C   LIG    1        7.161  -3.082  -0.058  0.00  0.00    +0.364 C 
ATOM      5  O   LIG    1        8.365  -2.914  -0.077  0.00  0.00    -0.243 OA
ATOM      6  C   LIG    1        6.980  -5.634  -0.105  0.00  0.00    +0.044 C 
ATOM      7  O   LIG    1        6.201  -2.132  -0.027  0.00  0.00    -0.403 OA
ENDROOT
BRANCH   6   8
ATOM      8  C   LIG    1        6.111  -6.810   0.002  0.00  0.00    -0.005 A 
ATOM      9  C   LIG    1        4.713  -6.668   0.010  0.00  0.00    +0.011 A 
ATOM     10  C   LIG    1        3.940  -7.809   0.113  0.00  0.00    +0.020 A 
ATOM     11  C   LIG    1        4.561  -9.044   0.202  0.00  0.00    +0.111 A 
ATOM     12  N   LIG    1        5.876  -9.150   0.192  0.00  0.00    -0.263 NA
ATOM     13  C   LIG    1        6.659  -8.096   0.091  0.00  0.00    +0.118 A 
ENDBRANCH   6   8
BRANCH   1  15
ATOM     14  C   LIG    1        3.698  -0.677   0.047  0.00  0.00    +0.013 C 
ATOM     15  C   LIG    1        3.719  -2.026   0.025  0.00  0.00    +0.068 C 
BRANCH  14  19
ATOM     16  C   LIG    1       -0.006   1.386   0.153  0.00  0.00    +0.000 A 
ATOM     17  C   LIG    1        1.179   2.100   0.140  0.00  0.00    +0.001 A 
ATOM     18  C   LIG    1        2.387   1.437   0.106  0.00  0.00    +0.008 A 
ATOM     19  C   LIG    1        2.413   0.039   0.084  0.00  0.00    -0.025 A 
ATOM     20  C   LIG    1        1.211  -0.675   0.097  0.00  0.00    +0.008 A 
ATOM     21  C   LIG    1        0.011   0.002   0.131  0.00  0.00    +0.001 A 
ENDBRANCH  14  19
ENDBRANCH   1  15
TORSDOF 3
