REMARK  Name = ZINC05732241
REMARK                            x       y       z     vdW  Elec       q    Type
REMARK                         _______ _______ _______ _____ _____    ______ ____
ROOT
ATOM      1  C   LIG    1        0.660  -0.519  -1.073  0.00  0.00    +0.209 A 
ATOM      2  C   LIG    1        0.730  -1.914  -1.253  0.00  0.00    +0.227 A 
ATOM      3  C   LIG    1        1.408  -2.452  -2.350  0.00  0.00    +0.101 A 
ATOM      4  C   LIG    1        2.016  -1.616  -3.266  0.00  0.00    +0.146 A 
ATOM      5  O   LIG    1        2.672  -2.128  -4.329  0.00  0.00    -0.454 OA
ATOM      6  C   LIG    1        3.269  -1.332  -5.231  0.00  0.00    +0.139 A 
ATOM      7  C   LIG    1        3.238   0.042  -5.111  0.00  0.00    +0.093 A 
ATOM      8  C   LIG    1        2.573   0.629  -4.032  0.00  0.00    +0.135 A 
ATOM      9  C   LIG    1        1.948  -0.216  -3.088  0.00  0.00    +0.104 A 
ATOM     10  O   LIG    1        0.144  -2.727  -0.370  0.00  0.00    -0.284 OA
ATOM     11  C   LIG    1        1.257   0.324  -1.983  0.00  0.00    +0.177 A 
ENDROOT
BRANCH   6  12
ATOM     12  C   LIG    1        3.973  -1.940  -6.374  0.00  0.00    +0.018 A 
ATOM     13  C   LIG    1        4.606  -1.127  -7.321  0.00  0.00    +0.015 A 
ATOM     14  C   LIG    1        5.263  -1.699  -8.387  0.00  0.00    +0.046 A 
ATOM     15  C   LIG    1        5.298  -3.082  -8.523  0.00  0.00    +0.117 A 
ATOM     16  C   LIG    1        4.671  -3.894  -7.585  0.00  0.00    +0.046 A 
ATOM     17  C   LIG    1        4.016  -3.331  -6.512  0.00  0.00    +0.015 A 
BRANCH  15  18
ATOM     18  O   LIG    1        5.946  -3.642  -9.576  0.00  0.00    -0.507 OA
ATOM     19  H   LIG    1        6.879  -3.832  -9.408  0.00  0.00    +0.292 HD
ENDBRANCH  15  18
ENDBRANCH   6  12
BRANCH   1  21
ATOM     20  C   LIG    1        0.553  -0.259   1.290  0.00  0.00    +0.277 C 
ATOM     21  O   LIG    1       -0.003  -0.004  -0.001  0.00  0.00    -0.488 OA
ENDBRANCH   1  21
BRANCH   8  22
ATOM     22  O   LIG    1        2.530   1.972  -3.894  0.00  0.00    -0.506 OA
ATOM     23  H   LIG    1        2.948   2.522  -4.527  0.00  0.00    +0.292 HD
ENDBRANCH   8  22
BRANCH  11  24
ATOM     24  O   LIG    1        1.186   1.670  -1.814  0.00  0.00    -0.503 OA
ATOM     25  H   LIG    1        0.765   1.941  -0.987  0.00  0.00    +0.292 HD
ENDBRANCH  11  24
TORSDOF 5
