REMARK  Name = ZINC05458878
REMARK                            x       y       z     vdW  Elec       q    Type
REMARK                         _______ _______ _______ _____ _____    ______ ____
ROOT
ATOM      1  C   LIG    1        3.123   5.422  -1.705  0.00  0.00    +0.081 C 
ATOM      2  C   LIG    1        3.150   5.628  -0.188  0.00  0.00    +0.004 C 
ATOM      3  C   LIG    1        2.128   4.694   0.466  0.00  0.00    -0.077 C 
ATOM      4  N   LIG    1        0.783   5.013  -0.056  0.00  0.00    +0.382 N 
ATOM      5  H   LIG    1        0.589   6.008   0.109  0.00  0.00    -0.082 HD
ATOM      6  C   LIG    1        0.727   4.748  -1.510  0.00  0.00    -0.074 C 
ATOM      7  C   LIG    1        1.706   5.684  -2.223  0.00  0.00    -0.010 C 
ATOM      8  C   LIG    1        1.655   5.423  -3.730  0.00  0.00    +0.007 C 
ENDROOT
BRANCH   1  10
ATOM      9  C   LIG    1        2.595   3.059  -1.978  0.00  0.00    +0.220 C 
ATOM     10  N   LIG    1        3.513   4.045  -2.019  0.00  0.00    -0.268 N 
ATOM     11  O   LIG    1        1.886   2.931  -1.002  0.00  0.00    -0.275 OA
BRANCH  10  12
ATOM     12  C   LIG    1        4.838   3.755  -2.363  0.00  0.00    +0.037 A 
ATOM     13  C   LIG    1        5.844   3.869  -1.413  0.00  0.00    +0.023 A 
ATOM     14  C   LIG    1        7.150   3.574  -1.753  0.00  0.00    +0.002 A 
ATOM     15  C   LIG    1        7.457   3.179  -3.042  0.00  0.00    +0.000 A 
ATOM     16  C   LIG    1        6.458   3.070  -3.992  0.00  0.00    +0.002 A 
ATOM     17  C   LIG    1        5.150   3.357  -3.656  0.00  0.00    +0.023 A 
ENDBRANCH  10  12
BRANCH   9  19
ATOM     18  C   LIG    1        1.462   1.005  -2.781  0.00  0.00    +0.013 C 
ATOM     19  C   LIG    1        2.450   2.115  -3.144  0.00  0.00    +0.093 C 
ENDBRANCH   9  19
ENDBRANCH   1  10
BRANCH   4  20
ATOM     20  C   LIG    1       -0.235   4.203   0.644  0.00  0.00    -0.042 C 
BRANCH  20  21
ATOM     21  C   LIG    1       -1.624   4.715   0.256  0.00  0.00    +0.128 C 
BRANCH  21  22
ATOM     22  C   LIG    1       -2.675   3.908   0.973  0.00  0.00    -0.021 A 
ATOM     23  C   LIG    1       -3.049   4.247   2.260  0.00  0.00    +0.006 A 
ATOM     24  C   LIG    1       -4.017   3.510   2.916  0.00  0.00    +0.000 A 
ATOM     25  C   LIG    1       -4.604   2.427   2.289  0.00  0.00    +0.000 A 
ATOM     26  C   LIG    1       -4.226   2.084   1.004  0.00  0.00    +0.000 A 
ATOM     27  C   LIG    1       -3.262   2.825   0.346  0.00  0.00    +0.006 A 
ENDBRANCH  21  22
BRANCH  21  28
ATOM     28  O   LIG    1       -1.745   6.090   0.626  0.00  0.00    -0.389 OA
ATOM     29  H   LIG    1       -1.634   6.254   1.573  0.00  0.00    +0.210 HD
ENDBRANCH  21  28
ENDBRANCH  20  21
ENDBRANCH   4  20
TORSDOF 7
