REMARK  Name = ZINC05384022
REMARK                            x       y       z     vdW  Elec       q    Type
REMARK                         _______ _______ _______ _____ _____    ______ ____
ROOT
ATOM      1  C   LIG    1        1.040  -0.604   3.551  0.00  0.00    +0.034 A 
ATOM      2  C   LIG    1        2.228  -1.296   3.353  0.00  0.00    +0.025 A 
ATOM      3  C   LIG    1        2.978  -1.702   4.439  0.00  0.00    +0.030 A 
ATOM      4  C   LIG    1        2.548  -1.420   5.723  0.00  0.00    +0.105 A 
ATOM      5  C   LIG    1        1.366  -0.731   5.923  0.00  0.00    +0.030 A 
ATOM      6  C   LIG    1        0.615  -0.317   4.841  0.00  0.00    +0.025 A 
ENDROOT
BRANCH   1   8
ATOM      7  C   LIG    1       -0.391   0.979   2.498  0.00  0.00    +0.220 C 
ATOM      8  N   LIG    1        0.278  -0.191   2.453  0.00  0.00    -0.285 N 
ATOM      9  H   LIG    1        0.231  -0.746   1.659  0.00  0.00    +0.155 HD
ATOM     10  O   LIG    1       -0.400   1.633   3.520  0.00  0.00    -0.275 OA
BRANCH   7  12
ATOM     11  C   LIG    1       -2.194   0.453   0.879  0.00  0.00    +0.017 C 
ATOM     12  C   LIG    1       -1.127   1.474   1.280  0.00  0.00    +0.069 C 
ATOM     13  C   LIG    1       -1.796   2.812   1.597  0.00  0.00    +0.017 C 
ENDBRANCH   7  12
ENDBRANCH   1   8
BRANCH   4  14
ATOM     14  S   LIG    1        3.508  -1.940   7.106  0.00  0.00    +0.056 S 
ATOM     15  O   LIG    1        4.291  -3.042   6.665  0.00  0.00    -0.153 OA
ATOM     16  O   LIG    1        2.616  -2.031   8.208  0.00  0.00    -0.153 OA
BRANCH  14  17
ATOM     17  N   LIG    1        4.568  -0.716   7.454  0.00  0.00    -0.204 NA
ATOM     18  H   LIG    1        5.191  -0.809   8.192  0.00  0.00    +0.144 HD
ATOM     19  H   LIG    1        4.565   0.094   6.921  0.00  0.00    +0.144 HD
ENDBRANCH  14  17
ENDBRANCH   4  14
TORSDOF 4
