REMARK  Name = ZINC05352535
REMARK                            x       y       z     vdW  Elec       q    Type
REMARK                         _______ _______ _______ _____ _____    ______ ____
ROOT
ATOM      1  C   LIG    1        0.002  -0.004   0.002  0.00  0.00    +0.015 C 
ATOM      2  C   LIG    1       -1.160  -0.696   0.009  0.00  0.00    +0.052 C 
ENDROOT
BRANCH   1   7
ATOM      3  C   LIG    1        1.153   3.576   0.010  0.00  0.00    +0.162 A 
ATOM      4  C   LIG    1       -0.062   4.241   0.025  0.00  0.00    +0.049 A 
ATOM      5  C   LIG    1       -1.251   3.529   0.032  0.00  0.00    +0.004 A 
ATOM      6  C   LIG    1       -1.238   2.152   0.020  0.00  0.00    +0.012 A 
ATOM      7  C   LIG    1       -0.018   1.464   0.010  0.00  0.00    +0.020 A 
ATOM      8  C   LIG    1        1.185   2.186   0.003  0.00  0.00    +0.169 A 
BRANCH   3  10
ATOM      9  C   LIG    1        2.207   5.708   0.011  0.00  0.00    +0.277 C 
ATOM     10  O   LIG    1        2.315   4.284   0.003  0.00  0.00    -0.491 OA
ENDBRANCH   3  10
BRANCH   8  11
ATOM     11  O   LIG    1        2.375   1.532  -0.012  0.00  0.00    -0.491 OA
ATOM     12  C   LIG    1        2.931   1.225  -1.293  0.00  0.00    +0.277 C 
ENDBRANCH   8  11
ENDBRANCH   1   7
BRANCH   2  13
ATOM     13  C   LIG    1       -1.141  -2.114   0.002  0.00  0.00    +0.186 C 
ATOM     14  O   LIG    1       -0.078  -2.708  -0.012  0.00  0.00    -0.287 OA
BRANCH  13  15
ATOM     15  C   LIG    1       -2.411  -2.870   0.010  0.00  0.00    +0.022 A 
ATOM     16  C   LIG    1       -3.631  -2.192   0.031  0.00  0.00    +0.013 A 
ATOM     17  C   LIG    1       -4.813  -2.903   0.033  0.00  0.00    +0.016 A 
ATOM     18  C   LIG    1       -4.791  -4.288   0.025  0.00  0.00    +0.018 A 
ATOM     19 BR   LIG    1       -6.415  -5.255   0.036  0.00  0.00    -0.050 Br
ATOM     20  C   LIG    1       -3.584  -4.967   0.010  0.00  0.00    +0.016 A 
ATOM     21  C   LIG    1       -2.396  -4.267   0.002  0.00  0.00    +0.013 A 
ENDBRANCH  13  15
ENDBRANCH   2  13
TORSDOF 5
