REMARK  Name = ZINC04809572
REMARK                            x       y       z     vdW  Elec       q    Type
REMARK                         _______ _______ _______ _____ _____    ______ ____
ROOT
ATOM      1  C   LIG    1       -2.073   0.531   3.713  0.00  0.00    +0.096 C 
ATOM      2  C   LIG    1       -2.757   1.848   3.473  0.00  0.00    +0.010 A 
ATOM      3  C   LIG    1       -2.023   3.020   3.495  0.00  0.00    +0.053 A 
ATOM      4  C   LIG    1       -2.651   4.237   3.276  0.00  0.00    +0.121 A 
ATOM      5  C   LIG    1       -4.016   4.278   3.034  0.00  0.00    +0.049 A 
ATOM      6  C   LIG    1       -4.749   3.108   3.011  0.00  0.00    +0.050 A 
ATOM      7  C   LIG    1       -4.121   1.889   3.232  0.00  0.00    +0.132 A 
ATOM      8  O   LIG    1       -4.844   0.745   3.209  0.00  0.00    -0.460 OA
ATOM      9  C   LIG    1       -4.390  -0.358   3.831  0.00  0.00    +0.114 C 
ATOM     10  C   LIG    1       -5.396  -1.419   4.214  0.00  0.00    +0.081 C 
ATOM     11  C   LIG    1       -4.938  -2.132   5.475  0.00  0.00    -0.021 C 
ATOM     12  C   LIG    1       -5.939  -3.231   5.836  0.00  0.00    +0.012 C 
ATOM     13  C   LIG    1       -4.829  -1.131   6.627  0.00  0.00    +0.012 C 
ATOM     14  C   LIG    1       -3.565  -2.755   5.202  0.00  0.00    +0.086 C 
ATOM     15  C   LIG    1       -2.619  -1.673   4.760  0.00  0.00    +0.164 C 
ATOM     16  O   LIG    1       -1.429  -1.797   4.974  0.00  0.00    -0.292 OA
ATOM     17  C   LIG    1       -3.085  -0.519   4.102  0.00  0.00    +0.045 C 
ENDROOT
BRANCH   1  24
ATOM     18  C   LIG    1       -0.019   1.526   0.010  0.00  0.00    +0.012 C 
ATOM     19  C   LIG    1        0.002  -0.004   0.002  0.00  0.00    -0.021 C 
ATOM     20  C   LIG    1        0.713  -0.500  -1.259  0.00  0.00    +0.012 C 
ATOM     21  C   LIG    1       -1.434  -0.537   0.028  0.00  0.00    +0.086 C 
ATOM     22  C   LIG    1       -2.101  -0.104   1.307  0.00  0.00    +0.164 C 
ATOM     23  O   LIG    1       -3.312   0.069   1.327  0.00  0.00    -0.292 OA
ATOM     24  C   LIG    1       -1.367   0.100   2.454  0.00  0.00    +0.044 C 
ATOM     25  C   LIG    1       -0.002  -0.081   2.478  0.00  0.00    +0.102 C 
ATOM     26  C   LIG    1        0.742  -0.514   1.242  0.00  0.00    +0.080 C 
BRANCH  25  27
ATOM     27  O   LIG    1        0.614   0.112   3.517  0.00  0.00    -0.511 OA
ATOM     28  H   LIG    1        0.158   0.382   4.289  0.00  0.00    +0.292 HD
ENDBRANCH  25  27
ENDBRANCH   1  24
BRANCH   4  29
ATOM     29  O   LIG    1       -1.929   5.388   3.299  0.00  0.00    -0.495 OA
ATOM     30  C   LIG    1       -2.641   6.605   3.064  0.00  0.00    +0.277 C 
ENDBRANCH   4  29
TORSDOF 3
