REMARK  Name = ZINC05447786
REMARK                            x       y       z     vdW  Elec       q    Type
REMARK                         _______ _______ _______ _____ _____    ______ ____
ROOT
ATOM      1  C   LIG    1       -2.877  -3.956  -0.007  0.00  0.00    +0.159 C 
ENDROOT
BRANCH   1   6
ATOM      2  C   LIG    1       -0.018   1.461   0.010  0.00  0.00    +0.155 C 
ATOM      3  N   LIG    1        0.002  -0.004   0.002  0.00  0.00    -0.282 N 
ATOM      4  C   LIG    1       -1.176  -0.712   0.004  0.00  0.00    +0.169 A 
ATOM      5  C   LIG    1       -1.113  -2.113  -0.005  0.00  0.00    +0.149 A 
ATOM      6  N   LIG    1       -2.430  -2.561  -0.001  0.00  0.00    -0.310 N 
ATOM      7  C   LIG    1       -3.217  -1.465   0.009  0.00  0.00    +0.183 A 
ATOM      8  S   LIG    1       -4.929  -1.480   0.017  0.00  0.00    -0.011 S 
ATOM      9  C   LIG    1        0.131  -2.732  -0.014  0.00  0.00    +0.245 A 
ATOM     10  N   LIG    1        1.238  -1.985  -0.015  0.00  0.00    -0.159 NA
ATOM     11  N   LIG    1       -2.462  -0.372   0.012  0.00  0.00    -0.203 NA
ATOM     12  C   LIG    1        1.184  -0.671  -0.013  0.00  0.00    +0.300 A 
BRANCH   9  13
ATOM     13  O   LIG    1        0.220  -4.082  -0.023  0.00  0.00    -0.491 OA
ATOM     14  H   LIG    1       -0.559  -4.603  -0.022  0.00  0.00    +0.294 HD
ENDBRANCH   9  13
BRANCH  12  15
ATOM     15  O   LIG    1        2.335   0.033  -0.020  0.00  0.00    -0.479 OA
ATOM     16  H   LIG    1        2.311   0.969  -0.019  0.00  0.00    +0.295 HD
ENDBRANCH  12  15
ENDBRANCH   1   6
BRANCH   1  17
ATOM     17  C   LIG    1       -3.026  -4.450   1.434  0.00  0.00    +0.171 C 
BRANCH  17  18
ATOM     18  O   LIG    1       -4.070  -3.721   2.082  0.00  0.00    -0.387 OA
ATOM     19  H   LIG    1       -4.935  -3.812   1.659  0.00  0.00    +0.210 HD
ENDBRANCH  17  18
BRANCH  17  20
ATOM     20  C   LIG    1       -3.371  -5.940   1.429  0.00  0.00    +0.262 C 
BRANCH  20  21
ATOM     21  O   LIG    1       -3.396  -6.428   2.772  0.00  0.00    -0.489 OA
BRANCH  21  22
ATOM     22  C   LIG    1       -3.689  -7.744   2.945  0.00  0.00    +0.121 A 
ATOM     23  C   LIG    1       -3.943  -8.547   1.828  0.00  0.00    +0.046 A 
ATOM     24  C   LIG    1       -4.239  -9.866   1.970  0.00  0.00    +0.012 A 
ATOM     25  C   LIG    1       -4.292 -10.436   3.254  0.00  0.00    -0.018 A 
ATOM     26  C   LIG    1       -4.594 -11.796   3.436  0.00  0.00    +0.008 A 
ATOM     27  C   LIG    1       -4.636 -12.314   4.694  0.00  0.00    +0.001 A 
ATOM     28  C   LIG    1       -4.383 -11.516   5.808  0.00  0.00    +0.001 A 
ATOM     29  C   LIG    1       -4.087 -10.195   5.670  0.00  0.00    +0.008 A 
ATOM     30  C   LIG    1       -4.034  -9.624   4.387  0.00  0.00    -0.014 A 
ATOM     31  C   LIG    1       -3.727  -8.265   4.206  0.00  0.00    +0.054 A 
ENDBRANCH  21  22
ENDBRANCH  20  21
ENDBRANCH  17  20
ENDBRANCH   1  17
TORSDOF 8
