REMARK  Name = ZINC05274871
REMARK                            x       y       z     vdW  Elec       q    Type
REMARK                         _______ _______ _______ _____ _____    ______ ____
ROOT
ATOM      1  C   LIG    1        6.740  -2.786  -0.075  0.00  0.00    +0.066 C 
ATOM      2  C   LIG    1        5.433  -3.535  -0.066  0.00  0.00    +0.054 A 
ATOM      3  C   LIG    1        4.248  -2.845  -0.052  0.00  0.00    +0.087 A 
ATOM      4  C   LIG    1        2.982  -3.593  -0.043  0.00  0.00    +0.075 A 
ATOM      5  N   LIG    1        1.975  -2.660  -0.024  0.00  0.00    -0.288 N 
ATOM      6  N   LIG    1        2.520  -1.373  -0.029  0.00  0.00    -0.194 N 
ATOM      7  H   LIG    1        1.027  -2.864  -0.011  0.00  0.00    +0.188 HD
ATOM      8  C   LIG    1        3.038  -4.970  -0.049  0.00  0.00    +0.099 A 
ATOM      9  C   LIG    1        4.291  -5.596  -0.064  0.00  0.00    +0.270 A 
ATOM     10  O   LIG    1        4.349  -6.815  -0.069  0.00  0.00    -0.266 OA
ATOM     11  C   LIG    1        3.867  -1.426  -0.042  0.00  0.00    +0.283 A 
ATOM     12  O   LIG    1        4.626  -0.475  -0.045  0.00  0.00    -0.265 OA
ATOM     13  N   LIG    1        5.430  -4.884  -0.071  0.00  0.00    -0.232 N 
ENDROOT
BRANCH   6  14
ATOM     14  C   LIG    1        1.778  -0.204  -0.016  0.00  0.00    +0.196 A 
ATOM     15  N   LIG    1        2.200   1.039  -0.013  0.00  0.00    -0.221 NA
ATOM     16  C   LIG    1        1.355   2.092   0.000  0.00  0.00    +0.081 A 
ATOM     17  C   LIG    1        1.676   3.469   0.005  0.00  0.00    +0.029 A 
ATOM     18  C   LIG    1        0.688   4.419   0.020  0.00  0.00    +0.002 A 
ATOM     19  C   LIG    1       -0.655   4.068   0.031  0.00  0.00    +0.001 A 
ATOM     20  C   LIG    1       -1.005   2.730   0.031  0.00  0.00    +0.017 A 
ATOM     21  C   LIG    1       -0.022   1.772   0.012  0.00  0.00    +0.041 A 
ATOM     22  S   LIG    1        0.002  -0.004   0.002  0.00  0.00    -0.048 S 
ENDBRANCH   6  14
BRANCH  13  23
ATOM     23  N   LIG    1        6.623  -5.548  -0.086  0.00  0.00    -0.264 N 
ATOM     24  C   LIG    1        6.776  -6.331  -1.320  0.00  0.00    +0.152 C 
ATOM     25  C   LIG    1        8.149  -7.009  -1.322  0.00  0.00    +0.180 C 
ATOM     26  O   LIG    1        8.277  -7.817  -0.149  0.00  0.00    -0.377 OA
ATOM     27  C   LIG    1        8.135  -7.085   1.072  0.00  0.00    +0.180 C 
ATOM     28  C   LIG    1        6.762  -6.408   1.098  0.00  0.00    +0.152 C 
ENDBRANCH  13  23
TORSDOF 2
