REMARK  Name = ZINC05646855
REMARK                            x       y       z     vdW  Elec       q    Type
REMARK                         _______ _______ _______ _____ _____    ______ ____
ROOT
ATOM      1  C   LIG    1        3.740  -0.452  -0.188  0.00  0.00    +0.024 A 
ATOM      2  C   LIG    1        4.062  -1.210  -1.330  0.00  0.00    +0.072 A 
ATOM      3  C   LIG    1        5.373  -1.717  -1.449  0.00  0.00    +0.180 A 
ATOM      4  N   LIG    1        6.258  -1.467  -0.490  0.00  0.00    -0.129 NA
ATOM      5  N   LIG    1        5.964  -0.776   0.550  0.00  0.00    -0.147 NA
ATOM      6  N   LIG    1        5.419  -2.405  -2.630  0.00  0.00    -0.257 N 
ATOM      7  H   LIG    1        6.197  -2.866  -2.981  0.00  0.00    +0.191 HD
ATOM      8  N   LIG    1        4.168  -2.340  -3.253  0.00  0.00    -0.156 NA
ATOM      9  C   LIG    1        3.339  -1.644  -2.519  0.00  0.00    +0.158 A 
ATOM     10  C   LIG    1        4.760  -0.250   0.756  0.00  0.00    +0.102 A 
ENDROOT
BRANCH   1  14
ATOM     11  C   LIG    1       -0.148   1.170   0.368  0.00  0.00    +0.000 A 
ATOM     12  C   LIG    1        0.927   2.015   0.153  0.00  0.00    +0.001 A 
ATOM     13  C   LIG    1        2.192   1.494  -0.028  0.00  0.00    +0.008 A 
ATOM     14  C   LIG    1        2.386   0.113   0.006  0.00  0.00    -0.015 A 
ATOM     15  C   LIG    1        1.298  -0.733   0.224  0.00  0.00    +0.008 A 
ATOM     16  C   LIG    1        0.038  -0.200   0.403  0.00  0.00    +0.001 A 
ENDBRANCH   1  14
BRANCH   9  17
ATOM     17  N   LIG    1        2.000  -1.366  -2.821  0.00  0.00    -0.252 N 
ATOM     18  H   LIG    1        1.465  -0.838  -2.208  0.00  0.00    +0.158 HD
ATOM     19  C   LIG    1        1.456  -1.833  -3.961  0.00  0.00    +0.309 C 
ATOM     20  N   LIG    1        0.167  -1.566  -4.252  0.00  0.00    -0.269 N 
ATOM     21  H   LIG    1       -0.349  -0.981  -3.675  0.00  0.00    +0.156 HD
ATOM     22  O   LIG    1        2.127  -2.496  -4.729  0.00  0.00    -0.252 OA
BRANCH  20  23
ATOM     23  C   LIG    1       -0.427  -2.133  -5.385  0.00  0.00    +0.035 A 
ATOM     24  C   LIG    1       -1.396  -1.430  -6.088  0.00  0.00    +0.023 A 
ATOM     25  C   LIG    1       -1.981  -1.992  -7.206  0.00  0.00    +0.002 A 
ATOM     26  C   LIG    1       -1.602  -3.254  -7.625  0.00  0.00    +0.000 A 
ATOM     27  C   LIG    1       -0.637  -3.957  -6.927  0.00  0.00    +0.002 A 
ATOM     28  C   LIG    1       -0.045  -3.398  -5.812  0.00  0.00    +0.023 A 
ENDBRANCH  20  23
ENDBRANCH   9  17
BRANCH  10  29
ATOM     29  C   LIG    1        4.494   0.543   1.980  0.00  0.00    +0.003 A 
ATOM     30  C   LIG    1        3.318   0.343   2.702  0.00  0.00    +0.010 A 
ATOM     31  C   LIG    1        3.077   1.084   3.841  0.00  0.00    +0.001 A 
ATOM     32  C   LIG    1        3.998   2.024   4.266  0.00  0.00    +0.000 A 
ATOM     33  C   LIG    1        5.167   2.227   3.554  0.00  0.00    +0.001 A 
ATOM     34  C   LIG    1        5.422   1.488   2.417  0.00  0.00    +0.010 A 
ENDBRANCH  10  29
TORSDOF 4
