REMARK  Name = ZINC05190760
REMARK                            x       y       z     vdW  Elec       q    Type
REMARK                         _______ _______ _______ _____ _____    ______ ____
ROOT
ATOM      1  C   LIG    1       -1.183   6.540   3.053  0.00  0.00    +0.011 C 
ATOM      2  C   LIG    1       -0.861   7.766   2.196  0.00  0.00    -0.023 C 
ATOM      3  C   LIG    1       -1.955   8.822   2.370  0.00  0.00    +0.011 C 
ATOM      4  C   LIG    1       -0.760   7.360   0.727  0.00  0.00    +0.058 C 
ATOM      5  C   LIG    1        0.336   6.324   0.551  0.00  0.00    +0.017 C 
ATOM      6  C   LIG    1        1.430   6.347   1.333  0.00  0.00    +0.037 C 
ATOM      7  C   LIG    1        1.558   7.327   2.346  0.00  0.00    +0.163 C 
ATOM      8  O   LIG    1        2.566   7.340   3.024  0.00  0.00    -0.292 OA
ATOM      9  C   LIG    1        2.594   5.390   1.257  0.00  0.00    +0.140 C 
ATOM     10  N   LIG    1        2.607   4.548   0.079  0.00  0.00    -0.331 N 
ATOM     11  H   LIG    1        3.323   4.644  -0.568  0.00  0.00    +0.147 HD
ATOM     12  C   LIG    1        1.607   3.600  -0.138  0.00  0.00    +0.051 A 
ATOM     13  C   LIG    1        1.878   2.242  -0.120  0.00  0.00    +0.044 A 
ATOM     14  C   LIG    1        0.836   1.340  -0.252  0.00  0.00    +0.043 A 
ATOM     15 CL   LIG    1        1.162  -0.365  -0.231  0.00  0.00    -0.083 Cl
ATOM     16  C   LIG    1       -0.464   1.790  -0.407  0.00  0.00    +0.022 A 
ATOM     17  C   LIG    1       -0.735   3.147  -0.437  0.00  0.00    +0.026 A 
ATOM     18  C   LIG    1        0.308   4.050  -0.322  0.00  0.00    +0.052 A 
ATOM     19  N   LIG    1        0.118   5.422  -0.439  0.00  0.00    -0.316 N 
ATOM     20  H   LIG    1       -0.193   5.760  -1.293  0.00  0.00    +0.152 HD
ATOM     21  C   LIG    1        0.495   8.349   2.613  0.00  0.00    +0.086 C 
ENDROOT
BRANCH   9  22
ATOM     22  C   LIG    1        2.563   4.503   2.474  0.00  0.00    +0.031 A 
ATOM     23  C   LIG    1        1.440   3.739   2.745  0.00  0.00    +0.130 A 
ATOM     24  F   LIG    1        0.372   3.790   1.919  0.00  0.00    -0.205 F 
ATOM     25  C   LIG    1        1.415   2.919   3.861  0.00  0.00    +0.039 A 
ATOM     26  C   LIG    1        2.505   2.872   4.709  0.00  0.00    +0.004 A 
ATOM     27  C   LIG    1        3.624   3.639   4.441  0.00  0.00    +0.020 A 
ATOM     28  C   LIG    1        3.653   4.454   3.323  0.00  0.00    +0.049 A 
ATOM     29 CL   LIG    1        5.058   5.416   2.987  0.00  0.00    -0.083 Cl
ENDBRANCH   9  22
TORSDOF 1
