REMARK  Name = ZINC05618793
REMARK                            x       y       z     vdW  Elec       q    Type
REMARK                         _______ _______ _______ _____ _____    ______ ____
ROOT
ATOM      1  C   LIG    1        2.315  -5.808   3.736  0.00  0.00    +0.144 C 
ENDROOT
BRANCH   1   5
ATOM      2  C   LIG    1        5.051  -8.266   1.564  0.00  0.00    +0.000 A 
ATOM      3  C   LIG    1        3.702  -8.302   1.264  0.00  0.00    +0.000 A 
ATOM      4  C   LIG    1        2.817  -7.506   1.967  0.00  0.00    +0.007 A 
ATOM      5  C   LIG    1        3.280  -6.675   2.970  0.00  0.00    -0.007 A 
ATOM      6  C   LIG    1        4.630  -6.636   3.266  0.00  0.00    +0.007 A 
ATOM      7  C   LIG    1        5.515  -7.434   2.566  0.00  0.00    +0.000 A 
ENDBRANCH   1   5
BRANCH   1   8
ATOM      8  C   LIG    1        1.046  -6.577   3.995  0.00  0.00    -0.007 A 
ATOM      9  C   LIG    1        1.086  -7.952   4.128  0.00  0.00    +0.007 A 
ATOM     10  C   LIG    1       -0.079  -8.657   4.370  0.00  0.00    +0.000 A 
ATOM     11  C   LIG    1       -1.284  -7.988   4.471  0.00  0.00    +0.000 A 
ATOM     12  C   LIG    1       -1.325  -6.613   4.333  0.00  0.00    +0.000 A 
ATOM     13  C   LIG    1       -0.160  -5.907   4.095  0.00  0.00    +0.007 A 
ENDBRANCH   1   8
BRANCH   1  14
ATOM     14  C   LIG    1        2.936  -5.404   5.048  0.00  0.00    -0.007 A 
ATOM     15  C   LIG    1        3.213  -6.363   6.005  0.00  0.00    +0.007 A 
ATOM     16  C   LIG    1        3.786  -5.993   7.208  0.00  0.00    +0.000 A 
ATOM     17  C   LIG    1        4.073  -4.664   7.457  0.00  0.00    +0.000 A 
ATOM     18  C   LIG    1        3.791  -3.705   6.503  0.00  0.00    +0.000 A 
ATOM     19  C   LIG    1        3.222  -4.075   5.298  0.00  0.00    +0.007 A 
ENDBRANCH   1  14
BRANCH   1  20
ATOM     20  O   LIG    1        2.016  -4.638   2.971  0.00  0.00    -0.357 OA
BRANCH  20  21
ATOM     21  C   LIG    1        1.428  -4.911   1.698  0.00  0.00    +0.196 C 
BRANCH  21  22
ATOM     22  C   LIG    1        1.026  -3.595   1.029  0.00  0.00    +0.175 C 
ATOM     23  C   LIG    1        0.496  -3.871  -0.394  0.00  0.00    +0.150 C 
ATOM     24  C   LIG    1       -0.688  -2.871  -0.505  0.00  0.00    +0.088 C 
ATOM     25  C   LIG    1       -1.207  -2.867   0.955  0.00  0.00    +0.226 C 
ATOM     26  O   LIG    1       -0.030  -2.975   1.772  0.00  0.00    -0.348 OA
BRANCH  25  27
ATOM     27  N   LIG    1       -1.911  -1.615   1.240  0.00  0.00    -0.274 N 
ATOM     28  C   LIG    1       -3.239  -1.644   1.570  0.00  0.00    +0.098 A 
ATOM     29  C   LIG    1       -3.888  -0.490   1.834  0.00  0.00    +0.088 A 
ATOM     30  C   LIG    1       -3.177   0.732   1.762  0.00  0.00    +0.254 A 
ATOM     31  N   LIG    1       -1.870   0.718   1.434  0.00  0.00    -0.275 N 
ATOM     32  H   LIG    1       -1.360   1.577   1.381  0.00  0.00    +0.173 HD
ATOM     33  O   LIG    1       -3.741   1.786   1.995  0.00  0.00    -0.268 OA
ATOM     34  C   LIG    1       -1.247  -0.447   1.176  0.00  0.00    +0.331 A 
ATOM     35  O   LIG    1       -0.067  -0.444   0.882  0.00  0.00    -0.246 OA
ENDBRANCH  25  27
BRANCH  23  36
ATOM     36  O   LIG    1        0.035  -5.219  -0.513  0.00  0.00    -0.389 OA
ATOM     37  H   LIG    1       -0.308  -5.441  -1.389  0.00  0.00    +0.210 HD
ENDBRANCH  23  36
ENDBRANCH  21  22
ENDBRANCH  20  21
ENDBRANCH   1  20
TORSDOF 8
