REMARK  Name = ZINC05005072
REMARK                            x       y       z     vdW  Elec       q    Type
REMARK                         _______ _______ _______ _____ _____    ______ ____
ROOT
ATOM      1  C   LIG    1       -6.679  -0.907   0.828  0.00  0.00    +0.068 C 
ATOM      2  C   LIG    1       -6.015  -0.035   1.862  0.00  0.00    +0.063 C 
ATOM      3  N   LIG    1       -6.678   0.351   2.909  0.00  0.00    -0.185 NA
ENDROOT
BRANCH   2   4
ATOM      4  C   LIG    1       -4.612   0.381   1.683  0.00  0.00    -0.002 A 
ATOM      5  C   LIG    1       -3.994   1.190   2.640  0.00  0.00    +0.013 A 
ATOM      6  C   LIG    1       -2.682   1.577   2.470  0.00  0.00    +0.046 A 
ATOM      7  C   LIG    1       -1.974   1.163   1.348  0.00  0.00    +0.120 A 
ATOM      8  C   LIG    1       -2.586   0.363   0.392  0.00  0.00    +0.046 A 
ATOM      9  C   LIG    1       -3.896  -0.032   0.557  0.00  0.00    +0.013 A 
BRANCH   7  10
ATOM     10  O   LIG    1       -0.682   1.547   1.184  0.00  0.00    -0.495 OA
ATOM     11  C   LIG    1       -0.013   1.086   0.008  0.00  0.00    +0.277 C 
ENDBRANCH   7  10
ENDBRANCH   2   4
BRANCH   3  12
ATOM     12  N   LIG    1       -8.011  -0.044   3.078  0.00  0.00    -0.218 N 
ATOM     13  H   LIG    1       -8.439  -0.606   2.413  0.00  0.00    +0.176 HD
BRANCH  12  14
ATOM     14  C   LIG    1       -8.700   0.356   4.165  0.00  0.00    +0.147 C 
ATOM     15  S   LIG    1      -10.329  -0.127   4.372  0.00  0.00    -0.017 S 
BRANCH  14  16
ATOM     16  N   LIG    1       -8.106   1.136   5.090  0.00  0.00    -0.339 N 
ATOM     17  H   LIG    1       -8.601   1.424   5.872  0.00  0.00    +0.144 HD
ATOM     18  H   LIG    1       -7.183   1.409   4.973  0.00  0.00    +0.144 HD
ENDBRANCH  14  16
ENDBRANCH  12  14
ENDBRANCH   3  12
TORSDOF 5
