REMARK  Name = ZINC05284667
REMARK                            x       y       z     vdW  Elec       q    Type
REMARK                         _______ _______ _______ _____ _____    ______ ____
ROOT
ATOM      1  C   LIG    1        0.707  -0.490  -1.238  0.00  0.00    -0.036 A 
ATOM      2  C   LIG    1        0.222  -0.151  -2.487  0.00  0.00    +0.004 A 
ATOM      3  C   LIG    1        0.869  -0.597  -3.624  0.00  0.00    +0.004 A 
ATOM      4  C   LIG    1        2.002  -1.381  -3.513  0.00  0.00    -0.047 A 
ATOM      5  C   LIG    1        2.488  -1.720  -2.263  0.00  0.00    +0.004 A 
ATOM      6  C   LIG    1        1.843  -1.270  -1.126  0.00  0.00    +0.004 A 
ENDROOT
BRANCH   1   8
ATOM      7  C   LIG    1       -0.019   1.526   0.010  0.00  0.00    +0.022 C 
ATOM      8  C   LIG    1        0.002  -0.004   0.002  0.00  0.00    +0.104 C 
BRANCH   8   9
ATOM      9  C   LIG    1       -1.412  -0.526   0.013  0.00  0.00    +0.243 C 
ATOM     10  N   LIG    1       -2.236  -0.217   1.033  0.00  0.00    -0.197 N 
ATOM     11  H   LIG    1       -1.920   0.341   1.761  0.00  0.00    +0.182 HD
ATOM     12  O   LIG    1       -1.808  -1.223  -0.897  0.00  0.00    -0.273 OA
BRANCH  10  13
ATOM     13  O   LIG    1       -3.565  -0.707   1.043  0.00  0.00    -0.295 OA
ATOM     14  H   LIG    1       -4.079  -0.433   1.815  0.00  0.00    +0.241 HD
ENDBRANCH  10  13
ENDBRANCH   8   9
ENDBRANCH   1   8
BRANCH   4  15
ATOM     15  C   LIG    1        2.707  -1.868  -4.752  0.00  0.00    +0.038 C 
BRANCH  15  16
ATOM     16  C   LIG    1        3.766  -0.847  -5.171  0.00  0.00    -0.013 C 
ATOM     17  C   LIG    1        4.395  -1.279  -6.497  0.00  0.00    +0.007 C 
ATOM     18  C   LIG    1        4.850  -0.766  -4.094  0.00  0.00    +0.007 C 
ENDBRANCH  15  16
ENDBRANCH   4  15
TORSDOF 5
