REMARK  Name = ZINC05579305
REMARK                            x       y       z     vdW  Elec       q    Type
REMARK                         _______ _______ _______ _____ _____    ______ ____
ROOT
ATOM      1  C   LIG    1       -0.022   1.786   0.012  0.00  0.00    +0.202 A 
ATOM      2  N   LIG    1        1.281   2.032   0.001  0.00  0.00    -0.123 NA
ATOM      3  N   LIG    1        2.133   1.102  -0.012  0.00  0.00    -0.119 NA
ATOM      4  C   LIG    1        1.785  -0.169  -0.016  0.00  0.00    +0.256 A 
ATOM      5  S   LIG    1        0.002  -0.004   0.002  0.00  0.00    -0.009 S 
ENDROOT
BRANCH   4   6
ATOM      6  S   LIG    1        2.788  -1.617  -0.034  0.00  0.00    +0.081 S 
ATOM      7  O   LIG    1        2.107  -2.573  -0.836  0.00  0.00    -0.151 OA
ATOM      8  O   LIG    1        3.152  -1.876   1.315  0.00  0.00    -0.151 OA
BRANCH   6   9
ATOM      9  N   LIG    1        4.185  -1.236  -0.836  0.00  0.00    -0.202 NA
ATOM     10  H   LIG    1        4.612  -0.459  -0.330  0.00  0.00    +0.144 HD
ATOM     11  H   LIG    1        4.876  -1.907  -0.954  0.00  0.00    +0.144 HD
ENDBRANCH   6   9
ENDBRANCH   4   6
BRANCH   1  12
ATOM     12  N   LIG    1       -1.096   2.664   0.032  0.00  0.00    -0.189 N 
ATOM     13  H   LIG    1       -2.017   2.316   0.043  0.00  0.00    +0.176 HD
BRANCH  12  14
ATOM     14  S   LIG    1       -0.829   4.299   0.036  0.00  0.00    +0.143 S 
ATOM     15  O   LIG    1       -0.193   4.566  -1.206  0.00  0.00    -0.147 OA
ATOM     16  O   LIG    1       -0.158   4.553   1.263  0.00  0.00    -0.147 OA
BRANCH  14  17
ATOM     17  C   LIG    1       -2.484   5.041   0.064  0.00  0.00    +0.538 C 
ATOM     18  F   LIG    1       -3.195   4.636  -1.071  0.00  0.00    -0.149 F 
ATOM     19  F   LIG    1       -2.369   6.436   0.070  0.00  0.00    -0.149 F 
ATOM     20  F   LIG    1       -3.163   4.624   1.214  0.00  0.00    -0.149 F 
ENDBRANCH  14  17
ENDBRANCH  12  14
ENDBRANCH   1  12
TORSDOF 5
