REMARK  Name = ZINC05128638
REMARK                            x       y       z     vdW  Elec       q    Type
REMARK                         _______ _______ _______ _____ _____    ______ ____
ROOT
ATOM      1  C   LIG    1       -1.447  -7.180   0.165  0.00  0.00    +0.000 A 
ATOM      2  C   LIG    1       -0.138  -7.450   0.523  0.00  0.00    +0.001 A 
ATOM      3  C   LIG    1        0.802  -6.440   0.523  0.00  0.00    +0.012 A 
ATOM      4  C   LIG    1        0.425  -5.146   0.170  0.00  0.00    +0.025 A 
ATOM      5  C   LIG    1       -0.888  -4.883  -0.223  0.00  0.00    -0.036 A 
ATOM      6  C   LIG    1       -1.282  -3.507  -0.687  0.00  0.00    +0.040 C 
ATOM      7  C   LIG    1       -0.531  -2.435   0.103  0.00  0.00    +0.043 C 
ATOM      8  C   LIG    1        0.950  -2.711   0.081  0.00  0.00    +0.001 C 
ATOM      9  C   LIG    1        1.832  -1.687  -0.024  0.00  0.00    +0.016 C 
ATOM     10  C   LIG    1        1.415  -4.045   0.177  0.00  0.00    +0.189 C 
ATOM     11  O   LIG    1        2.607  -4.281   0.263  0.00  0.00    -0.287 OA
ATOM     12  C   LIG    1       -1.820  -5.901  -0.209  0.00  0.00    +0.004 A 
ENDROOT
BRANCH   9  13
ATOM     13  C   LIG    1        1.359  -0.302   0.043  0.00  0.00    -0.018 A 
ATOM     14  C   LIG    1        2.047   0.764  -0.644  0.00  0.00    +0.015 A 
ATOM     15  C   LIG    1        1.535   2.004  -0.521  0.00  0.00    +0.046 A 
ATOM     16  S   LIG    1        0.114   1.754   0.523  0.00  0.00    -0.104 S 
ATOM     17  C   LIG    1        0.232   0.044   0.767  0.00  0.00    +0.053 A 
ENDBRANCH   9  13
TORSDOF 1
