REMARK  Name = ZINC05425255
REMARK                            x       y       z     vdW  Elec       q    Type
REMARK                         _______ _______ _______ _____ _____    ______ ____
ROOT
ATOM      1  C   LIG    1        2.700   3.418   1.176  0.00  0.00    +0.083 C 
ENDROOT
BRANCH   1   2
ATOM      2  C   LIG    1        1.743   3.202   0.003  0.00  0.00    +0.068 C 
BRANCH   2   4
ATOM      3  C   LIG    1       -0.017   1.365   0.009  0.00  0.00    +0.107 A 
ATOM      4  C   LIG    1        1.267   1.772  -0.001  0.00  0.00    +0.060 A 
ATOM      5  N   LIG    1        2.048   0.681  -0.014  0.00  0.00    -0.241 NA
ATOM      6  C   LIG    1        1.297  -0.386  -0.012  0.00  0.00    +0.196 A 
ATOM      7  N   LIG    1        0.002  -0.004   0.002  0.00  0.00    -0.351 N 
ATOM      8  H   LIG    1       -0.771  -0.590   0.006  0.00  0.00    +0.166 HD
ENDBRANCH   2   4
ENDBRANCH   1   2
BRANCH   1   9
ATOM      9  S   LIG    1        3.272   5.140   1.180  0.00  0.00    -0.093 S 
BRANCH   9  10
ATOM     10  C   LIG    1        4.351   5.227   2.571  0.00  0.00    +0.123 C 
ATOM     11  N   LIG    1        5.377   6.078   2.566  0.00  0.00    -0.382 N 
ATOM     12  H   LIG    1        5.970   6.126   3.332  0.00  0.00    +0.158 HD
ATOM     13  H   LIG    1        5.530   6.649   1.797  0.00  0.00    +0.158 HD
BRANCH  10  14
ATOM     14  N   LIG    1        4.141   4.442   3.628  0.00  0.00    -0.340 N 
ATOM     15  H   LIG    1        4.734   4.491   4.393  0.00  0.00    +0.144 HD
ATOM     16  H   LIG    1        3.394   3.823   3.631  0.00  0.00    +0.144 HD
ENDBRANCH  10  14
ENDBRANCH   9  10
ENDBRANCH   1   9
TORSDOF 5
