REMARK  Name = ZINC05751469
REMARK                            x       y       z     vdW  Elec       q    Type
REMARK                         _______ _______ _______ _____ _____    ______ ____
ROOT
ATOM      1  N   LIG    1        0.926   2.176   0.005  0.00  0.00    -0.177 N 
ATOM      2  C   LIG    1       -0.014   1.210   0.009  0.00  0.00    +0.329 C 
ATOM      3  N   LIG    1       -0.980   2.150   0.017  0.00  0.00    -0.177 N 
ATOM      4  O   LIG    1        0.002  -0.004   0.002  0.00  0.00    -0.251 OA
ATOM      5  C   LIG    1       -0.040   3.116   0.019  0.00  0.00    +0.329 C 
ATOM      6  O   LIG    1       -0.057   4.330   0.026  0.00  0.00    -0.251 OA
ENDROOT
BRANCH   1  11
ATOM      7  C   LIG    1        6.600   2.253  -0.050  0.00  0.00    +0.044 C 
ATOM      8  C   LIG    1        5.094   2.233  -0.035  0.00  0.00    -0.050 A 
ATOM      9  C   LIG    1        4.387   3.421  -0.021  0.00  0.00    +0.005 A 
ATOM     10  C   LIG    1        3.006   3.406  -0.008  0.00  0.00    +0.024 A 
ATOM     11  C   LIG    1        2.327   2.195  -0.008  0.00  0.00    +0.047 A 
ATOM     12  C   LIG    1        3.039   1.003  -0.016  0.00  0.00    +0.024 A 
ATOM     13  C   LIG    1        4.420   1.025  -0.035  0.00  0.00    +0.005 A 
ENDBRANCH   1  11
BRANCH   3  14
ATOM     14  C   LIG    1       -2.382   2.131   0.021  0.00  0.00    +0.047 A 
ATOM     15  C   LIG    1       -3.061   0.920   0.011  0.00  0.00    +0.024 A 
ATOM     16  C   LIG    1       -4.442   0.904   0.022  0.00  0.00    +0.005 A 
ATOM     17  C   LIG    1       -5.148   2.093   0.031  0.00  0.00    -0.050 A 
ATOM     18  C   LIG    1       -6.655   2.073   0.035  0.00  0.00    +0.044 C 
ATOM     19  C   LIG    1       -4.475   3.301   0.035  0.00  0.00    +0.005 A 
ATOM     20  C   LIG    1       -3.094   3.323   0.030  0.00  0.00    +0.024 A 
ENDBRANCH   3  14
TORSDOF 2
