REMARK  Name = ZINC05783757
REMARK                            x       y       z     vdW  Elec       q    Type
REMARK                         _______ _______ _______ _____ _____    ______ ____
ROOT
ATOM      1  C   LIG    1       -0.017   1.365   0.009  0.00  0.00    +0.118 A 
ATOM      2  C   LIG    1        1.148   2.050   0.002  0.00  0.00    +0.121 A 
ATOM      3 CL   LIG    1        1.148   3.786   0.011  0.00  0.00    -0.076 Cl
ATOM      4  C   LIG    1        2.369   1.332  -0.013  0.00  0.00    +0.272 A 
ATOM      5  N   LIG    1        2.344  -0.017  -0.020  0.00  0.00    -0.274 N 
ATOM      6  C   LIG    1        1.169  -0.673  -0.013  0.00  0.00    +0.331 A 
ATOM      7  O   LIG    1        1.162  -1.889  -0.020  0.00  0.00    -0.246 OA
ATOM      8  H   LIG    1        3.201  -0.530  -0.031  0.00  0.00    +0.173 HD
ATOM      9  O   LIG    1        3.432   1.927  -0.020  0.00  0.00    -0.266 OA
ATOM     10  N   LIG    1        0.002  -0.004   0.002  0.00  0.00    -0.273 N 
ENDROOT
BRANCH  10  11
ATOM     11  C1* LIG    1       -1.261  -0.747   0.010  0.00  0.00    +0.226 C 
ATOM     12  C2* LIG    1       -1.414  -1.534  -1.306  0.00  0.00    +0.088 C 
ATOM     13  C3* LIG    1       -1.548  -3.008  -0.854  0.00  0.00    +0.150 C 
ATOM     14  C4* LIG    1       -1.998  -2.855   0.622  0.00  0.00    +0.175 C 
ATOM     15  O4* LIG    1       -1.257  -1.704   1.082  0.00  0.00    -0.348 OA
BRANCH  13  16
ATOM     16  O3* LIG    1       -2.542  -3.689  -1.622  0.00  0.00    -0.389 OA
ATOM     17  H3* LIG    1       -2.348  -3.730  -2.568  0.00  0.00    +0.210 HD
ENDBRANCH  13  16
BRANCH  14  18
ATOM     18  C5* LIG    1       -1.621  -4.098   1.431  0.00  0.00    +0.190 C 
BRANCH  18  19
ATOM     19  O5* LIG    1       -2.147  -3.982   2.755  0.00  0.00    -0.392 OA
ATOM     20  H5* LIG    1       -1.946  -4.736   3.325  0.00  0.00    +0.210 HD
ENDBRANCH  18  19
ENDBRANCH  14  18
ENDBRANCH  10  11
TORSDOF 4
