REMARK  Name = ZINC05274875
REMARK                            x       y       z     vdW  Elec       q    Type
REMARK                         _______ _______ _______ _____ _____    ______ ____
ROOT
ATOM      1  C   LIG    1       -1.742   1.625  -0.449  0.00  0.00    +0.064 C 
ATOM      2  C   LIG    1       -0.551   2.471  -0.081  0.00  0.00    +0.034 A 
ATOM      3  C   LIG    1        0.664   1.879   0.152  0.00  0.00    +0.085 A 
ATOM      4  C   LIG    1        1.813   2.720   0.516  0.00  0.00    +0.075 A 
ATOM      5  N   LIG    1        2.879   1.873   0.693  0.00  0.00    -0.289 N 
ATOM      6  N   LIG    1        2.480   0.553   0.465  0.00  0.00    -0.219 N 
ATOM      7  H   LIG    1        3.776   2.150   0.940  0.00  0.00    +0.187 HD
ATOM      8  C   LIG    1        1.623   4.082   0.605  0.00  0.00    +0.098 A 
ATOM      9  C   LIG    1        0.350   4.606   0.346  0.00  0.00    +0.254 A 
ATOM     10  O   LIG    1        0.174   5.811   0.422  0.00  0.00    -0.268 OA
ATOM     11  C   LIG    1        1.173   0.500   0.141  0.00  0.00    +0.281 A 
ATOM     12  O   LIG    1        0.533  -0.502  -0.115  0.00  0.00    -0.265 OA
ATOM     13  N   LIG    1       -0.680   3.811   0.016  0.00  0.00    -0.307 N 
ENDROOT
BRANCH   6  14
ATOM     14  C   LIG    1        3.321  -0.560   0.561  0.00  0.00    +0.067 A 
ATOM     15  C   LIG    1        2.821  -1.833   0.320  0.00  0.00    +0.028 A 
ATOM     16  C   LIG    1        3.655  -2.930   0.410  0.00  0.00    +0.002 A 
ATOM     17  C   LIG    1        4.985  -2.763   0.752  0.00  0.00    +0.000 A 
ATOM     18  C   LIG    1        5.485  -1.497   0.998  0.00  0.00    +0.002 A 
ATOM     19  C   LIG    1        4.657  -0.396   0.904  0.00  0.00    +0.028 A 
ENDBRANCH   6  14
BRANCH  13  20
ATOM     20  C   LIG    1       -1.988   4.417  -0.244  0.00  0.00    +0.160 C 
BRANCH  20  21
ATOM     21  C   LIG    1       -2.719   4.613   1.060  0.00  0.00    -0.024 A 
ATOM     22  C   LIG    1       -2.475   5.739   1.824  0.00  0.00    +0.009 A 
ATOM     23  C   LIG    1       -3.143   5.924   3.020  0.00  0.00    +0.050 A 
ATOM     24  C   LIG    1       -4.058   4.980   3.456  0.00  0.00    +0.166 A 
ATOM     25  C   LIG    1       -4.304   3.846   2.686  0.00  0.00    +0.167 A 
ATOM     26  O   LIG    1       -5.236   3.079   3.324  0.00  0.00    -0.453 OA
ATOM     27  C   LIG    1       -5.857   3.950   4.287  0.00  0.00    +0.466 C 
ATOM     28  O   LIG    1       -4.836   4.923   4.576  0.00  0.00    -0.453 OA
ATOM     29  C   LIG    1       -3.635   3.670   1.485  0.00  0.00    +0.055 A 
ENDBRANCH  20  21
ENDBRANCH  13  20
TORSDOF 3
