REMARK  Name = ZINC05280674
REMARK                            x       y       z     vdW  Elec       q    Type
REMARK                         _______ _______ _______ _____ _____    ______ ____
ROOT
ATOM      1  C   LIG    1        2.327   0.258   0.125  0.00  0.00    +0.131 A 
ATOM      2  C   LIG    1        2.219   1.650   0.152  0.00  0.00    +0.131 A 
ATOM      3  N   LIG    1        1.042   2.232   0.126  0.00  0.00    -0.252 NA
ATOM      4  C   LIG    1       -0.066   1.484   0.072  0.00  0.00    +0.091 A 
ATOM      5  C   LIG    1       -1.341   2.076   0.048  0.00  0.00    +0.064 A 
ATOM      6  C   LIG    1       -2.449   1.289  -0.012  0.00  0.00    +0.154 A 
ATOM      7  C   LIG    1       -2.341  -0.100  -0.039  0.00  0.00    +0.154 A 
ATOM      8  C   LIG    1       -1.125  -0.709  -0.012  0.00  0.00    +0.064 A 
ATOM      9  C   LIG    1        0.043   0.071   0.044  0.00  0.00    +0.091 A 
ATOM     10  N   LIG    1        1.254  -0.498   0.072  0.00  0.00    -0.252 NA
ENDROOT
BRANCH   6  11
ATOM     11  N   LIG    1       -3.789   1.917  -0.042  0.00  0.00    +0.008 N 
ATOM     12  O   LIG    1       -4.584   1.614  -0.914  0.00  0.00    -0.130 OA
BRANCH  11  13
ATOM     13  O   LIG    1       -4.097   2.737   0.804  0.00  0.00    -0.396 OA
ATOM     14  H   LIG    1       -3.485   2.971   1.475  0.00  0.00    +0.329 HD
ENDBRANCH  11  13
ENDBRANCH   6  11
BRANCH   7  15
ATOM     15  N   LIG    1       -3.569  -0.926  -0.099  0.00  0.00    +0.008 N 
ATOM     16  O   LIG    1       -3.485  -2.131  -0.252  0.00  0.00    -0.130 OA
BRANCH  15  17
ATOM     17  O   LIG    1       -4.662  -0.400   0.005  0.00  0.00    -0.396 OA
ATOM     18  H   LIG    1       -4.727   0.527   0.122  0.00  0.00    +0.329 HD
ENDBRANCH  15  17
ENDBRANCH   7  15
TORSDOF 4
