REMARK  Name = ZINC05218517
REMARK                            x       y       z     vdW  Elec       q    Type
REMARK                         _______ _______ _______ _____ _____    ______ ____
ROOT
ATOM      1  C   LIG    1       -1.352   1.805   0.107  0.00  0.00    +0.044 C 
ATOM      2  C   LIG    1       -0.001   1.136   0.098  0.00  0.00    -0.049 A 
ATOM      3  C   LIG    1        0.082  -0.244   0.130  0.00  0.00    +0.005 A 
ATOM      4  C   LIG    1        1.317  -0.869   0.096  0.00  0.00    +0.025 A 
ATOM      5  C   LIG    1        2.466  -0.100   0.044  0.00  0.00    +0.052 A 
ATOM      6  C   LIG    1        2.386   1.285   0.044  0.00  0.00    +0.050 A 
ATOM      7  N   LIG    1        3.568   2.020   0.075  0.00  0.00    -0.331 N 
ATOM      8  H   LIG    1        3.804   2.578  -0.683  0.00  0.00    +0.147 HD
ATOM      9  C   LIG    1        4.450   1.964   1.221  0.00  0.00    +0.139 C 
ATOM     10  C   LIG    1        5.072   0.610   1.466  0.00  0.00    +0.037 C 
ATOM     11  C   LIG    1        4.714  -0.541   0.873  0.00  0.00    +0.017 C 
ATOM     12  C   LIG    1        5.432  -1.838   1.212  0.00  0.00    +0.058 C 
ATOM     13  C   LIG    1        5.886  -1.817   2.670  0.00  0.00    -0.023 C 
ATOM     14  C   LIG    1        6.623  -3.116   3.002  0.00  0.00    +0.011 C 
ATOM     15  C   LIG    1        4.672  -1.658   3.589  0.00  0.00    +0.011 C 
ATOM     16  C   LIG    1        6.831  -0.623   2.847  0.00  0.00    +0.086 C 
ATOM     17  C   LIG    1        6.111   0.623   2.427  0.00  0.00    +0.163 C 
ATOM     18  O   LIG    1        6.430   1.683   2.930  0.00  0.00    -0.292 OA
ATOM     19  N   LIG    1        3.733  -0.661  -0.058  0.00  0.00    -0.316 N 
ATOM     20  H   LIG    1        3.933  -1.178  -0.855  0.00  0.00    +0.152 HD
ATOM     21  C   LIG    1        1.147   1.907   0.051  0.00  0.00    +0.028 A 
ENDROOT
BRANCH   9  22
ATOM     22  C   LIG    1        3.667   2.359   2.446  0.00  0.00    +0.012 A 
ATOM     23  C   LIG    1        2.519   1.669   2.785  0.00  0.00    +0.008 A 
ATOM     24  C   LIG    1        1.800   2.030   3.909  0.00  0.00    +0.001 A 
ATOM     25  C   LIG    1        2.230   3.083   4.696  0.00  0.00    +0.003 A 
ATOM     26  C   LIG    1        3.378   3.775   4.359  0.00  0.00    +0.039 A 
ATOM     27  C   LIG    1        4.101   3.410   3.236  0.00  0.00    +0.129 A 
ATOM     28  F   LIG    1        5.226   4.082   2.909  0.00  0.00    -0.205 F 
ENDBRANCH   9  22
TORSDOF 1
