REMARK  Name = ZINC04941804
REMARK                            x       y       z     vdW  Elec       q    Type
REMARK                         _______ _______ _______ _____ _____    ______ ____
ROOT
ATOM      1  C   LIG    1       -2.401  -0.015   0.033  0.00  0.00    +0.133 A 
ATOM      2  C   LIG    1       -2.428   1.374   0.136  0.00  0.00    +0.048 A 
ATOM      3  C   LIG    1       -1.272   2.101   0.142  0.00  0.00    +0.032 A 
ATOM      4  C   LIG    1       -0.040   1.449   0.034  0.00  0.00    +0.082 A 
ATOM      5  C   LIG    1       -0.008   0.038  -0.070  0.00  0.00    +0.088 A 
ATOM      6  C   LIG    1        1.305  -0.615  -0.176  0.00  0.00    +0.348 A 
ATOM      7  O   LIG    1        2.398   0.179  -0.166  0.00  0.00    -0.400 OA
ATOM      8  C   LIG    1        2.276   1.515  -0.063  0.00  0.00    +0.267 A 
ATOM      9  O   LIG    1        1.403  -1.824  -0.268  0.00  0.00    -0.244 OA
ATOM     10  N   LIG    1        1.124   2.129   0.033  0.00  0.00    -0.209 NA
ATOM     11  C   LIG    1       -1.196  -0.687  -0.070  0.00  0.00    +0.063 A 
ENDROOT
BRANCH   8  12
ATOM     12  C   LIG    1        3.500   2.327  -0.058  0.00  0.00    +0.191 A 
ATOM     13  C   LIG    1        4.764   1.837  -0.144  0.00  0.00    +0.063 A 
ATOM     14  C   LIG    1        5.652   2.998  -0.103  0.00  0.00    +0.021 A 
ATOM     15  C   LIG    1        7.038   3.166  -0.152  0.00  0.00    +0.011 A 
ATOM     16  C   LIG    1        7.571   4.422  -0.084  0.00  0.00    +0.001 A 
ATOM     17  C   LIG    1        6.745   5.531   0.034  0.00  0.00    +0.004 A 
ATOM     18  C   LIG    1        5.375   5.387   0.084  0.00  0.00    +0.047 A 
ATOM     19  C   LIG    1        4.810   4.119   0.016  0.00  0.00    +0.136 A 
ATOM     20  O   LIG    1        3.538   3.672   0.039  0.00  0.00    -0.450 OA
ENDBRANCH   8  12
BRANCH   1  21
ATOM     21  O   LIG    1       -3.567  -0.715   0.034  0.00  0.00    -0.426 OA
BRANCH  21  23
ATOM     22  C   LIG    1       -5.723  -1.220  -1.057  0.00  0.00    +0.136 C 
ATOM     23  C   LIG    1       -4.359  -0.581  -1.042  0.00  0.00    +0.309 C 
ATOM     24  O   LIG    1       -3.978   0.053  -1.998  0.00  0.00    -0.251 OA
ENDBRANCH  21  23
ENDBRANCH   1  21
TORSDOF 3
