REMARK  Name = ZINC05133259
REMARK                            x       y       z     vdW  Elec       q    Type
REMARK                         _______ _______ _______ _____ _____    ______ ____
ROOT
ATOM      1  C   LIG    1       -0.018   1.469   0.010  0.00  0.00    +0.202 C 
ATOM      2  C   LIG    1       -0.739   1.823  -1.276  0.00  0.00    +0.238 C 
ATOM      3  N   LIG    1       -1.043   0.646  -1.858  0.00  0.00    -0.239 N 
ATOM      4  C   LIG    1       -0.619  -0.391  -1.127  0.00  0.00    +0.306 C 
ATOM      5  O   LIG    1       -0.777  -1.553  -1.447  0.00  0.00    -0.252 OA
ATOM      6  H   LIG    1       -1.512   0.561  -2.703  0.00  0.00    +0.159 HD
ATOM      7  O   LIG    1       -0.989   2.933  -1.694  0.00  0.00    -0.274 OA
ATOM      8  N   LIG    1        0.002  -0.004   0.002  0.00  0.00    -0.290 N 
ATOM      9  H   LIG    1        0.388  -0.582   0.678  0.00  0.00    +0.151 HD
ENDROOT
TORSDOF 0
