REMARK  Name = ZINC05019457
REMARK                            x       y       z     vdW  Elec       q    Type
REMARK                         _______ _______ _______ _____ _____    ______ ____
ROOT
ATOM      1  C   LIG    1        2.408   4.577   0.003  0.00  0.00    +0.248 C 
ATOM      2  N   LIG    1        3.582   3.916  -0.011  0.00  0.00    -0.306 N 
ATOM      3  H   LIG    1        3.593   2.946  -0.016  0.00  0.00    +0.149 HD
ATOM      4  O   LIG    1        2.394   5.793   0.009  0.00  0.00    -0.270 OA
ENDROOT
BRANCH   2   5
ATOM      5  C   LIG    1        4.843   4.662  -0.019  0.00  0.00    +0.098 C 
ATOM      6  C   LIG    1        5.209   5.031  -1.459  0.00  0.00    +0.006 C 
ATOM      7  C   LIG    1        6.557   5.757  -1.467  0.00  0.00    -0.081 C 
ATOM      8  N   LIG    1        7.597   4.882  -0.895  0.00  0.00    +0.381 N 
ATOM      9  H   LIG    1        7.646   4.014  -1.440  0.00  0.00    -0.086 HD
ATOM     10  H   LIG    1        8.503   5.363  -0.934  0.00  0.00    -0.086 HD
ATOM     11  C   LIG    1        7.281   4.556   0.509  0.00  0.00    -0.049 C 
ATOM     12  C   LIG    1        5.955   3.794   0.576  0.00  0.00    +0.121 C 
BRANCH  12  13
ATOM     13  O   LIG    1        5.646   3.491   1.938  0.00  0.00    -0.380 OA
ATOM     14  C   LIG    1        6.162   2.235   2.385  0.00  0.00    +0.194 C 
ENDBRANCH  12  13
ENDBRANCH   2   5
BRANCH   1  21
ATOM     15  C   LIG    1       -0.084   4.512   0.027  0.00  0.00    +0.134 A 
ATOM     16  C   LIG    1       -1.269   3.798   0.035  0.00  0.00    +0.070 A 
ATOM     17  C   LIG    1       -1.241   2.409   0.021  0.00  0.00    +0.047 A 
ATOM     18  C   LIG    1       -0.021   1.732   0.012  0.00  0.00    +0.062 A 
ATOM     19 CL   LIG    1        0.002  -0.004   0.002  0.00  0.00    -0.082 Cl
ATOM     20  C   LIG    1        1.154   2.427   0.004  0.00  0.00    +0.038 A 
ATOM     21  C   LIG    1        1.141   3.826   0.011  0.00  0.00    +0.080 A 
BRANCH  17  22
ATOM     22  N   LIG    1       -2.432   1.691   0.023  0.00  0.00    -0.357 N 
ATOM     23  H   LIG    1       -3.281   2.161   0.029  0.00  0.00    +0.142 HD
ATOM     24  H   LIG    1       -2.414   0.722   0.018  0.00  0.00    +0.142 HD
ENDBRANCH  17  22
BRANCH  15  26
ATOM     25  C   LIG    1       -1.388   6.497   0.049  0.00  0.00    +0.277 C 
ATOM     26  O   LIG    1       -0.105   5.869   0.033  0.00  0.00    -0.494 OA
ENDBRANCH  15  26
ENDBRANCH   1  21
TORSDOF 5
