REMARK  Name = ZINC05809705
REMARK                            x       y       z     vdW  Elec       q    Type
REMARK                         _______ _______ _______ _____ _____    ______ ____
ROOT
ATOM      1  C   LIG    1        1.208  -2.204  -0.019  0.00  0.00    +0.051 C 
ATOM      2  C   LIG    1        1.207  -0.697  -0.013  0.00  0.00    +0.033 A 
ATOM      3  C   LIG    1        0.002  -0.004   0.002  0.00  0.00    +0.130 A 
ATOM      4  C   LIG    1       -0.017   1.385   0.010  0.00  0.00    +0.092 A 
ATOM      5  C   LIG    1        1.170   2.097   0.002  0.00  0.00    +0.139 A 
ATOM      6  C   LIG    1        2.391   1.399  -0.020  0.00  0.00    +0.101 A 
ATOM      7  C   LIG    1        3.646   2.159  -0.044  0.00  0.00    +0.174 C 
ATOM      8  C   LIG    1        3.545   3.646   0.246  0.00  0.00    +0.129 C 
ATOM      9  C   LIG    1        2.284   4.163  -0.462  0.00  0.00    +0.211 C 
ATOM     10  O   LIG    1        4.710   1.627  -0.284  0.00  0.00    -0.292 OA
ATOM     11  O   LIG    1        1.145   3.450   0.021  0.00  0.00    -0.483 OA
ATOM     12  C   LIG    1        2.404  -0.004  -0.023  0.00  0.00    +0.137 A 
ENDROOT
BRANCH   9  13
ATOM     13  C   LIG    1        2.115   5.633  -0.178  0.00  0.00    -0.007 A 
ATOM     14  C   LIG    1        1.566   6.047   1.021  0.00  0.00    +0.007 A 
ATOM     15  C   LIG    1        1.415   7.396   1.283  0.00  0.00    +0.000 A 
ATOM     16  C   LIG    1        1.804   8.331   0.342  0.00  0.00    +0.000 A 
ATOM     17  C   LIG    1        2.348   7.917  -0.860  0.00  0.00    +0.000 A 
ATOM     18  C   LIG    1        2.504   6.568  -1.120  0.00  0.00    +0.007 A 
ENDBRANCH   9  13
BRANCH   3  19
ATOM     19  O   LIG    1       -1.168  -0.691   0.009  0.00  0.00    -0.495 OA
ATOM     20  C   LIG    1       -2.372   0.078   0.023  0.00  0.00    +0.277 C 
ENDBRANCH   3  19
BRANCH  12  21
ATOM     21  O   LIG    1        3.582  -0.677  -0.035  0.00  0.00    -0.506 OA
ATOM     22  H   LIG    1        3.915  -0.870  -0.923  0.00  0.00    +0.292 HD
ENDBRANCH  12  21
TORSDOF 3
