REMARK  Name = ZINC05751264
REMARK                            x       y       z     vdW  Elec       q    Type
REMARK                         _______ _______ _______ _____ _____    ______ ____
ROOT
ATOM      1  C   LIG    1        0.605  -0.506  -1.315  0.00  0.00    -0.002 C 
ATOM      2  C   LIG    1        0.456  -2.044  -1.431  0.00  0.00    +0.004 C 
ATOM      3  C   LIG    1       -0.335  -2.310  -2.740  0.00  0.00    +0.004 C 
ATOM      4  C   LIG    1       -0.056  -1.052  -3.571  0.00  0.00    -0.001 C 
ATOM      5  C   LIG    1       -1.061  -0.750  -4.668  0.00  0.00    +0.000 C 
ATOM      6  C   LIG    1       -0.995  -1.844  -5.739  0.00  0.00    +0.031 C 
ATOM      7  C   LIG    1       -1.863  -1.453  -6.899  0.00  0.00    -0.027 C 
ATOM      8  C   LIG    1       -2.136  -0.216  -7.194  0.00  0.00    -0.065 C 
ATOM      9  C   LIG    1       -1.644   0.986  -6.391  0.00  0.00    -0.008 C 
ATOM     10  C   LIG    1       -2.832   1.683  -5.725  0.00  0.00    +0.016 C 
ATOM     11  C   LIG    1       -0.998   1.989  -7.351  0.00  0.00    +0.014 C 
ATOM     12  C   LIG    1       -2.000   2.362  -8.445  0.00  0.00    +0.032 C 
ATOM     13  C   LIG    1       -2.355   1.120  -9.264  0.00  0.00    +0.119 C 
ATOM     14  C   LIG    1       -3.021   0.058  -8.399  0.00  0.00    +0.062 C 
ATOM     15  C   LIG    1       -0.656   0.593  -5.306  0.00  0.00    +0.003 C 
ATOM     16  C   LIG    1       -0.545   1.716  -4.279  0.00  0.00    +0.005 C 
ATOM     17  C   LIG    1        0.385   1.336  -3.116  0.00  0.00    +0.007 C 
ATOM     18  C   LIG    1       -0.169   0.066  -2.498  0.00  0.00    -0.026 C 
ATOM     19  C   LIG    1       -1.636   0.267  -2.111  0.00  0.00    +0.012 C 
ENDROOT
BRANCH   1  21
ATOM     20  C   LIG    1        0.205   1.498   0.122  0.00  0.00    +0.008 C 
ATOM     21  C   LIG    1        0.001  -0.013   0.002  0.00  0.00    -0.010 C 
BRANCH  21  22
ATOM     22  C   LIG    1        0.689  -0.716   1.174  0.00  0.00    +0.003 C 
BRANCH  22  23
ATOM     23  C   LIG    1        0.003  -0.318   2.482  0.00  0.00    +0.003 C 
BRANCH  23  24
ATOM     24  C   LIG    1        0.692  -1.020   3.653  0.00  0.00    +0.034 C 
BRANCH  24  25
ATOM     25  C   LIG    1        0.006  -0.622   4.962  0.00  0.00    +0.061 C 
ATOM     26  C   LIG    1       -0.007   0.903   5.087  0.00  0.00    +0.041 C 
ATOM     27  C   LIG    1        0.770  -1.224   6.142  0.00  0.00    +0.041 C 
BRANCH  25  28
ATOM     28  O   LIG    1       -1.337  -1.111   4.963  0.00  0.00    -0.389 OA
ATOM     29  H   LIG    1       -1.833  -0.895   5.765  0.00  0.00    +0.210 HD
ENDBRANCH  25  28
ENDBRANCH  24  25
ENDBRANCH  23  24
ENDBRANCH  22  23
ENDBRANCH  21  22
ENDBRANCH   1  21
BRANCH  13  30
ATOM     30  O   LIG    1       -3.223   1.490 -10.338  0.00  0.00    -0.391 OA
ATOM     31  H   LIG    1       -3.490   0.750 -10.900  0.00  0.00    +0.210 HD
ENDBRANCH  13  30
TORSDOF 7
