REMARK  Name = ZINC05114736
REMARK                            x       y       z     vdW  Elec       q    Type
REMARK                         _______ _______ _______ _____ _____    ______ ____
ROOT
ATOM      1  N   LIG    1       -1.399  -3.999  -1.227  0.00  0.00    -0.278 N 
ATOM      2  C   LIG    1       -1.378  -4.745  -0.059  0.00  0.00    +0.146 A 
ATOM      3  N   LIG    1       -1.358  -6.055   0.193  0.00  0.00    -0.325 N 
ATOM      4  H   LIG    1       -1.355  -6.795  -0.519  0.00  0.00    +0.169 HD
ATOM      5  C   LIG    1       -1.342  -6.256   1.498  0.00  0.00    +0.118 A 
ATOM      6  N   LIG    1       -1.352  -5.055   2.141  0.00  0.00    -0.334 N 
ATOM      7  H   LIG    1       -1.345  -4.907   3.130  0.00  0.00    +0.168 HD
ATOM      8  C   LIG    1       -1.375  -4.079   1.162  0.00  0.00    +0.147 A 
ATOM      9  C   LIG    1       -1.393  -2.669   1.175  0.00  0.00    +0.282 A 
ATOM     10  N   LIG    1       -1.413  -1.998   0.005  0.00  0.00    -0.259 N 
ATOM     11  O   LIG    1       -1.391  -2.063   2.232  0.00  0.00    -0.265 OA
ATOM     12  C   LIG    1       -1.421  -2.654  -1.169  0.00  0.00    +0.334 A 
ATOM     13  O   LIG    1       -1.444  -2.016  -2.204  0.00  0.00    -0.246 OA
ENDROOT
BRANCH   5  14
ATOM     14  C   LIG    1       -1.319  -7.577   2.157  0.00  0.00    +0.016 A 
ATOM     15  C   LIG    1       -1.298  -7.665   3.551  0.00  0.00    +0.015 A 
ATOM     16  C   LIG    1       -1.281  -8.899   4.162  0.00  0.00    +0.046 A 
ATOM     17  C   LIG    1       -1.274 -10.057   3.394  0.00  0.00    +0.121 A 
ATOM     18  C   LIG    1       -1.288  -9.974   2.007  0.00  0.00    +0.046 A 
ATOM     19  C   LIG    1       -1.310  -8.743   1.388  0.00  0.00    +0.015 A 
BRANCH  17  20
ATOM     20  O   LIG    1       -1.252 -11.272   4.000  0.00  0.00    -0.481 OA
BRANCH  20  21
ATOM     21  C   LIG    1       -1.238 -11.284   5.428  0.00  0.00    +0.349 C 
BRANCH  21  22
ATOM     22  C   LIG    1       -1.214 -12.709   5.918  0.00  0.00    +0.343 C 
ATOM     23  O   LIG    1       -1.210 -13.620   5.125  0.00  0.00    -0.247 OA
BRANCH  22  24
ATOM     24  O   LIG    1       -1.198 -12.965   7.236  0.00  0.00    -0.478 OA
ATOM     25  H   LIG    1       -1.202 -12.258   7.851  0.00  0.00    +0.295 HD
ENDBRANCH  22  24
ENDBRANCH  21  22
ENDBRANCH  20  21
ENDBRANCH  17  20
ENDBRANCH   5  14
BRANCH   1  26
ATOM     26  C   LIG    1       -1.403  -4.674  -2.527  0.00  0.00    +0.128 C 
BRANCH  26  28
ATOM     27  C   LIG    1       -2.851  -5.633  -4.323  0.00  0.00    +0.005 C 
ATOM     28  C   LIG    1       -2.847  -4.928  -2.966  0.00  0.00    +0.018 C 
ENDBRANCH  26  28
ENDBRANCH   1  26
BRANCH  10  29
ATOM     29  C   LIG    1       -1.433  -0.534   0.013  0.00  0.00    +0.130 C 
BRANCH  29  30
ATOM     30  C   LIG    1        0.002  -0.004   0.002  0.00  0.00    +0.018 C 
ATOM     31  C   LIG    1       -0.019   1.526   0.010  0.00  0.00    +0.005 C 
ENDBRANCH  29  30
ENDBRANCH  10  29
TORSDOF 9
