REMARK  Name = ZINC05496165
REMARK                            x       y       z     vdW  Elec       q    Type
REMARK                         _______ _______ _______ _____ _____    ______ ____
ROOT
ATOM      1  C   LIG    1        4.234   0.283  -2.352  0.00  0.00    +0.033 A 
ATOM      2  C   LIG    1        4.947   0.524  -1.185  0.00  0.00    +0.025 A 
ATOM      3  C   LIG    1        6.208   1.085  -1.252  0.00  0.00    +0.030 A 
ATOM      4  C   LIG    1        6.759   1.406  -2.478  0.00  0.00    +0.105 A 
ATOM      5  C   LIG    1        6.051   1.169  -3.642  0.00  0.00    +0.030 A 
ATOM      6  C   LIG    1        4.793   0.602  -3.583  0.00  0.00    +0.025 A 
ENDROOT
BRANCH   1   8
ATOM      7  C   LIG    1        2.132   0.025  -1.268  0.00  0.00    +0.218 C 
ATOM      8  N   LIG    1        2.957  -0.285  -2.288  0.00  0.00    -0.285 N 
ATOM      9  H   LIG    1        2.665  -0.901  -2.978  0.00  0.00    +0.155 HD
ATOM     10  O   LIG    1        2.525   0.729  -0.362  0.00  0.00    -0.275 OA
BRANCH   7  11
ATOM     11  C   LIG    1        0.720  -0.503  -1.254  0.00  0.00    +0.102 C 
BRANCH  11  13
ATOM     12  C   LIG    1       -0.025   1.522   0.005  0.00  0.00    +0.011 C 
ATOM     13  C   LIG    1        0.003  -0.007   0.004  0.00  0.00    -0.029 C 
ATOM     14  C   LIG    1       -1.430  -0.544   0.018  0.00  0.00    +0.011 C 
ATOM     15  C   LIG    1        0.747  -0.504   1.245  0.00  0.00    +0.011 C 
ENDBRANCH  11  13
ENDBRANCH   7  11
ENDBRANCH   1   8
BRANCH   4  16
ATOM     16  S   LIG    1        8.367   2.122  -2.559  0.00  0.00    +0.056 S 
ATOM     17  O   LIG    1        8.598   2.746  -1.303  0.00  0.00    -0.153 OA
ATOM     18  O   LIG    1        8.435   2.833  -3.787  0.00  0.00    -0.153 OA
BRANCH  16  19
ATOM     19  N   LIG    1        9.452   0.876  -2.674  0.00  0.00    -0.204 NA
ATOM     20  H   LIG    1       10.402   1.063  -2.729  0.00  0.00    +0.144 HD
ATOM     21  H   LIG    1        9.138  -0.042  -2.685  0.00  0.00    +0.144 HD
ENDBRANCH  16  19
ENDBRANCH   4  16
TORSDOF 5
