REMARK  Name = ZINC05765126
REMARK                            x       y       z     vdW  Elec       q    Type
REMARK                         _______ _______ _______ _____ _____    ______ ____
ROOT
ATOM      1  C   LIG    1       -2.808   3.006  -4.679  0.00  0.00    +0.047 C 
ATOM      2  C   LIG    1       -2.079   2.507  -3.458  0.00  0.00    -0.005 A 
ATOM      3  C   LIG    1       -1.140   3.308  -2.838  0.00  0.00    +0.052 A 
ATOM      4  C   LIG    1       -0.473   2.852  -1.711  0.00  0.00    +0.124 A 
ATOM      5  C   LIG    1       -0.742   1.585  -1.213  0.00  0.00    -0.004 A 
ATOM      6  C   LIG    1       -1.681   0.784  -1.832  0.00  0.00    +0.053 A 
ATOM      7  C   LIG    1       -2.352   1.244  -2.956  0.00  0.00    +0.123 A 
ENDROOT
BRANCH   4   8
ATOM      8  O   LIG    1        0.447   3.643  -1.098  0.00  0.00    -0.495 OA
ATOM      9  C   LIG    1        0.673   4.935  -1.665  0.00  0.00    +0.277 C 
ENDBRANCH   4   8
BRANCH   7  10
ATOM     10  O   LIG    1       -3.277   0.455  -3.565  0.00  0.00    -0.495 OA
ATOM     11  C   LIG    1       -3.507  -0.835  -2.995  0.00  0.00    +0.277 C 
ENDBRANCH   7  10
BRANCH   5  12
ATOM     12  C   LIG    1       -0.013   1.086   0.008  0.00  0.00    +0.022 C 
BRANCH  12  13
ATOM     13  C   LIG    1       -0.729   1.579   1.267  0.00  0.00    -0.074 C 
ATOM     14  C   LIG    1       -0.064   0.971   2.503  0.00  0.00    -0.014 C 
BRANCH  13  15
ATOM     15  N   LIG    1       -0.656   3.048   1.358  0.00  0.00    +0.380 N 
ATOM     16  H   LIG    1       -1.113   3.356   2.224  0.00  0.00    -0.090 HD
ATOM     17  H   LIG    1       -1.133   3.471   0.563  0.00  0.00    -0.090 HD
ATOM     18  H   LIG    1        0.317   3.350   1.369  0.00  0.00    -0.090 HD
ENDBRANCH  13  15
ENDBRANCH  12  13
ENDBRANCH   5  12
TORSDOF 5
