REMARK  Name = ZINC05785242
REMARK                            x       y       z     vdW  Elec       q    Type
REMARK                         _______ _______ _______ _____ _____    ______ ____
ROOT
ATOM      1  N   LIG    1        3.249   3.059   2.400  0.00  0.00    -0.243 N 
ATOM      2  H   LIG    1        4.029   2.757   2.891  0.00  0.00    +0.265 HD
ENDROOT
BRANCH   1   5
ATOM      3  C   LIG    1        0.740   0.459   3.077  0.00  0.00    +0.006 A 
ATOM      4  C   LIG    1        1.961   1.075   2.885  0.00  0.00    +0.042 A 
ATOM      5  C   LIG    1        2.014   2.432   2.595  0.00  0.00    +0.102 A 
ATOM      6  C   LIG    1        0.838   3.166   2.499  0.00  0.00    +0.074 A 
ATOM      7  C   LIG    1       -0.379   2.543   2.693  0.00  0.00    +0.125 A 
ATOM      8  C   LIG    1       -0.429   1.192   2.981  0.00  0.00    +0.033 A 
BRANCH   7   9
ATOM      9  N   LIG    1       -1.633   3.324   2.592  0.00  0.00    +0.006 N 
ATOM     10  O   LIG    1       -1.590   4.506   2.340  0.00  0.00    -0.130 OA
BRANCH   9  11
ATOM     11  O   LIG    1       -2.699   2.780   2.761  0.00  0.00    -0.396 OA
ATOM     12  H   LIG    1       -2.732   1.865   2.956  0.00  0.00    +0.329 HD
ENDBRANCH   9  11
ENDBRANCH   7   9
ENDBRANCH   1   5
BRANCH   1  13
ATOM     13  C   LIG    1        3.357   4.105   1.512  0.00  0.00    +0.392 C 
ATOM     14  N   LIG    1        4.469   4.778   1.431  0.00  0.00    -0.129 NA
ATOM     15  H   LIG    1        5.244   4.499   1.943  0.00  0.00    +0.306 HD
BRANCH  13  16
ATOM     16  N   LIG    1        2.288   4.439   0.705  0.00  0.00    -0.189 N 
ATOM     17  H   LIG    1        1.488   3.889   0.707  0.00  0.00    +0.271 HD
BRANCH  16  18
ATOM     18  C   LIG    1        2.355   5.549  -0.100  0.00  0.00    +0.350 C 
ATOM     19  N   LIG    1        1.279   5.950  -0.772  0.00  0.00    -0.291 N 
ATOM     20  H   LIG    1        1.327   6.734  -1.341  0.00  0.00    +0.255 HD
ATOM     21  H   LIG    1        0.447   5.458  -0.694  0.00  0.00    +0.255 HD
BRANCH  18  22
ATOM     22  N   LIG    1        3.497   6.225  -0.207  0.00  0.00    -0.291 N 
ATOM     23  H   LIG    1        3.498   7.192  -0.130  0.00  0.00    +0.255 HD
ATOM     24  H   LIG    1        4.329   5.750  -0.362  0.00  0.00    +0.255 HD
ENDBRANCH  18  22
ENDBRANCH  16  18
ENDBRANCH  13  16
ENDBRANCH   1  13
TORSDOF 7
