REMARK  Name = ZINC05525826
REMARK                            x       y       z     vdW  Elec       q    Type
REMARK                         _______ _______ _______ _____ _____    ______ ____
ROOT
ATOM      1  C   LIG    1        0.017   1.462   0.280  0.00  0.00    +0.138 C 
ATOM      2  N   LIG    1        0.052  -0.001   0.337  0.00  0.00    -0.269 N 
ATOM      3  C   LIG    1       -1.014  -0.795   0.748  0.00  0.00    +0.046 A 
ATOM      4  C   LIG    1       -2.293  -0.469   1.182  0.00  0.00    +0.024 A 
ATOM      5  C   LIG    1       -3.180  -1.465   1.539  0.00  0.00    +0.002 A 
ATOM      6  C   LIG    1       -2.809  -2.798   1.471  0.00  0.00    +0.001 A 
ATOM      7  C   LIG    1       -1.543  -3.142   1.042  0.00  0.00    +0.012 A 
ATOM      8  C   LIG    1       -0.642  -2.145   0.679  0.00  0.00    +0.027 A 
ATOM      9  C   LIG    1        0.754  -2.171   0.191  0.00  0.00    +0.135 C 
ATOM     10  N   LIG    1        1.506  -3.225  -0.025  0.00  0.00    -0.242 NA
ATOM     11  C   LIG    1        1.116  -0.747  -0.008  0.00  0.00    +0.270 C 
ATOM     12  O   LIG    1        2.185  -0.328  -0.408  0.00  0.00    -0.268 OA
ENDROOT
BRANCH  10  13
ATOM     13  C   LIG    1        0.974  -4.470   0.073  0.00  0.00    +0.065 A 
ATOM     14  C   LIG    1       -0.010  -4.888  -0.835  0.00  0.00    +0.031 A 
ATOM     15  C   LIG    1       -0.544  -6.147  -0.731  0.00  0.00    +0.048 A 
ATOM     16  C   LIG    1       -0.111  -7.008   0.272  0.00  0.00    +0.120 A 
ATOM     17  C   LIG    1        0.865  -6.599   1.175  0.00  0.00    +0.048 A 
ATOM     18  C   LIG    1        1.410  -5.345   1.078  0.00  0.00    +0.031 A 
BRANCH  16  19
ATOM     19  O   LIG    1       -0.644  -8.253   0.371  0.00  0.00    -0.495 OA
ATOM     20  C   LIG    1       -0.155  -9.086   1.423  0.00  0.00    +0.277 C 
ENDBRANCH  16  19
ENDBRANCH  10  13
TORSDOF 2
