REMARK  Name = ZINC05579959
REMARK                            x       y       z     vdW  Elec       q    Type
REMARK                         _______ _______ _______ _____ _____    ______ ____
ROOT
ATOM      1  C   LIG    1       -0.018   1.461   0.010  0.00  0.00    +0.149 C 
ATOM      2  N   LIG    1        0.002  -0.004   0.002  0.00  0.00    -0.340 N 
ATOM      3  C   LIG    1        0.008  -0.785  -1.135  0.00  0.00    +0.053 A 
ATOM      4  C   LIG    1       -0.002  -0.474  -2.491  0.00  0.00    +0.071 A 
ATOM      5  C   LIG    1        0.008  -1.489  -3.430  0.00  0.00    +0.119 A 
ATOM      6  C   LIG    1        0.027  -2.822  -3.028  0.00  0.00    +0.046 A 
ATOM      7  C   LIG    1        0.037  -3.144  -1.701  0.00  0.00    +0.014 A 
ATOM      8  C   LIG    1        0.028  -2.134  -0.739  0.00  0.00    +0.010 A 
ATOM      9  C   LIG    1        0.035  -2.131   0.730  0.00  0.00    +0.039 A 
ATOM     10  C   LIG    1        0.054  -3.186   1.742  0.00  0.00    +0.100 A 
ATOM     11  N   LIG    1        0.070  -4.466   1.406  0.00  0.00    -0.243 NA
ATOM     12  C   LIG    1        0.087  -5.396   2.360  0.00  0.00    +0.090 A 
ATOM     13  C   LIG    1        0.106  -6.768   2.038  0.00  0.00    +0.030 A 
ATOM     14  C   LIG    1        0.123  -7.691   3.034  0.00  0.00    +0.002 A 
ATOM     15  C   LIG    1        0.123  -7.318   4.378  0.00  0.00    +0.002 A 
ATOM     16  C   LIG    1        0.106  -6.014   4.756  0.00  0.00    +0.030 A 
ATOM     17  C   LIG    1        0.088  -5.003   3.772  0.00  0.00    +0.090 A 
ATOM     18  N   LIG    1        0.092  -3.716   4.109  0.00  0.00    -0.243 NA
ATOM     19  C   LIG    1        0.070  -2.789   3.158  0.00  0.00    +0.094 A 
ATOM     20  C   LIG    1        0.054  -1.416   3.479  0.00  0.00    +0.077 A 
ATOM     21  C   LIG    1        0.032  -0.472   2.505  0.00  0.00    +0.143 A 
ATOM     22  C   LIG    1        0.024  -0.799   1.133  0.00  0.00    +0.094 A 
ENDROOT
BRANCH   5  23
ATOM     23  O   LIG    1       -0.003  -1.184  -4.754  0.00  0.00    -0.507 OA
ATOM     24  H   LIG    1        0.878  -1.083  -5.141  0.00  0.00    +0.292 HD
ENDBRANCH   5  23
BRANCH  21  25
ATOM     25  O   LIG    1        0.017   0.838   2.864  0.00  0.00    -0.505 OA
ATOM     26  H   LIG    1       -0.871   1.204   2.977  0.00  0.00    +0.292 HD
ENDBRANCH  21  25
TORSDOF 2
