REMARK  Name = ZINC05529906
REMARK                            x       y       z     vdW  Elec       q    Type
REMARK                         _______ _______ _______ _____ _____    ______ ____
ROOT
ATOM      1  C   LIG    1       -1.108   3.071   1.077  0.00  0.00    +0.014 C 
ATOM      2  C   LIG    1       -0.754   1.591   1.238  0.00  0.00    -0.002 C 
ATOM      3  C   LIG    1       -0.013   1.086   0.008  0.00  0.00    +0.014 C 
ATOM      4  C   LIG    1       -0.783   1.608  -1.211  0.00  0.00    +0.032 C 
ATOM      5  C   LIG    1       -2.270   1.520  -1.033  0.00  0.00    -0.063 C 
ATOM      6  C   LIG    1       -3.063   1.901  -2.048  0.00  0.00    -0.044 C 
ATOM      7  C   LIG    1       -2.462   2.356  -3.356  0.00  0.00    +0.043 C 
ATOM      8  C   LIG    1       -3.267   1.728  -4.499  0.00  0.00    +0.083 C 
ATOM      9  C   LIG    1       -4.736   1.968  -4.280  0.00  0.00    +0.157 C 
ATOM     10  C   LIG    1       -5.296   2.004  -2.995  0.00  0.00    +0.050 C 
ATOM     11  O   LIG    1       -5.456   2.135  -5.243  0.00  0.00    -0.293 OA
ATOM     12  C   LIG    1       -4.514   1.948  -1.885  0.00  0.00    -0.041 C 
ATOM     13  C   LIG    1       -5.154   1.959  -0.522  0.00  0.00    +0.036 C 
ATOM     14  C   LIG    1       -4.079   2.043   0.569  0.00  0.00    +0.013 C 
ATOM     15  C   LIG    1       -2.966   1.065   0.219  0.00  0.00    +0.019 C 
ATOM     16  C   LIG    1       -0.056   1.336   2.573  0.00  0.00    +0.121 C 
ATOM     17  C   LIG    1       -1.189   1.025   3.581  0.00  0.00    +0.032 C 
ATOM     18  C   LIG    1       -2.509   1.050   2.763  0.00  0.00    +0.007 C 
ATOM     19  C   LIG    1       -2.044   0.734   1.338  0.00  0.00    +0.005 C 
ENDROOT
BRANCH  16  20
ATOM     20  O   LIG    1        0.665   2.499   2.984  0.00  0.00    -0.391 OA
ATOM     21  H   LIG    1        1.130   2.397   3.826  0.00  0.00    +0.210 HD
ENDBRANCH  16  20
TORSDOF 1
