REMARK  Name = ZINC05734222
REMARK                            x       y       z     vdW  Elec       q    Type
REMARK                         _______ _______ _______ _____ _____    ______ ____
ROOT
ATOM      1  C   LIG    1       -1.975   1.163   1.348  0.00  0.00    +0.129 A 
ATOM      2  C   LIG    1       -2.588   0.363   0.404  0.00  0.00    +0.046 A 
ATOM      3  C   LIG    1       -3.909  -0.030   0.570  0.00  0.00    +0.006 A 
ATOM      4  C   LIG    1       -4.628   0.369   1.675  0.00  0.00    +0.026 A 
ATOM      5  C   LIG    1       -4.032   1.176   2.640  0.00  0.00    +0.050 A 
ATOM      6  N   LIG    1       -4.478   1.723   3.822  0.00  0.00    -0.360 N 
ATOM      7  H   LIG    1       -5.370   1.611   4.187  0.00  0.00    +0.165 HD
ATOM      8  C   LIG    1       -3.470   2.438   4.413  0.00  0.00    +0.087 A 
ATOM      9  C   LIG    1       -2.368   2.391   3.649  0.00  0.00    -0.021 A 
ATOM     10  C   LIG    1       -2.692   1.571   2.479  0.00  0.00    +0.044 A 
ENDROOT
BRANCH   1  12
ATOM     11  C   LIG    1       -0.013   1.086   0.008  0.00  0.00    +0.277 C 
ATOM     12  O   LIG    1       -0.682   1.547   1.184  0.00  0.00    -0.494 OA
ENDBRANCH   1  12
BRANCH   9  13
ATOM     13  C   LIG    1       -1.047   3.056   3.939  0.00  0.00    +0.018 C 
BRANCH  13  14
ATOM     14  C   LIG    1       -0.991   4.410   3.228  0.00  0.00    -0.082 C 
BRANCH  14  15
ATOM     15  N   LIG    1        0.313   5.041   3.500  0.00  0.00    +0.378 N 
ATOM     16  H   LIG    1        1.061   4.446   3.126  0.00  0.00    -0.090 HD
ATOM     17  H   LIG    1        0.445   5.149   4.504  0.00  0.00    -0.090 HD
ATOM     18  H   LIG    1        0.359   5.955   3.052  0.00  0.00    -0.090 HD
ENDBRANCH  14  15
ENDBRANCH  13  14
ENDBRANCH   9  13
TORSDOF 4
