REMARK  Name = ZINC05672775
REMARK                            x       y       z     vdW  Elec       q    Type
REMARK                         _______ _______ _______ _____ _____    ______ ____
ROOT
ATOM      1  N   UNK A  1        5.611  -1.319  -1.394  0.00  0.00    -0.311 N 
ATOM      2  H   UNK A  1        5.795  -1.972  -0.701  0.00  0.00    +0.149 HD
ENDROOT
BRANCH   1   3
ATOM      3  C   UNK A  0        6.370  -1.287  -2.507  0.00  0.00    +0.135 C 
ATOM      4  S   UNK A  0        6.045  -0.135  -3.731  0.00  0.00    -0.019 S 
BRANCH   3   5
ATOM      5  N   UNK A  0        7.384  -2.162  -2.657  0.00  0.00    -0.297 N 
ATOM      6  H   UNK A  0        7.606  -2.774  -1.938  0.00  0.00    +0.154 HD
BRANCH   5   7
ATOM      7  C   UNK A  0        8.115  -2.188  -3.850  0.00  0.00    +0.033 A 
ATOM      8  C   UNK A  0        8.548  -1.001  -4.427  0.00  0.00    +0.025 A 
ATOM      9  C   UNK A  0        9.270  -1.030  -5.604  0.00  0.00    +0.030 A 
ATOM     10  C   UNK A  0        9.561  -2.239  -6.208  0.00  0.00    +0.105 A 
ATOM     11  C   UNK A  0        9.131  -3.423  -5.636  0.00  0.00    +0.030 A 
ATOM     12  C   UNK A  0        8.414  -3.401  -4.457  0.00  0.00    +0.025 A 
BRANCH  10  13
ATOM     13  S   UNK A  0       10.481  -2.272  -7.710  0.00  0.00    +0.056 S 
ATOM     14  O   UNK A  0       10.296  -1.005  -8.327  0.00  0.00    -0.153 OA
ATOM     15  O   UNK A  0       10.153  -3.492  -8.361  0.00  0.00    -0.153 OA
BRANCH  13  16
ATOM     16  N   UNK A  0       12.083  -2.370  -7.301  0.00  0.00    -0.204 NA
ATOM     17  H   UNK A  0       12.396  -1.978  -6.471  0.00  0.00    +0.144 HD
ATOM     18  H   UNK A  0       12.708  -2.818  -7.892  0.00  0.00    +0.144 HD
ENDBRANCH  13  16
ENDBRANCH  10  13
ENDBRANCH   5   7
ENDBRANCH   3   5
ENDBRANCH   1   3
BRANCH   1  19
ATOM     19  C   UNK A  1        4.509  -0.368  -1.231  0.00  0.00    +0.214 C 
BRANCH  19  20
ATOM     20  C   UNK A  1        3.276  -0.906  -1.912  0.00  0.00    +0.328 C 
ATOM     21  O   UNK A  1        2.298  -0.192  -2.054  0.00  0.00    -0.249 OA
BRANCH  20  22
ATOM     22  O   UNK A  1        3.258  -2.054  -2.321  0.00  0.00    -0.479 OA
ATOM     23  H   UNK A  1        4.010  -2.603  -2.212  0.00  0.00    +0.295 HD
ENDBRANCH  20  22
ENDBRANCH  19  20
BRANCH  19  24
ATOM     24  C   UNK A  1        4.223  -0.170   0.259  0.00  0.00    +0.176 C 
BRANCH  24  28
ATOM     25  C   UNK A  1        1.250   2.860   0.744  0.00  0.00    +0.000 A 
ATOM     26  C   UNK A  1        2.591   3.188   0.824  0.00  0.00    +0.000 A 
ATOM     27  C   UNK A  1        3.552   2.207   0.667  0.00  0.00    +0.006 A 
ATOM     28  C   UNK A  1        3.174   0.899   0.431  0.00  0.00    -0.017 A 
ATOM     29  C   UNK A  1        1.833   0.571   0.352  0.00  0.00    +0.006 A 
ATOM     30  C   UNK A  1        0.871   1.551   0.508  0.00  0.00    +0.000 A 
ENDBRANCH  24  28
BRANCH  24  31
ATOM     31  O   UNK A  1        3.750  -1.395   0.821  0.00  0.00    -0.385 OA
ATOM     32  H   UNK A  1        2.937  -1.726   0.415  0.00  0.00    +0.210 HD
ENDBRANCH  24  31
ENDBRANCH  19  24
ENDBRANCH   1  19
TORSDOF 11
