REMARK  Name = ZINC04834691
REMARK                            x       y       z     vdW  Elec       q    Type
REMARK                         _______ _______ _______ _____ _____    ______ ____
ROOT
ATOM      1  C   LIG    1        2.341  -6.054  -3.433  0.00  0.00    +0.087 A 
ATOM      2  C   LIG    1        3.198  -6.558  -4.373  0.00  0.00    +0.077 A 
ATOM      3  S   LIG    1        2.958  -8.313  -4.134  0.00  0.00    -0.059 S 
ATOM      4  C   LIG    1        1.753  -8.197  -2.819  0.00  0.00    +0.178 A 
ATOM      5  N   LIG    1        1.644  -6.888  -2.676  0.00  0.00    -0.223 NA
ENDROOT
BRANCH   1  12
ATOM      6  C   LIG    1        0.606  -0.607  -1.056  0.00  0.00    +0.121 A 
ATOM      7  C   LIG    1        1.174   0.167  -2.064  0.00  0.00    +0.049 A 
ATOM      8  C   LIG    1        1.788  -0.429  -3.146  0.00  0.00    +0.050 A 
ATOM      9  C   LIG    1        1.845  -1.812  -3.236  0.00  0.00    +0.139 A 
ATOM     10  C   LIG    1        1.277  -2.600  -2.218  0.00  0.00    +0.022 A 
ATOM     11  C   LIG    1        1.349  -4.061  -2.317  0.00  0.00    +0.028 A 
ATOM     12  C   LIG    1        2.200  -4.590  -3.259  0.00  0.00    +0.086 A 
ATOM     13  C   LIG    1        2.965  -3.641  -4.087  0.00  0.00    +0.347 A 
ATOM     14  O   LIG    1        4.037  -3.955  -4.570  0.00  0.00    -0.244 OA
ATOM     15  O   LIG    1        2.442  -2.412  -4.295  0.00  0.00    -0.422 OA
ATOM     16  C   LIG    1        0.658  -1.986  -1.124  0.00  0.00    +0.057 A 
BRANCH   6  18
ATOM     17  C   LIG    1       -0.017   1.425   0.010  0.00  0.00    +0.277 C 
ATOM     18  O   LIG    1        0.002  -0.004   0.002  0.00  0.00    -0.495 OA
ENDBRANCH   6  18
ENDBRANCH   1  12
BRANCH   4  19
ATOM     19  N   LIG    1        1.108  -9.210  -2.131  0.00  0.00    -0.215 N 
ATOM     20  H   LIG    1        0.470  -8.992  -1.433  0.00  0.00    +0.176 HD
BRANCH  19  21
ATOM     21  N   LIG    1        1.376 -10.550  -2.441  0.00  0.00    -0.188 NA
ATOM     22  C   LIG    1        0.771 -11.500  -1.795  0.00  0.00    +0.141 C 
BRANCH  22  23
ATOM     23  C   LIG    1        1.054 -12.909  -2.122  0.00  0.00    +0.036 A 
ATOM     24  C   LIG    1        0.401 -13.934  -1.433  0.00  0.00    +0.013 A 
ATOM     25  C   LIG    1        0.670 -15.250  -1.744  0.00  0.00    +0.001 A 
ATOM     26  C   LIG    1        1.585 -15.561  -2.735  0.00  0.00    +0.004 A 
ATOM     27  C   LIG    1        2.238 -14.555  -3.424  0.00  0.00    +0.046 A 
ATOM     28  C   LIG    1        1.975 -13.228  -3.129  0.00  0.00    +0.125 A 
BRANCH  28  29
ATOM     29  O   LIG    1        2.611 -12.239  -3.809  0.00  0.00    -0.506 OA
ATOM     30  H   LIG    1        3.446 -11.961  -3.408  0.00  0.00    +0.292 HD
ENDBRANCH  28  29
ENDBRANCH  22  23
ENDBRANCH  19  21
ENDBRANCH   4  19
TORSDOF 6
