REMARK  Name = ZINC05835088
REMARK                            x       y       z     vdW  Elec       q    Type
REMARK                         _______ _______ _______ _____ _____    ______ ____
ROOT
ATOM      1  C   LIG    1        2.628  -4.245  -0.046  0.00  0.00    +0.107 C 
ENDROOT
BRANCH   1   8
ATOM      2  C   LIG    1        0.929   1.728  -0.019  0.00  0.00    +0.001 A 
ATOM      3  C   LIG    1        0.496   1.746   1.299  0.00  0.00    +0.004 A 
ATOM      4  C   LIG    1        0.565   0.610   2.078  0.00  0.00    +0.047 A 
ATOM      5  C   LIG    1        1.072  -0.567   1.544  0.00  0.00    +0.143 A 
ATOM      6  C   LIG    1        1.510  -0.587   0.210  0.00  0.00    +0.059 A 
ATOM      7  C   LIG    1        2.045  -1.841  -0.344  0.00  0.00    +0.138 A 
ATOM      8  C   LIG    1        2.090  -2.936   0.473  0.00  0.00    +0.091 A 
ATOM      9  C   LIG    1        1.633  -2.837   1.796  0.00  0.00    +0.345 A 
ATOM     10  O   LIG    1        1.678  -3.821   2.513  0.00  0.00    -0.245 OA
ATOM     11  O   LIG    1        1.147  -1.689   2.292  0.00  0.00    -0.422 OA
ATOM     12  C   LIG    1        1.435   0.570  -0.568  0.00  0.00    +0.015 A 
BRANCH   7  13
ATOM     13  O   LIG    1        2.478  -1.907  -1.624  0.00  0.00    -0.506 OA
ATOM     14  H   LIG    1        2.441  -1.148  -2.171  0.00  0.00    +0.292 HD
ENDBRANCH   7  13
ENDBRANCH   1   8
BRANCH   1  15
ATOM     15  C   LIG    1        3.454  -3.994  -1.282  0.00  0.00    +0.091 A 
ATOM     16  C   LIG    1        3.139  -4.621  -2.456  0.00  0.00    +0.138 A 
ATOM     17  C   LIG    1        3.976  -4.342  -3.633  0.00  0.00    +0.059 A 
ATOM     18  C   LIG    1        3.712  -4.946  -4.864  0.00  0.00    +0.015 A 
ATOM     19  C   LIG    1        4.514  -4.664  -5.947  0.00  0.00    +0.001 A 
ATOM     20  C   LIG    1        5.580  -3.785  -5.819  0.00  0.00    +0.004 A 
ATOM     21  C   LIG    1        5.852  -3.182  -4.609  0.00  0.00    +0.047 A 
ATOM     22  C   LIG    1        5.054  -3.452  -3.504  0.00  0.00    +0.143 A 
ATOM     23  O   LIG    1        5.306  -2.869  -2.312  0.00  0.00    -0.422 OA
ATOM     24  C   LIG    1        4.545  -3.113  -1.234  0.00  0.00    +0.345 A 
ATOM     25  O   LIG    1        4.811  -2.558  -0.182  0.00  0.00    -0.245 OA
BRANCH  16  26
ATOM     26  O   LIG    1        2.090  -5.471  -2.533  0.00  0.00    -0.506 OA
ATOM     27  H   LIG    1        1.960  -5.857  -3.410  0.00  0.00    +0.292 HD
ENDBRANCH  16  26
ENDBRANCH   1  15
BRANCH   1  28
ATOM     28  C   LIG    1        3.489  -4.888   1.011  0.00  0.00    +0.002 A 
ATOM     29  C   LIG    1        3.160  -5.843   1.916  0.00  0.00    +0.012 A 
ATOM     30  C   LIG    1        4.124  -6.289   2.800  0.00  0.00    +0.008 A 
ATOM     31  C   LIG    1        5.370  -5.759   2.736  0.00  0.00    +0.045 A 
ATOM     32  S   LIG    1        5.209  -4.596   1.392  0.00  0.00    -0.101 S 
ENDBRANCH   1  28
TORSDOF 5
