REMARK  Name = ZINC05162918
REMARK                            x       y       z     vdW  Elec       q    Type
REMARK                         _______ _______ _______ _____ _____    ______ ____
ROOT
ATOM      1  C   LIG    1       -4.423   5.038   1.498  0.00  0.00    -0.028 A 
ATOM      2  C   LIG    1       -4.228   3.676   1.641  0.00  0.00    +0.006 A 
ATOM      3  C   LIG    1       -4.526   3.056   2.837  0.00  0.00    +0.016 A 
ATOM      4  C   LIG    1       -5.033   3.803   3.900  0.00  0.00    +0.061 A 
ATOM      5  C   LIG    1       -5.232   5.175   3.748  0.00  0.00    +0.016 A 
ATOM      6  C   LIG    1       -4.926   5.785   2.548  0.00  0.00    +0.006 A 
ENDROOT
BRANCH   4   7
ATOM      7  C   LIG    1       -5.359   3.143   5.185  0.00  0.00    +0.266 C 
ATOM      8  N   LIG    1       -5.837   3.910   6.152  0.00  0.00    -0.288 N 
ATOM      9  H   LIG    1       -5.966   4.916   5.993  0.00  0.00    +0.301 HD
ATOM     10  H   LIG    1       -6.076   3.502   7.056  0.00  0.00    +0.301 HD
BRANCH   7  11
ATOM     11  N   LIG    1       -5.162   1.787   5.332  0.00  0.00    -0.250 N 
ATOM     12  H   LIG    1       -5.375   1.355   6.173  0.00  0.00    +0.288 HD
ATOM     13  H   LIG    1       -4.809   1.265   4.594  0.00  0.00    +0.288 HD
ENDBRANCH   7  11
ENDBRANCH   4   7
BRANCH   1  14
ATOM     14  C   LIG    1       -4.091   5.710   0.191  0.00  0.00    +0.157 C 
BRANCH  14  22
ATOM     15  C   LIG    1        0.923   4.366  -0.613  0.00  0.00    +0.001 A 
ATOM     16  C   LIG    1       -0.201   3.565  -0.763  0.00  0.00    +0.002 A 
ATOM     17  C   LIG    1       -1.459   4.068  -0.517  0.00  0.00    +0.026 A 
ATOM     18  C   LIG    1       -1.607   5.388  -0.104  0.00  0.00    +0.049 A 
ATOM     19  C   LIG    1       -0.465   6.195   0.045  0.00  0.00    -0.000 A 
ATOM     20  C   LIG    1       -0.951   7.508   0.477  0.00  0.00    +0.027 A 
ATOM     21  C   LIG    1       -2.288   7.424   0.559  0.00  0.00    +0.087 A 
ATOM     22  N   LIG    1       -2.698   6.165   0.215  0.00  0.00    -0.342 N 
ATOM     23  C   LIG    1        0.801   5.666  -0.214  0.00  0.00    +0.010 A 
ENDBRANCH  14  22
ENDBRANCH   1  14
TORSDOF 4
