REMARK  Name = ZINC05543044
REMARK                            x       y       z     vdW  Elec       q    Type
REMARK                         _______ _______ _______ _____ _____    ______ ____
ROOT
ATOM      1  C   LIG    1        4.238  -0.167  -7.461  0.00  0.00    +0.158 C 
ENDROOT
BRANCH   1   2
ATOM      2  C   LIG    1        3.570   0.508  -6.291  0.00  0.00    +0.164 C 
ATOM      3  O   LIG    1        3.529   1.720  -6.232  0.00  0.00    -0.292 OA
BRANCH   2   5
ATOM      4  C   LIG    1        2.393   0.340  -4.214  0.00  0.00    +0.011 C 
ATOM      5  C   LIG    1        2.993  -0.267  -5.267  0.00  0.00    +0.047 C 
BRANCH   4   8
ATOM      6  C   LIG    1        0.606  -0.608  -1.056  0.00  0.00    +0.162 A 
ATOM      7  C   LIG    1        1.170   0.158  -2.057  0.00  0.00    +0.057 A 
ATOM      8  C   LIG    1        1.792  -0.467  -3.146  0.00  0.00    -0.021 A 
ATOM      9  C   LIG    1        1.837  -1.866  -3.212  0.00  0.00    +0.012 A 
ATOM     10  C   LIG    1        1.272  -2.621  -2.209  0.00  0.00    +0.050 A 
ATOM     11  C   LIG    1        0.661  -2.000  -1.127  0.00  0.00    +0.158 A 
BRANCH   6  13
ATOM     12  C   LIG    1       -0.017   1.425   0.010  0.00  0.00    +0.277 C 
ATOM     13  O   LIG    1        0.002  -0.004   0.002  0.00  0.00    -0.491 OA
ENDBRANCH   6  13
BRANCH  11  14
ATOM     14  O   LIG    1        0.111  -2.750  -0.138  0.00  0.00    -0.503 OA
ATOM     15  H   LIG    1       -0.818  -2.975  -0.286  0.00  0.00    +0.292 HD
ENDBRANCH  11  14
ENDBRANCH   4   8
ENDBRANCH   2   5
ENDBRANCH   1   2
BRANCH   1  16
ATOM     16  C   LIG    1        4.769   0.878  -8.408  0.00  0.00    +0.164 C 
ATOM     17  O   LIG    1        4.620   2.057  -8.157  0.00  0.00    -0.292 OA
BRANCH  16  18
ATOM     18  C   LIG    1        5.438   0.488  -9.584  0.00  0.00    +0.047 C 
ATOM     19  C   LIG    1        5.916   1.428 -10.435  0.00  0.00    +0.011 C 
BRANCH  19  20
ATOM     20  C   LIG    1        6.614   1.022 -11.661  0.00  0.00    -0.021 A 
ATOM     21  C   LIG    1        6.782  -0.337 -11.955  0.00  0.00    +0.012 A 
ATOM     22  C   LIG    1        7.437  -0.716 -13.106  0.00  0.00    +0.050 A 
ATOM     23  C   LIG    1        7.933   0.247 -13.976  0.00  0.00    +0.158 A 
ATOM     24  C   LIG    1        7.769   1.602 -13.690  0.00  0.00    +0.159 A 
ATOM     25  C   LIG    1        7.108   1.991 -12.543  0.00  0.00    +0.057 A 
BRANCH  23  26
ATOM     26  O   LIG    1        8.578  -0.133 -15.109  0.00  0.00    -0.503 OA
ATOM     27  H   LIG    1        7.997  -0.243 -15.874  0.00  0.00    +0.292 HD
ENDBRANCH  23  26
BRANCH  24  28
ATOM     28  O   LIG    1        8.257   2.541 -14.545  0.00  0.00    -0.503 OA
ATOM     29  H   LIG    1        7.630   2.812 -15.230  0.00  0.00    +0.292 HD
ENDBRANCH  24  28
ENDBRANCH  19  20
ENDBRANCH  16  18
ENDBRANCH   1  16
TORSDOF 10
