REMARK  Name = ZINC05774261
REMARK                            x       y       z     vdW  Elec       q    Type
REMARK                         _______ _______ _______ _____ _____    ______ ____
ROOT
ATOM      1  N   LIG    1       -6.160   3.653   3.498  0.00  0.00    -0.190 N 
ATOM      2  C   LIG    1       -4.831   3.839   3.360  0.00  0.00    +0.263 C 
ATOM      3  C   LIG    1       -4.027   4.057   4.580  0.00  0.00    +0.100 C 
ATOM      4  C   LIG    1       -4.751   4.064   5.869  0.00  0.00    +0.257 C 
ATOM      5  N   LIG    1       -6.086   3.868   5.849  0.00  0.00    -0.235 N 
ATOM      6  H   LIG    1       -6.577   3.869   6.686  0.00  0.00    +0.159 HD
ATOM      7  O   LIG    1       -4.160   4.240   6.917  0.00  0.00    -0.270 OA
ATOM      8  C   LIG    1       -2.663   4.250   4.519  0.00  0.00    +0.026 C 
ATOM      9  O   LIG    1       -4.309   3.825   2.262  0.00  0.00    -0.269 OA
ATOM     10  C   LIG    1       -6.749   3.672   4.702  0.00  0.00    +0.320 C 
ATOM     11  O   LIG    1       -7.952   3.502   4.755  0.00  0.00    -0.251 OA
ENDROOT
BRANCH   1  15
ATOM     12  C   LIG    1       -8.490   3.020   0.101  0.00  0.00    +0.000 A 
ATOM     13  C   LIG    1       -8.265   4.307   0.553  0.00  0.00    +0.002 A 
ATOM     14  C   LIG    1       -7.493   4.520   1.679  0.00  0.00    +0.024 A 
ATOM     15  C   LIG    1       -6.943   3.440   2.356  0.00  0.00    +0.046 A 
ATOM     16  C   LIG    1       -7.166   2.149   1.896  0.00  0.00    +0.024 A 
ATOM     17  C   LIG    1       -7.944   1.942   0.773  0.00  0.00    +0.002 A 
ENDBRANCH   1  15
BRANCH   8  18
ATOM     18  C   LIG    1       -1.942   4.000   3.268  0.00  0.00    -0.024 A 
ATOM     19  C   LIG    1       -2.183   2.828   2.538  0.00  0.00    +0.008 A 
ATOM     20  C   LIG    1       -1.500   2.601   1.362  0.00  0.00    +0.013 A 
ATOM     21  C   LIG    1       -0.579   3.527   0.902  0.00  0.00    +0.055 A 
ATOM     22  C   LIG    1       -0.331   4.685   1.619  0.00  0.00    +0.013 A 
ATOM     23  C   LIG    1       -1.008   4.931   2.794  0.00  0.00    +0.008 A 
BRANCH  21  24
ATOM     24  C   LIG    1        0.163   3.269  -0.384  0.00  0.00    +0.417 C 
ATOM     25  F   LIG    1        1.423   3.874  -0.325  0.00  0.00    -0.166 F 
ATOM     26  F   LIG    1        0.315   1.891  -0.567  0.00  0.00    -0.166 F 
ATOM     27  F   LIG    1       -0.561   3.804  -1.455  0.00  0.00    -0.166 F 
ENDBRANCH  21  24
ENDBRANCH   8  18
TORSDOF 3
