REMARK  Name = ZINC05386873
REMARK                            x       y       z     vdW  Elec       q    Type
REMARK                         _______ _______ _______ _____ _____    ______ ____
ROOT
ATOM      1  C   LIG    1       -0.043   1.256   2.593  0.00  0.00    +0.056 A 
ATOM      2  C   LIG    1        1.025   2.047   3.012  0.00  0.00    +0.043 A 
ATOM      3  C   LIG    1        1.856   1.557   4.036  0.00  0.00    +0.129 A 
ATOM      4  N   LIG    1        1.592   0.366   4.561  0.00  0.00    -0.199 NA
ATOM      5  C   LIG    1        0.565  -0.352   4.130  0.00  0.00    +0.214 A 
ATOM      6  N   LIG    1       -0.241   0.083   3.172  0.00  0.00    -0.219 NA
ENDROOT
BRANCH   2   7
ATOM      7  C   LIG    1        1.278   3.372   2.394  0.00  0.00    -0.010 A 
ATOM      8  C   LIG    1        1.710   3.454   1.070  0.00  0.00    +0.010 A 
ATOM      9  C   LIG    1        1.943   4.685   0.491  0.00  0.00    +0.024 A 
ATOM     10  C   LIG    1        1.759   5.844   1.221  0.00  0.00    +0.082 A 
ATOM     11 CL   LIG    1        2.061   7.388   0.486  0.00  0.00    -0.080 Cl
ATOM     12  C   LIG    1        1.332   5.775   2.550  0.00  0.00    +0.175 A 
ATOM     13  C   LIG    1        1.091   4.533   3.136  0.00  0.00    +0.054 A 
BRANCH  12  14
ATOM     14  N   LIG    1        1.152   6.911   3.266  0.00  0.00    -0.213 NA
ATOM     15  N   LIG    1        1.014   7.778   3.812  0.00  0.00    -0.037 NA
ENDBRANCH  12  14
ENDBRANCH   2   7
BRANCH   3  16
ATOM     16  N   LIG    1        2.930   2.303   4.488  0.00  0.00    -0.343 N 
ATOM     17  H   LIG    1        3.497   1.957   5.194  0.00  0.00    +0.144 HD
ATOM     18  H   LIG    1        3.115   3.172   4.099  0.00  0.00    +0.144 HD
ENDBRANCH   3  16
BRANCH   5  19
ATOM     19  N   LIG    1        0.323  -1.587   4.703  0.00  0.00    -0.327 N 
ATOM     20  H   LIG    1       -0.425  -2.124   4.399  0.00  0.00    +0.145 HD
ATOM     21  H   LIG    1        0.901  -1.917   5.408  0.00  0.00    +0.145 HD
ENDBRANCH   5  19
BRANCH   1  23
ATOM     22  C   LIG    1       -2.104   2.549   2.114  0.00  0.00    +0.010 C 
ATOM     23  C   LIG    1       -0.964   1.733   1.500  0.00  0.00    +0.053 C 
ENDBRANCH   1  23
TORSDOF 5
