REMARK  Name = ZINC04975830
REMARK                            x       y       z     vdW  Elec       q    Type
REMARK                         _______ _______ _______ _____ _____    ______ ____
ROOT
ATOM      1  C   LIG    1       -3.744   1.964   0.030  0.00  0.00    +0.332 C 
ATOM      2  O   LIG    1       -3.760   3.178   0.037  0.00  0.00    -0.246 OA
ENDROOT
BRANCH   1   3
ATOM      3  C   LIG    1       -2.456   1.243   0.021  0.00  0.00    +0.098 C 
ATOM      4  C   LIG    1       -1.302   1.931   0.019  0.00  0.00    +0.098 C 
BRANCH   4   5
ATOM      5  C   LIG    1       -0.014   1.210   0.009  0.00  0.00    +0.330 C 
ATOM      6  O   LIG    1        0.002  -0.004   0.002  0.00  0.00    -0.246 OA
BRANCH   5   7
ATOM      7  O   LIG    1        1.143   1.900   0.001  0.00  0.00    -0.478 OA
ATOM      8  H   LIG    1        1.131   2.837   0.006  0.00  0.00    +0.295 HD
ENDBRANCH   5   7
ENDBRANCH   4   5
ENDBRANCH   1   3
BRANCH   1   9
ATOM      9  O   LIG    1       -4.902   1.274   0.032  0.00  0.00    -0.462 OA
BRANCH   9  10
ATOM     10  C   LIG    1       -6.130   2.048   0.042  0.00  0.00    +0.232 C 
BRANCH  10  11
ATOM     11  C   LIG    1       -7.331   1.100   0.043  0.00  0.00    +0.041 C 
BRANCH  11  13
ATOM     12  C   LIG    1       -9.826   0.967   0.054  0.00  0.00    +0.004 C 
ATOM     13  C   LIG    1       -8.625   1.916   0.053  0.00  0.00    -0.000 C 
ENDBRANCH  11  13
ENDBRANCH  10  11
ENDBRANCH   9  10
ENDBRANCH   1   9
TORSDOF 7
