REMARK  Name = ZINC05833412
REMARK                            x       y       z     vdW  Elec       q    Type
REMARK                         _______ _______ _______ _____ _____    ______ ____
ROOT
ATOM      1  N   LIG    1       -1.475  -2.001   0.179  0.00  0.00    +0.382 N 
ATOM      2  H   LIG    1       -0.795  -2.070   0.946  0.00  0.00    -0.081 HD
ENDROOT
BRANCH   1   3
ATOM      3  C   LIG    1       -2.717  -2.697   0.576  0.00  0.00    -0.064 C 
ATOM      4  C   LIG    1       -3.338  -1.976   1.778  0.00  0.00    -0.010 C 
ATOM      5  C   LIG    1       -4.720  -2.574   2.037  0.00  0.00    +0.037 C 
ATOM      6  C   LIG    1       -4.641  -4.076   2.118  0.00  0.00    -0.003 A 
ATOM      7  C   LIG    1       -3.568  -4.789   1.633  0.00  0.00    -0.042 A 
ATOM      8  C   LIG    1       -3.561  -6.175   1.732  0.00  0.00    +0.004 A 
ATOM      9  C   LIG    1       -4.617  -6.844   2.317  0.00  0.00    +0.004 A 
ATOM     10  C   LIG    1       -5.693  -6.132   2.810  0.00  0.00    +0.046 A 
ATOM     11  C   LIG    1       -5.706  -4.751   2.711  0.00  0.00    +0.120 A 
ATOM     12  C   LIG    1       -2.376  -4.126   0.994  0.00  0.00    +0.020 C 
BRANCH  11  13
ATOM     13  O   LIG    1       -6.765  -4.049   3.194  0.00  0.00    -0.506 OA
ATOM     14  H   LIG    1       -7.470  -3.906   2.549  0.00  0.00    +0.292 HD
ENDBRANCH  11  13
ENDBRANCH   1   3
BRANCH   1  15
ATOM     15  C   LIG    1       -1.758  -0.574  -0.084  0.00  0.00    -0.079 C 
BRANCH  15  17
ATOM     16  C   LIG    1       -3.241   1.050  -1.268  0.00  0.00    +0.002 C 
ATOM     17  C   LIG    1       -2.901  -0.431  -1.090  0.00  0.00    -0.022 C 
ENDBRANCH  15  17
ENDBRANCH   1  15
BRANCH   1  18
ATOM     18  C   LIG    1       -0.904  -2.634  -1.028  0.00  0.00    -0.074 C 
BRANCH  18  19
ATOM     19  C   LIG    1        0.566  -2.225  -1.147  0.00  0.00    +0.017 C 
BRANCH  19  20
ATOM     20  C   LIG    1        1.148  -2.809  -2.409  0.00  0.00    -0.042 A 
ATOM     21  C   LIG    1        1.099  -2.103  -3.596  0.00  0.00    +0.011 A 
ATOM     22  C   LIG    1        1.632  -2.657  -4.713  0.00  0.00    +0.045 A 
ATOM     23  S   LIG    1        2.230  -4.223  -4.098  0.00  0.00    -0.105 S 
ATOM     24  C   LIG    1        1.734  -4.031  -2.394  0.00  0.00    +0.048 A 
ENDBRANCH  19  20
ENDBRANCH  18  19
ENDBRANCH   1  18
TORSDOF 7
