REMARK  Name = ZINC05483295
REMARK                            x       y       z     vdW  Elec       q    Type
REMARK                         _______ _______ _______ _____ _____    ______ ____
ROOT
ATOM      1  N   LIG    1        3.640  -2.049  -0.044  0.00  0.00    -0.190 NA
ATOM      2  C   LIG    1        4.774  -2.681  -0.059  0.00  0.00    +0.138 C 
ENDROOT
BRANCH   2   3
ATOM      3  C   LIG    1        4.796  -4.155  -0.067  0.00  0.00    -0.005 A 
ATOM      4  C   LIG    1        3.598  -4.874  -0.065  0.00  0.00    +0.013 A 
ATOM      5  C   LIG    1        3.623  -6.252  -0.072  0.00  0.00    +0.046 A 
ATOM      6  C   LIG    1        4.837  -6.926  -0.082  0.00  0.00    +0.117 A 
ATOM      7  C   LIG    1        6.031  -6.216  -0.084  0.00  0.00    +0.046 A 
ATOM      8  C   LIG    1        6.015  -4.837  -0.083  0.00  0.00    +0.013 A 
BRANCH   6   9
ATOM      9  O   LIG    1        4.858  -8.284  -0.089  0.00  0.00    -0.507 OA
ATOM     10  H   LIG    1        4.859  -8.673  -0.974  0.00  0.00    +0.292 HD
ENDBRANCH   6   9
ENDBRANCH   2   3
BRANCH   1  11
ATOM     11  N   LIG    1        3.619  -0.648  -0.036  0.00  0.00    -0.238 N 
ATOM     12  H   LIG    1        4.451  -0.150  -0.042  0.00  0.00    +0.174 HD
BRANCH  11  16
ATOM     13  C   LIG    1       -0.017   1.379   0.010  0.00  0.00    +0.000 A 
ATOM     14  C   LIG    1        1.169   2.090   0.002  0.00  0.00    +0.002 A 
ATOM     15  C   LIG    1        2.377   1.421  -0.013  0.00  0.00    +0.025 A 
ATOM     16  C   LIG    1        2.400   0.032  -0.021  0.00  0.00    +0.048 A 
ATOM     17  C   LIG    1        1.206  -0.680  -0.013  0.00  0.00    +0.025 A 
ATOM     18  C   LIG    1        0.002  -0.004   0.002  0.00  0.00    +0.002 A 
ENDBRANCH  11  16
ENDBRANCH   1  11
TORSDOF 4
