REMARK  Name = ZINC05341391
REMARK                            x       y       z     vdW  Elec       q    Type
REMARK                         _______ _______ _______ _____ _____    ______ ____
ROOT
ATOM      1  C   LIG    1       -1.293  -0.775   0.010  0.00  0.00    +0.190 C 
ENDROOT
BRANCH   1   2
ATOM      2  C   LIG    1       -1.071  -2.135  -0.600  0.00  0.00    -0.005 A 
ATOM      3  C   LIG    1       -0.695  -3.198   0.200  0.00  0.00    +0.007 A 
ATOM      4  C   LIG    1       -0.496  -4.447  -0.359  0.00  0.00    +0.000 A 
ATOM      5  C   LIG    1       -0.664  -4.630  -1.719  0.00  0.00    +0.000 A 
ATOM      6  C   LIG    1       -1.035  -3.566  -2.519  0.00  0.00    +0.000 A 
ATOM      7  C   LIG    1       -1.239  -2.319  -1.960  0.00  0.00    +0.007 A 
ENDBRANCH   1   2
BRANCH   1   8
ATOM      8  C   LIG    1       -1.781  -0.936   1.451  0.00  0.00    +0.036 C 
ATOM      9  C   LIG    1       -3.191  -1.577   1.484  0.00  0.00    +0.007 C 
ATOM     10  C   LIG    1       -3.780  -1.125   2.837  0.00  0.00    +0.000 C 
ATOM     11  C   LIG    1       -3.035   0.162   3.233  0.00  0.00    +0.000 C 
ATOM     12  C   LIG    1       -2.019   0.447   2.108  0.00  0.00    +0.007 C 
ENDBRANCH   1   8
BRANCH   1  13
ATOM     13  C   LIG    1        0.002  -0.004   0.002  0.00  0.00    +0.344 C 
ATOM     14  O   LIG    1        1.056  -0.594  -0.011  0.00  0.00    -0.247 OA
BRANCH  13  15
ATOM     15  O   LIG    1       -0.016   1.338   0.009  0.00  0.00    -0.461 OA
BRANCH  15  19
ATOM     16  N   LIG    1        2.446   4.039  -0.716  0.00  0.00    +0.382 N 
ATOM     17  H   LIG    1        3.139   3.418  -1.150  0.00  0.00    -0.082 HD
ATOM     18  C   LIG    1        1.131   3.362  -0.712  0.00  0.00    -0.034 C 
ATOM     19  C   LIG    1        1.268   2.015   0.001  0.00  0.00    +0.160 C 
ATOM     20  C   LIG    1        1.732   2.250   1.441  0.00  0.00    +0.041 C 
ATOM     21  C   LIG    1        3.058   3.017   1.423  0.00  0.00    -0.015 C 
ATOM     22  C   LIG    1        2.869   4.335   0.669  0.00  0.00    -0.079 C 
BRANCH  16  24
ATOM     23  C   LIG    1        3.639   6.107  -1.265  0.00  0.00    -0.017 C 
ATOM     24  C   LIG    1        2.367   5.290  -1.498  0.00  0.00    -0.082 C 
ENDBRANCH  16  24
ENDBRANCH  15  19
ENDBRANCH  13  15
ENDBRANCH   1  13
BRANCH   1  25
ATOM     25  O   LIG    1       -2.274  -0.067  -0.749  0.00  0.00    -0.373 OA
ATOM     26  H   LIG    1       -2.030   0.072  -1.675  0.00  0.00    +0.211 HD
ENDBRANCH   1  25
TORSDOF 7
