REMARK  Name = ZINC05134600
REMARK                            x       y       z     vdW  Elec       q    Type
REMARK                         _______ _______ _______ _____ _____    ______ ____
ROOT
ATOM      1  C   LIG    1        0.126   5.536   1.157  0.00  0.00    +0.020 C 
ATOM      2  C   LIG    1        0.779   6.343   0.027  0.00  0.00    +0.015 C 
ATOM      3  C   LIG    1        0.516   5.621  -1.297  0.00  0.00    +0.085 C 
ATOM      4  C   LIG    1        0.863   4.166  -1.162  0.00  0.00    +0.220 C 
ATOM      5  N   LIG    1        0.991   3.546   0.012  0.00  0.00    -0.291 N 
ATOM      6  O   LIG    1        1.031   3.519  -2.174  0.00  0.00    -0.275 OA
ATOM      7  C   LIG    1        0.870   4.209   1.304  0.00  0.00    +0.108 C 
ENDROOT
BRANCH   3   8
ATOM      8  C   LIG    1        1.379   6.244  -2.395  0.00  0.00    +0.078 C 
BRANCH   8   9
ATOM      9  S   LIG    1        0.962   5.491  -3.992  0.00  0.00    -0.178 S 
ATOM     10  H   LIG    1        1.775   6.112  -4.866  0.00  0.00    +0.102 HD
ENDBRANCH   8   9
ENDBRANCH   3   8
BRANCH   5  11
ATOM     11  C   LIG    1        1.279   2.109   0.001  0.00  0.00    +0.228 C 
BRANCH  11  12
ATOM     12  C   LIG    1       -0.016   1.338   0.009  0.00  0.00    +0.322 C 
ATOM     13  O   LIG    1       -1.071   1.928   0.018  0.00  0.00    -0.249 OA
BRANCH  12  14
ATOM     14  O   LIG    1        0.002  -0.004   0.002  0.00  0.00    -0.480 OA
ATOM     15  H   LIG    1        0.820  -0.462  -0.004  0.00  0.00    +0.295 HD
ENDBRANCH  12  14
ENDBRANCH  11  12
ENDBRANCH   5  11
TORSDOF 5
