REMARK  Name = ZINC05011446
REMARK                            x       y       z     vdW  Elec       q    Type
REMARK                         _______ _______ _______ _____ _____    ______ ____
ROOT
ATOM      1  C   LIG    1       -7.715   3.155   8.243  0.00  0.00    +0.188 C 
ATOM      2  C   LIG    1       -6.335   3.346   7.668  0.00  0.00    +0.008 A 
ATOM      3  C   LIG    1       -6.022   2.724   6.452  0.00  0.00    +0.035 A 
ATOM      4  C   LIG    1       -4.766   2.866   5.902  0.00  0.00    +0.071 A 
ATOM      5  N   LIG    1       -3.821   3.610   6.551  0.00  0.00    -0.302 N 
ATOM      6  C   LIG    1       -2.585   3.594   5.757  0.00  0.00    +0.162 C 
ATOM      7  C   LIG    1       -2.870   2.754   4.538  0.00  0.00    +0.000 A 
ATOM      8  C   LIG    1       -2.111   2.393   3.468  0.00  0.00    +0.021 A 
ATOM      9  C   LIG    1       -2.699   1.578   2.482  0.00  0.00    +0.042 A 
ATOM     10  C   LIG    1       -1.974   1.163   1.348  0.00  0.00    +0.129 A 
ATOM     11  C   LIG    1       -2.589   0.370   0.405  0.00  0.00    +0.046 A 
ATOM     12  C   LIG    1       -3.912  -0.032   0.568  0.00  0.00    +0.006 A 
ATOM     13  C   LIG    1       -4.636   0.355   1.653  0.00  0.00    +0.028 A 
ATOM     14  C   LIG    1       -4.048   1.169   2.639  0.00  0.00    +0.075 A 
ATOM     15  N   LIG    1       -4.743   1.556   3.710  0.00  0.00    -0.245 NA
ATOM     16  C   LIG    1       -4.107   4.208   7.723  0.00  0.00    +0.259 A 
ATOM     17  O   LIG    1       -3.247   4.860   8.292  0.00  0.00    -0.267 OA
ATOM     18  C   LIG    1       -4.202   2.321   4.645  0.00  0.00    +0.093 A 
ATOM     19  C   LIG    1       -5.389   4.091   8.300  0.00  0.00    +0.061 A 
ATOM     20  C   LIG    1       -5.659   4.807   9.596  0.00  0.00    +0.273 C 
ATOM     21  O   LIG    1       -6.861   4.292  10.226  0.00  0.00    -0.457 OA
ATOM     22  C   LIG    1       -7.910   4.122   9.389  0.00  0.00    +0.344 C 
ATOM     23  O   LIG    1       -8.952   4.713   9.549  0.00  0.00    -0.247 OA
ENDROOT
BRANCH   1  25
ATOM     24  C   LIG    1       -9.266   1.528   9.335  0.00  0.00    +0.007 C 
ATOM     25  C   LIG    1       -7.864   1.720   8.751  0.00  0.00    +0.048 C 
ENDBRANCH   1  25
BRANCH   1  26
ATOM     26  O   LIG    1       -8.694   3.408   7.233  0.00  0.00    -0.373 OA
ATOM     27  H   LIG    1       -9.606   3.304   7.534  0.00  0.00    +0.211 HD
ENDBRANCH   1  26
BRANCH  10  28
ATOM     28  O   LIG    1       -0.682   1.547   1.184  0.00  0.00    -0.494 OA
ATOM     29  C   LIG    1       -0.013   1.086   0.008  0.00  0.00    +0.277 C 
ENDBRANCH  10  28
TORSDOF 3
