REMARK  Name = ZINC05672745
REMARK                            x       y       z     vdW  Elec       q    Type
REMARK                         _______ _______ _______ _____ _____    ______ ____
ROOT
ATOM      1  N   UNK A  1        5.245  -2.169   1.494  0.00  0.00    -0.311 N 
ATOM      2  H   UNK A  1        5.663  -2.283   0.626  0.00  0.00    +0.149 HD
ENDROOT
BRANCH   1   3
ATOM      3  C   UNK A  0        5.995  -2.199   2.613  0.00  0.00    +0.135 C 
ATOM      4  S   UNK A  0        5.257  -1.999   4.144  0.00  0.00    -0.019 S 
BRANCH   3   5
ATOM      5  N   UNK A  0        7.327  -2.386   2.526  0.00  0.00    -0.297 N 
ATOM      6  H   UNK A  0        7.738  -2.560   1.665  0.00  0.00    +0.154 HD
BRANCH   5   7
ATOM      7  C   UNK A  0        8.118  -2.328   3.679  0.00  0.00    +0.033 A 
ATOM      8  C   UNK A  0        7.715  -2.987   4.833  0.00  0.00    +0.025 A 
ATOM      9  C   UNK A  0        8.499  -2.929   5.969  0.00  0.00    +0.030 A 
ATOM     10  C   UNK A  0        9.683  -2.214   5.958  0.00  0.00    +0.105 A 
ATOM     11  C   UNK A  0       10.086  -1.556   4.811  0.00  0.00    +0.030 A 
ATOM     12  C   UNK A  0        9.311  -1.616   3.670  0.00  0.00    +0.025 A 
BRANCH  10  13
ATOM     13  S   UNK A  0       10.678  -2.141   7.410  0.00  0.00    +0.056 S 
ATOM     14  O   UNK A  0        9.812  -2.386   8.509  0.00  0.00    -0.153 OA
ATOM     15  O   UNK A  0       11.462  -0.960   7.306  0.00  0.00    -0.153 OA
BRANCH  13  16
ATOM     16  N   UNK A  0       11.733  -3.416   7.345  0.00  0.00    -0.204 NA
ATOM     17  H   UNK A  0       11.476  -4.235   6.893  0.00  0.00    +0.144 HD
ATOM     18  H   UNK A  0       12.607  -3.344   7.760  0.00  0.00    +0.144 HD
ENDBRANCH  13  16
ENDBRANCH  10  13
ENDBRANCH   5   7
ENDBRANCH   3   5
ENDBRANCH   1   3
BRANCH   1  19
ATOM     19  C   UNK A  1        3.797  -1.966   1.588  0.00  0.00    +0.214 C 
BRANCH  19  20
ATOM     20  C   UNK A  1        3.119  -3.289   1.834  0.00  0.00    +0.328 C 
ATOM     21  O   UNK A  1        3.614  -4.317   1.403  0.00  0.00    -0.249 OA
BRANCH  20  22
ATOM     22  O   UNK A  1        2.076  -3.332   2.464  0.00  0.00    -0.479 OA
ATOM     23  H   UNK A  1        1.696  -2.542   2.795  0.00  0.00    +0.295 HD
ENDBRANCH  20  22
ENDBRANCH  19  20
BRANCH  19  24
ATOM     24  C   UNK A  1        3.281  -1.364   0.280  0.00  0.00    +0.176 C 
BRANCH  24  28
ATOM     25  C   UNK A  1       -0.873  -0.449   0.673  0.00  0.00    +0.000 A 
ATOM     26  C   UNK A  1        0.070   0.552   0.803  0.00  0.00    +0.000 A 
ATOM     27  C   UNK A  1        1.415   0.256   0.676  0.00  0.00    +0.006 A 
ATOM     28  C   UNK A  1        1.815  -1.042   0.419  0.00  0.00    -0.017 A 
ATOM     29  C   UNK A  1        0.872  -2.043   0.290  0.00  0.00    +0.006 A 
ATOM     30  C   UNK A  1       -0.473  -1.747   0.416  0.00  0.00    +0.000 A 
ENDBRANCH  24  28
BRANCH  24  31
ATOM     31  O   UNK A  1        3.462  -2.304  -0.782  0.00  0.00    -0.385 OA
ATOM     32  H   UNK A  1        2.997  -3.141  -0.649  0.00  0.00    +0.210 HD
ENDBRANCH  24  31
ENDBRANCH  19  24
ENDBRANCH   1  19
TORSDOF 11
