REMARK  Name = ZINC05341390
REMARK                            x       y       z     vdW  Elec       q    Type
REMARK                         _______ _______ _______ _____ _____    ______ ____
ROOT
ATOM      1  C   LIG    1        2.867  -4.283   3.344  0.00  0.00    +0.190 C 
ENDROOT
BRANCH   1   2
ATOM      2  C   LIG    1        3.082  -5.757   3.114  0.00  0.00    -0.005 A 
ATOM      3  C   LIG    1        4.242  -6.199   2.504  0.00  0.00    +0.007 A 
ATOM      4  C   LIG    1        4.441  -7.551   2.297  0.00  0.00    +0.000 A 
ATOM      5  C   LIG    1        3.478  -8.461   2.692  0.00  0.00    +0.000 A 
ATOM      6  C   LIG    1        2.317  -8.018   3.297  0.00  0.00    +0.000 A 
ATOM      7  C   LIG    1        2.119  -6.666   3.508  0.00  0.00    +0.007 A 
ENDBRANCH   1   2
BRANCH   1   8
ATOM      8  C   LIG    1        4.218  -3.596   3.546  0.00  0.00    +0.036 C 
ATOM      9  C   LIG    1        4.883  -4.069   4.862  0.00  0.00    +0.007 C 
ATOM     10  C   LIG    1        5.844  -2.921   5.235  0.00  0.00    +0.000 C 
ATOM     11  C   LIG    1        5.302  -1.655   4.551  0.00  0.00    +0.000 C 
ATOM     12  C   LIG    1        4.031  -2.077   3.785  0.00  0.00    +0.007 C 
ENDBRANCH   1   8
BRANCH   1  13
ATOM     13  C   LIG    1        2.173  -3.685   2.147  0.00  0.00    +0.344 C 
ATOM     14  O   LIG    1        2.277  -4.209   1.063  0.00  0.00    -0.247 OA
BRANCH  13  15
ATOM     15  O   LIG    1        1.439  -2.569   2.285  0.00  0.00    -0.461 OA
BRANCH  15  19
ATOM     16  N   LIG    1        0.018  -0.012  -0.022  0.00  0.00    +0.382 N 
ATOM     17  H   LIG    1        0.560  -0.314  -0.840  0.00  0.00    -0.082 HD
ATOM     18  C   LIG    1        0.668  -0.528   1.202  0.00  0.00    -0.034 C 
ATOM     19  C   LIG    1        0.799  -2.049   1.090  0.00  0.00    +0.160 C 
ATOM     20  C   LIG    1       -0.594  -2.667   0.946  0.00  0.00    +0.041 C 
ATOM     21  C   LIG    1       -1.284  -2.069  -0.283  0.00  0.00    -0.015 C 
ATOM     22  C   LIG    1       -1.355  -0.548  -0.132  0.00  0.00    -0.079 C 
BRANCH  16  24
ATOM     23  C   LIG    1       -0.734   1.958   1.269  0.00  0.00    -0.017 C 
ATOM     24  C   LIG    1       -0.018   1.465   0.010  0.00  0.00    -0.082 C 
ENDBRANCH  16  24
ENDBRANCH  15  19
ENDBRANCH  13  15
ENDBRANCH   1  13
BRANCH   1  25
ATOM     25  O   LIG    1        2.058  -4.096   4.506  0.00  0.00    -0.373 OA
ATOM     26  H   LIG    1        1.184  -4.507   4.448  0.00  0.00    +0.211 HD
ENDBRANCH   1  25
TORSDOF 7
