REMARK  Name = ZINC05178422
REMARK                            x       y       z     vdW  Elec       q    Type
REMARK                         _______ _______ _______ _____ _____    ______ ____
ROOT
ATOM      1  N   LIG    1        1.356   2.010  -0.000  0.00  0.00    -0.198 N 
ENDROOT
BRANCH   1   2
ATOM      2  N   LIG    1        1.972   2.227   1.112  0.00  0.00    +0.045 NA
ATOM      3  O   LIG    1        3.115   2.649   1.104  0.00  0.00    -0.126 OA
ENDBRANCH   1   2
BRANCH   1   4
ATOM      4  C   LIG    1       -0.018   1.503   0.010  0.00  0.00    +0.249 C 
BRANCH   4   5
ATOM      5  C   LIG    1        0.002  -0.004   0.002  0.00  0.00    +0.324 C 
ATOM      6  O   LIG    1        1.066  -0.599  -0.011  0.00  0.00    -0.249 OA
BRANCH   5   7
ATOM      7  O   LIG    1       -1.045  -0.628   0.009  0.00  0.00    -0.479 OA
ATOM      8  H   LIG    1       -1.863  -0.171   0.019  0.00  0.00    +0.295 HD
ENDBRANCH   5   7
ENDBRANCH   4   5
ENDBRANCH   1   4
BRANCH   1   9
ATOM      9  C   LIG    1        2.031   2.270  -1.274  0.00  0.00    +0.256 C 
BRANCH   9  10
ATOM     10  P   LIG    1        1.716   3.991  -1.788  0.00  0.00    +0.346 P 
ATOM     11  O   LIG    1        2.143   4.952  -0.657  0.00  0.00    -0.257 OA
BRANCH  10  12
ATOM     12  O   LIG    1        0.210   4.174  -2.079  0.00  0.00    -0.323 OA
ATOM     13  H   LIG    1       -0.300   3.977  -1.277  0.00  0.00    +0.220 HD
ENDBRANCH  10  12
BRANCH  10  14
ATOM     14  O   LIG    1        2.563   4.317  -3.118  0.00  0.00    -0.323 OA
ATOM     15  H   LIG    1        2.444   5.218  -3.449  0.00  0.00    +0.220 HD
ENDBRANCH  10  14
ENDBRANCH   9  10
ENDBRANCH   1   9
TORSDOF 8
