REMARK  Name = ZINC05733652
REMARK                            x       y       z     vdW  Elec       q    Type
REMARK                         _______ _______ _______ _____ _____    ______ ____
ROOT
ATOM      1  C   LIG    1       -4.962  -2.613   0.035  0.00  0.00    +0.139 A 
ATOM      2  C   LIG    1       -6.094  -1.860   0.038  0.00  0.00    +0.098 A 
ATOM      3  C   LIG    1       -7.357  -2.499   0.046  0.00  0.00    +0.197 A 
ATOM      4  C   LIG    1       -7.371  -3.971   0.050  0.00  0.00    +0.105 A 
ATOM      5  C   LIG    1       -8.575  -4.687   0.057  0.00  0.00    +0.135 A 
ATOM      6  C   LIG    1       -8.546  -6.069   0.059  0.00  0.00    +0.091 A 
ATOM      7  C   LIG    1       -7.329  -6.742   0.054  0.00  0.00    +0.124 A 
ATOM      8  C   LIG    1       -6.134  -6.040   0.048  0.00  0.00    +0.092 A 
ATOM      9  C   LIG    1       -6.143  -4.654   0.045  0.00  0.00    +0.146 A 
ATOM     10  O   LIG    1       -8.393  -1.854   0.050  0.00  0.00    -0.287 OA
ATOM     11  O   LIG    1       -4.988  -3.955   0.033  0.00  0.00    -0.454 OA
ENDROOT
BRANCH   1  15
ATOM     12  C   LIG    1       -1.200  -0.637   0.010  0.00  0.00    +0.161 A 
ATOM     13  C   LIG    1       -2.373   0.104   0.019  0.00  0.00    +0.050 A 
ATOM     14  C   LIG    1       -3.595  -0.533   0.027  0.00  0.00    +0.015 A 
ATOM     15  C   LIG    1       -3.655  -1.929   0.026  0.00  0.00    +0.021 A 
ATOM     16  C   LIG    1       -2.473  -2.676   0.016  0.00  0.00    +0.060 A 
ATOM     17  C   LIG    1       -1.252  -2.030   0.003  0.00  0.00    +0.159 A 
BRANCH  12  19
ATOM     18  C   LIG    1       -0.017   1.425   0.010  0.00  0.00    +0.277 C 
ATOM     19  O   LIG    1        0.002  -0.004   0.002  0.00  0.00    -0.491 OA
ENDBRANCH  12  19
BRANCH  17  20
ATOM     20  O   LIG    1       -0.101  -2.754  -0.011  0.00  0.00    -0.503 OA
ATOM     21  H   LIG    1        0.241  -2.967   0.868  0.00  0.00    +0.292 HD
ENDBRANCH  17  20
ENDBRANCH   1  15
BRANCH   5  22
ATOM     22  O   LIG    1       -9.762  -4.028   0.062  0.00  0.00    -0.506 OA
ATOM     23  H   LIG    1      -10.110  -3.838  -0.820  0.00  0.00    +0.292 HD
ENDBRANCH   5  22
BRANCH   7  24
ATOM     24  O   LIG    1       -7.312  -8.099   0.057  0.00  0.00    -0.507 OA
ATOM     25  H   LIG    1       -7.311  -8.494  -0.826  0.00  0.00    +0.292 HD
ENDBRANCH   7  24
TORSDOF 5
