REMARK  Name = ZINC05503297
REMARK                            x       y       z     vdW  Elec       q    Type
REMARK                         _______ _______ _______ _____ _____    ______ ____
ROOT
ATOM      1  C   LIG    1        2.402   0.089  -0.021  0.00  0.00    +0.051 A 
ATOM      2  C   LIG    1        1.256  -0.649  -0.013  0.00  0.00    +0.077 A 
ATOM      3  C   LIG    1        0.002  -0.004   0.002  0.00  0.00    +0.190 A 
ATOM      4  C   LIG    1       -0.018   1.470   0.010  0.00  0.00    +0.045 A 
ATOM      5  C   LIG    1       -1.219   2.179   0.020  0.00  0.00    +0.014 A 
ATOM      6  C   LIG    1       -1.200   3.545   0.032  0.00  0.00    +0.001 A 
ATOM      7  C   LIG    1        0.006   4.233   0.025  0.00  0.00    +0.002 A 
ATOM      8  C   LIG    1        1.204   3.553   0.010  0.00  0.00    +0.026 A 
ATOM      9  C   LIG    1        1.206   2.161   0.002  0.00  0.00    +0.051 A 
ATOM     10  O   LIG    1       -1.036  -0.647   0.008  0.00  0.00    -0.287 OA
ATOM     11  N   LIG    1        2.388   1.453  -0.014  0.00  0.00    -0.354 N 
ATOM     12  H   LIG    1        3.230   1.935  -0.020  0.00  0.00    +0.166 HD
ENDROOT
BRANCH   1  17
ATOM     13  C   LIG    1        4.969  -2.657  -0.059  0.00  0.00    +0.121 A 
ATOM     14  C   LIG    1        6.147  -1.922  -0.068  0.00  0.00    +0.045 A 
ATOM     15  C   LIG    1        6.105  -0.540  -0.060  0.00  0.00    +0.004 A 
ATOM     16  C   LIG    1        4.893   0.118  -0.045  0.00  0.00    +0.010 A 
ATOM     17  C   LIG    1        3.703  -0.613  -0.037  0.00  0.00    +0.002 A 
ATOM     18  C   LIG    1        3.747  -2.007  -0.040  0.00  0.00    +0.055 A 
BRANCH  13  20
ATOM     19  C   LIG    1        6.311  -4.620  -0.081  0.00  0.00    +0.277 C 
ATOM     20  O   LIG    1        5.016  -4.016  -0.066  0.00  0.00    -0.495 OA
ENDBRANCH  13  20
ENDBRANCH   1  17
TORSDOF 2
