REMARK  Name = ZINC05003034
REMARK                            x       y       z     vdW  Elec       q    Type
REMARK                         _______ _______ _______ _____ _____    ______ ____
ROOT
ATOM      1  C   LIG    1        2.331  -5.974  -3.574  0.00  0.00    +0.078 C 
ATOM      2  C   LIG    1        2.639  -6.584  -4.738  0.00  0.00    +0.021 C 
ATOM      3  C   LIG    1        3.156  -5.763  -5.891  0.00  0.00    +0.061 C 
ATOM      4  N   LIG    1        2.489  -7.933  -4.888  0.00  0.00    -0.273 N 
ATOM      5  H   LIG    1        2.723  -8.328  -5.743  0.00  0.00    +0.156 HD
ATOM      6  C   LIG    1        2.036  -8.742  -3.921  0.00  0.00    +0.304 C 
ATOM      7  N   LIG    1        1.688  -8.280  -2.704  0.00  0.00    -0.288 N 
ATOM      8  H   LIG    1        1.362  -8.883  -2.019  0.00  0.00    +0.151 HD
ATOM      9  O   LIG    1        1.936  -9.932  -4.149  0.00  0.00    -0.252 OA
ATOM     10  C   LIG    1        1.819  -6.837  -2.439  0.00  0.00    +0.143 C 
ENDROOT
BRANCH  10  11
ATOM     11  C   LIG    1        2.747  -6.659  -1.264  0.00  0.00    -0.022 A 
ATOM     12  C   LIG    1        3.950  -7.338  -1.225  0.00  0.00    +0.008 A 
ATOM     13  C   LIG    1        4.801  -7.174  -0.147  0.00  0.00    +0.033 A 
ATOM     14  C   LIG    1        4.448  -6.331   0.890  0.00  0.00    +0.122 A 
ATOM     15  C   LIG    1        3.245  -5.651   0.850  0.00  0.00    +0.033 A 
ATOM     16  C   LIG    1        2.396  -5.811  -0.230  0.00  0.00    +0.008 A 
BRANCH  14  17
ATOM     17  N   LIG    1        5.359  -6.156   2.044  0.00  0.00    +0.006 N 
ATOM     18  O   LIG    1        6.411  -6.751   2.079  0.00  0.00    -0.130 OA
BRANCH  17  19
ATOM     19  O   LIG    1        5.051  -5.419   2.951  0.00  0.00    -0.396 OA
ATOM     20  H   LIG    1        4.235  -4.958   2.924  0.00  0.00    +0.329 HD
ENDBRANCH  17  19
ENDBRANCH  14  17
ENDBRANCH  10  11
BRANCH   1  21
ATOM     21  C   LIG    1        2.486  -4.576  -3.417  0.00  0.00    +0.339 C 
ATOM     22  O   LIG    1        3.020  -3.922  -4.293  0.00  0.00    -0.245 OA
BRANCH  21  23
ATOM     23  O   LIG    1        2.043  -3.970  -2.296  0.00  0.00    -0.461 OA
BRANCH  23  24
ATOM     24  C   LIG    1        2.233  -2.556  -2.205  0.00  0.00    +0.232 C 
BRANCH  24  25
ATOM     25  C   LIG    1        1.671  -2.051  -0.875  0.00  0.00    +0.041 C 
BRANCH  25  26
ATOM     26  C   LIG    1        1.874  -0.537  -0.777  0.00  0.00    +0.003 C 
BRANCH  26  28
ATOM     27  C   LIG    1        1.516   1.481   0.651  0.00  0.00    +0.004 C 
ATOM     28  C   LIG    1        1.312  -0.032   0.553  0.00  0.00    -0.003 C 
ENDBRANCH  26  28
ENDBRANCH  25  26
ENDBRANCH  24  25
ENDBRANCH  23  24
ENDBRANCH  21  23
ENDBRANCH   1  21
TORSDOF 9
