REMARK  Name = ZINC05425464
REMARK                            x       y       z     vdW  Elec       q    Type
REMARK                         _______ _______ _______ _____ _____    ______ ____
ROOT
ATOM      1  C   LIG    1        5.315  -1.603   1.466  0.00  0.00    +0.248 A 
ATOM      2  N   LIG    1        6.018  -2.003   0.414  0.00  0.00    -0.178 NA
ATOM      3  C   LIG    1        7.171  -2.642   0.562  0.00  0.00    +0.218 A 
ATOM      4  N   LIG    1        7.675  -2.923   1.753  0.00  0.00    -0.195 NA
ATOM      5  C   LIG    1        7.033  -2.563   2.860  0.00  0.00    +0.166 A 
ATOM      6  N   LIG    1        7.273  -2.696   4.204  0.00  0.00    -0.329 N 
ATOM      7  C   LIG    1        6.231  -2.113   4.865  0.00  0.00    +0.199 A 
ATOM      8  N   LIG    1        5.375  -1.634   4.011  0.00  0.00    -0.229 NA
ATOM      9  H   LIG    1        8.042  -3.125   4.610  0.00  0.00    +0.168 HD
ATOM     10  C   LIG    1        5.810  -1.879   2.750  0.00  0.00    +0.169 A 
ENDROOT
BRANCH   3  11
ATOM     11  N   LIG    1        7.869  -3.033  -0.568  0.00  0.00    -0.327 N 
ATOM     12  H   LIG    1        7.515  -2.836  -1.450  0.00  0.00    +0.145 HD
ATOM     13  H   LIG    1        8.712  -3.505  -0.479  0.00  0.00    +0.145 HD
ENDBRANCH   3  11
BRANCH   1  14
ATOM     14  O   LIG    1        4.141  -0.946   1.304  0.00  0.00    -0.470 OA
BRANCH  14  15
ATOM     15  C   LIG    1        3.711  -0.707  -0.038  0.00  0.00    +0.266 C 
BRANCH  15  19
ATOM     16  C   LIG    1       -0.017   1.378   0.010  0.00  0.00    +0.000 A 
ATOM     17  C   LIG    1        1.171   2.086   0.002  0.00  0.00    +0.000 A 
ATOM     18  C   LIG    1        2.377   1.411  -0.013  0.00  0.00    +0.007 A 
ATOM     19  C   LIG    1        2.396   0.029  -0.020  0.00  0.00    -0.010 A 
ATOM     20  C   LIG    1        1.208  -0.679  -0.012  0.00  0.00    +0.007 A 
ATOM     21  C   LIG    1        0.002  -0.004   0.002  0.00  0.00    +0.000 A 
ENDBRANCH  15  19
ENDBRANCH  14  15
ENDBRANCH   1  14
TORSDOF 4
