REMARK  Name = ZINC05331680
REMARK                            x       y       z     vdW  Elec       q    Type
REMARK                         _______ _______ _______ _____ _____    ______ ____
ROOT
ATOM      1  C   LIG    1        3.464   7.618   0.416  0.00  0.00    +0.161 A 
ATOM      2  C   LIG    1        4.663   8.310   0.518  0.00  0.00    +0.051 A 
ATOM      3  C   LIG    1        5.847   7.586   0.499  0.00  0.00    +0.023 A 
ATOM      4  C   LIG    1        5.799   6.211   0.386  0.00  0.00    +0.113 A 
ATOM      5  N   LIG    1        4.644   5.578   0.295  0.00  0.00    -0.237 NA
ATOM      6  C   LIG    1        3.492   6.227   0.310  0.00  0.00    +0.168 A 
ENDROOT
BRANCH   6   7
ATOM      7  N   LIG    1        2.295   5.516   0.212  0.00  0.00    -0.251 N 
ATOM      8  H   LIG    1        1.448   5.989   0.222  0.00  0.00    +0.158 HD
ATOM      9  C   LIG    1        2.317   4.173   0.104  0.00  0.00    +0.309 C 
ATOM     10  N   LIG    1        1.161   3.486   0.009  0.00  0.00    -0.269 N 
ATOM     11  H   LIG    1        0.318   3.962  -0.058  0.00  0.00    +0.156 HD
ATOM     12  O   LIG    1        3.378   3.581   0.091  0.00  0.00    -0.252 OA
BRANCH  10  13
ATOM     13  C   LIG    1        1.177   2.086   0.009  0.00  0.00    +0.035 A 
ATOM     14  C   LIG    1        2.133   1.401   0.746  0.00  0.00    +0.025 A 
ATOM     15  C   LIG    1        2.146   0.020   0.744  0.00  0.00    +0.022 A 
ATOM     16  C   LIG    1        1.207  -0.681   0.008  0.00  0.00    +0.041 A 
ATOM     17 CL   LIG    1        1.226  -2.417   0.008  0.00  0.00    -0.084 Cl
ATOM     18  C   LIG    1        0.253  -0.001  -0.727  0.00  0.00    +0.022 A 
ATOM     19  C   LIG    1        0.235   1.381  -0.729  0.00  0.00    +0.025 A 
ENDBRANCH  10  13
ENDBRANCH   6   7
BRANCH   1  20
ATOM     20  O   LIG    1        2.279   8.285   0.425  0.00  0.00    -0.484 OA
BRANCH  20  21
ATOM     21  C   LIG    1        2.337   9.709   0.537  0.00  0.00    +0.264 C 
BRANCH  21  25
ATOM     22  C   LIG    1       -1.627  11.301   0.517  0.00  0.00    +0.000 A 
ATOM     23  C   LIG    1       -1.028  10.952   1.713  0.00  0.00    +0.000 A 
ATOM     24  C   LIG    1        0.254  10.436   1.719  0.00  0.00    +0.007 A 
ATOM     25  C   LIG    1        0.939  10.270   0.530  0.00  0.00    -0.010 A 
ATOM     26  C   LIG    1        0.343  10.625  -0.666  0.00  0.00    +0.007 A 
ATOM     27  C   LIG    1       -0.942  11.136  -0.673  0.00  0.00    +0.000 A 
ENDBRANCH  21  25
ENDBRANCH  20  21
ENDBRANCH   1  20
TORSDOF 5
