REMARK  Name = ZINC04886886
REMARK                            x       y       z     vdW  Elec       q    Type
REMARK                         _______ _______ _______ _____ _____    ______ ____
ROOT
ATOM      1  O   LIG    1        0.033  -2.837  -0.455  0.00  0.00    -0.357 OA
ENDROOT
BRANCH   1   2
ATOM      2  C   LIG    1       -0.297  -2.596  -1.824  0.00  0.00    +0.196 C 
BRANCH   2   6
ATOM      3  C   LIG    1       -1.581  -5.328  -3.424  0.00  0.00    +0.226 C 
ATOM      4  C   LIG    1       -2.537  -4.347  -4.149  0.00  0.00    +0.088 C 
ATOM      5  C   LIG    1       -2.021  -2.983  -3.614  0.00  0.00    +0.150 C 
ATOM      6  C   LIG    1       -1.589  -3.338  -2.175  0.00  0.00    +0.175 C 
ATOM      7  O   LIG    1       -1.366  -4.752  -2.126  0.00  0.00    -0.348 OA
BRANCH   3  11
ATOM      8  C   LIG    1       -1.650 -10.126  -4.557  0.00  0.00    +0.051 C 
ATOM      9  C   LIG    1       -2.234  -8.935  -3.841  0.00  0.00    +0.030 A 
ATOM     10  C   LIG    1       -1.660  -7.718  -3.956  0.00  0.00    +0.101 A 
ATOM     11  N   LIG    1       -2.204  -6.648  -3.300  0.00  0.00    -0.274 N 
ATOM     12  C   LIG    1       -3.302  -6.797  -2.538  0.00  0.00    +0.331 A 
ATOM     13  N   LIG    1       -3.898  -7.997  -2.410  0.00  0.00    -0.275 N 
ATOM     14  H   LIG    1       -4.718  -8.088  -1.845  0.00  0.00    +0.173 HD
ATOM     15  O   LIG    1       -3.766  -5.833  -1.960  0.00  0.00    -0.246 OA
ATOM     16  C   LIG    1       -3.393  -9.077  -3.040  0.00  0.00    +0.257 A 
ATOM     17  O   LIG    1       -3.928 -10.164  -2.921  0.00  0.00    -0.267 OA
ENDBRANCH   3  11
BRANCH   5  18
ATOM     18  O   LIG    1       -3.069  -2.011  -3.606  0.00  0.00    -0.389 OA
ATOM     19  H   LIG    1       -3.375  -1.756  -4.487  0.00  0.00    +0.210 HD
ENDBRANCH   5  18
ENDBRANCH   2   6
ENDBRANCH   1   2
BRANCH   1  20
ATOM     20  C   LIG    1        1.229  -2.186  -0.022  0.00  0.00    +0.144 C 
BRANCH  20  21
ATOM     21  C   LIG    1        1.479  -2.507   1.429  0.00  0.00    -0.007 A 
ATOM     22  C   LIG    1        2.139  -1.598   2.235  0.00  0.00    +0.007 A 
ATOM     23  C   LIG    1        2.365  -1.891   3.566  0.00  0.00    +0.000 A 
ATOM     24  C   LIG    1        1.939  -3.098   4.090  0.00  0.00    +0.000 A 
ATOM     25  C   LIG    1        1.284  -4.009   3.284  0.00  0.00    +0.000 A 
ATOM     26  C   LIG    1        1.054  -3.714   1.953  0.00  0.00    +0.007 A 
ENDBRANCH  20  21
BRANCH  20  27
ATOM     27  C   LIG    1        2.391  -2.668  -0.851  0.00  0.00    -0.007 A 
ATOM     28  C   LIG    1        3.575  -1.954  -0.862  0.00  0.00    +0.007 A 
ATOM     29  C   LIG    1        4.643  -2.399  -1.619  0.00  0.00    +0.000 A 
ATOM     30  C   LIG    1        4.524  -3.552  -2.373  0.00  0.00    +0.000 A 
ATOM     31  C   LIG    1        3.338  -4.263  -2.365  0.00  0.00    +0.000 A 
ATOM     32  C   LIG    1        2.272  -3.820  -1.605  0.00  0.00    +0.007 A 
ENDBRANCH  20  27
BRANCH  20  33
ATOM     33  C   LIG    1        1.078  -0.696  -0.187  0.00  0.00    -0.007 A 
ATOM     34  C   LIG    1        0.425   0.045   0.781  0.00  0.00    +0.007 A 
ATOM     35  C   LIG    1        0.286   1.412   0.629  0.00  0.00    +0.000 A 
ATOM     36  C   LIG    1        0.801   2.039  -0.490  0.00  0.00    +0.000 A 
ATOM     37  C   LIG    1        1.453   1.298  -1.458  0.00  0.00    +0.000 A 
ATOM     38  C   LIG    1        1.592  -0.069  -1.307  0.00  0.00    +0.007 A 
ENDBRANCH  20  33
ENDBRANCH   1  20
TORSDOF 8
