REMARK  Name = ZINC04978046
REMARK                            x       y       z     vdW  Elec       q    Type
REMARK                         _______ _______ _______ _____ _____    ______ ____
ROOT
ATOM      1  C   LIG    1        1.763  -4.544  -6.040  0.00  0.00    -0.043 C 
ENDROOT
BRANCH   1   5
ATOM      2  C   LIG    1        1.327  -2.452  -2.354  0.00  0.00    +0.094 C 
ATOM      3  C   LIG    1        0.557  -1.972  -3.588  0.00  0.00    -0.004 C 
ATOM      4  C   LIG    1        1.218  -2.538  -4.846  0.00  0.00    -0.078 C 
ATOM      5  N   LIG    1        1.198  -4.005  -4.796  0.00  0.00    +0.382 N 
ATOM      6  H   LIG    1        0.246  -4.324  -4.695  0.00  0.00    -0.081 HD
ATOM      7  C   LIG    1        1.994  -4.475  -3.655  0.00  0.00    -0.078 C 
ATOM      8  C   LIG    1        1.363  -3.983  -2.351  0.00  0.00    -0.004 C 
BRANCH   2   9
ATOM      9  C   LIG    1        0.636  -1.962  -1.107  0.00  0.00    +0.310 C 
ATOM     10  O   LIG    1        0.215  -2.755  -0.298  0.00  0.00    -0.251 OA
BRANCH   9  11
ATOM     11  O   LIG    1        0.488  -0.645  -0.896  0.00  0.00    -0.465 OA
BRANCH  11  13
ATOM     12  C   LIG    1       -0.250   1.275   0.373  0.00  0.00    +0.048 C 
ATOM     13  C   LIG    1       -0.176  -0.251   0.307  0.00  0.00    +0.229 C 
ENDBRANCH  11  13
ENDBRANCH   9  11
ENDBRANCH   2   9
ENDBRANCH   1   5
BRANCH   1  14
ATOM     14  C   LIG    1        1.631  -6.046  -6.043  0.00  0.00    -0.060 A 
ATOM     15  C   LIG    1        2.639  -6.829  -5.511  0.00  0.00    +0.002 A 
ATOM     16  C   LIG    1        2.521  -8.206  -5.511  0.00  0.00    +0.004 A 
ATOM     17  C   LIG    1        1.395  -8.804  -6.043  0.00  0.00    +0.046 A 
ATOM     18  C   LIG    1        0.381  -8.021  -6.577  0.00  0.00    +0.129 A 
ATOM     19  C   LIG    1        0.500  -6.638  -6.570  0.00  0.00    +0.048 A 
BRANCH  18  20
ATOM     20  O   LIG    1       -0.727  -8.606  -7.100  0.00  0.00    -0.456 OA
BRANCH  20  21
ATOM     21  C   LIG    1       -0.929  -8.507  -8.441  0.00  0.00    +0.128 A 
ATOM     22  C   LIG    1        0.046  -7.940  -9.250  0.00  0.00    +0.046 A 
ATOM     23  C   LIG    1       -0.161  -7.840 -10.612  0.00  0.00    +0.004 A 
ATOM     24  C   LIG    1       -1.339  -8.304 -11.169  0.00  0.00    +0.000 A 
ATOM     25  C   LIG    1       -2.312  -8.869 -10.365  0.00  0.00    +0.004 A 
ATOM     26  C   LIG    1       -2.107  -8.977  -9.003  0.00  0.00    +0.046 A 
ENDBRANCH  20  21
ENDBRANCH  18  20
ENDBRANCH   1  14
TORSDOF 7
