REMARK  Name = ZINC05772116
REMARK                            x       y       z     vdW  Elec       q    Type
REMARK                         _______ _______ _______ _____ _____    ______ ____
ROOT
ATOM      1  C   LIG    1        6.298  -4.715  -0.086  0.00  0.00    +0.252 C 
ENDROOT
BRANCH   1   2
ATOM      2  O   LIG    1        5.014  -4.087  -0.070  0.00  0.00    -0.460 OA
BRANCH   2   3
ATOM      3  C   LIG    1        4.992  -2.739  -0.062  0.00  0.00    +0.332 C 
ATOM      4  O   LIG    1        6.035  -2.113  -0.070  0.00  0.00    -0.246 OA
BRANCH   3   6
ATOM      5  C   LIG    1        3.691  -0.680  -0.038  0.00  0.00    +0.015 C 
ATOM      6  C   LIG    1        3.714  -2.029  -0.045  0.00  0.00    +0.092 C 
BRANCH   5  10
ATOM      7  C   LIG    1       -0.017   1.380   0.010  0.00  0.00    +0.000 A 
ATOM      8  C   LIG    1        1.168   2.095   0.002  0.00  0.00    +0.001 A 
ATOM      9  C   LIG    1        2.377   1.433  -0.013  0.00  0.00    +0.008 A 
ATOM     10  C   LIG    1        2.405   0.035  -0.021  0.00  0.00    -0.025 A 
ATOM     11  C   LIG    1        1.203  -0.681  -0.013  0.00  0.00    +0.008 A 
ATOM     12  C   LIG    1        0.002  -0.004   0.002  0.00  0.00    +0.001 A 
ENDBRANCH   5  10
ENDBRANCH   3   6
ENDBRANCH   2   3
ENDBRANCH   1   2
BRANCH   1  13
ATOM     13  C   LIG    1        6.123  -6.235  -0.093  0.00  0.00    +0.158 C 
BRANCH  13  14
ATOM     14  N   LIG    1        5.474  -6.646  -1.340  0.00  0.00    -0.231 N 
ATOM     15  C   LIG    1        4.143  -6.742  -1.510  0.00  0.00    +0.254 C 
ATOM     16  C   LIG    1        3.876  -7.184  -2.896  0.00  0.00    +0.049 A 
ATOM     17  C   LIG    1        2.726  -7.448  -3.622  0.00  0.00    +0.014 A 
ATOM     18  C   LIG    1        2.827  -7.857  -4.943  0.00  0.00    +0.001 A 
ATOM     19  C   LIG    1        4.066  -8.004  -5.538  0.00  0.00    +0.001 A 
ATOM     20  C   LIG    1        5.224  -7.744  -4.824  0.00  0.00    +0.014 A 
ATOM     21  C   LIG    1        5.139  -7.333  -3.503  0.00  0.00    +0.049 A 
ATOM     22  O   LIG    1        3.302  -6.505  -0.667  0.00  0.00    -0.270 OA
ATOM     23  C   LIG    1        6.131  -6.973  -2.468  0.00  0.00    +0.254 C 
ATOM     24  O   LIG    1        7.337  -6.973  -2.611  0.00  0.00    -0.270 OA
ENDBRANCH  13  14
ENDBRANCH   1  13
TORSDOF 6
