REMARK  Name = ZINC05115385
REMARK                            x       y       z     vdW  Elec       q    Type
REMARK                         _______ _______ _______ _____ _____    ______ ____
ROOT
ATOM      1  S   LIG    1       -1.277   5.095   0.042  0.00  0.00    +0.094 S 
ATOM      2  O   LIG    1       -2.534   4.785   0.626  0.00  0.00    -0.249 OA
ENDROOT
BRANCH   1   3
ATOM      3  C   LIG    1       -0.423   3.554   0.025  0.00  0.00    +0.198 A 
ATOM      4  N   LIG    1       -1.020   2.332   0.019  0.00  0.00    -0.331 N 
ATOM      5  C   LIG    1       -0.017   1.384   0.010  0.00  0.00    +0.067 A 
ATOM      6  C   LIG    1        0.002  -0.004   0.002  0.00  0.00    +0.028 A 
ATOM      7  C   LIG    1        1.209  -0.670  -0.013  0.00  0.00    +0.002 A 
ATOM      8  C   LIG    1        2.403   0.037  -0.021  0.00  0.00    +0.002 A 
ATOM      9  C   LIG    1        2.404   1.403  -0.014  0.00  0.00    +0.030 A 
ATOM     10  C   LIG    1        1.192   2.100   0.002  0.00  0.00    +0.090 A 
ATOM     11  H   LIG    1       -2.004   2.153   0.020  0.00  0.00    +0.168 HD
ATOM     12  N   LIG    1        0.871   3.419   0.012  0.00  0.00    -0.220 NA
ENDBRANCH   1   3
BRANCH   1  13
ATOM     13  C   LIG    1       -1.507   5.488  -1.714  0.00  0.00    +0.149 C 
BRANCH  13  19
ATOM     14  C   LIG    1       -1.520   7.989  -1.911  0.00  0.00    +0.033 A 
ATOM     15  C   LIG    1       -2.195   9.198  -2.031  0.00  0.00    +0.023 A 
ATOM     16  C   LIG    1       -3.575   9.213  -2.083  0.00  0.00    +0.002 A 
ATOM     17  C   LIG    1       -4.284   8.028  -2.016  0.00  0.00    +0.000 A 
ATOM     18  C   LIG    1       -3.615   6.823  -1.902  0.00  0.00    +0.006 A 
ATOM     19  C   LIG    1       -2.235   6.801  -1.844  0.00  0.00    -0.014 A 
BRANCH  14  21
ATOM     20  C   LIG    1        0.457   8.553  -3.075  0.00  0.00    +0.129 C 
ATOM     21  N   LIG    1       -0.124   7.970  -1.859  0.00  0.00    -0.336 N 
ATOM     22  C   LIG    1        0.367   8.659  -0.658  0.00  0.00    +0.129 C 
ENDBRANCH  14  21
ENDBRANCH  13  19
ENDBRANCH   1  13
TORSDOF 4
