REMARK  Name = ZINC05759774
REMARK                            x       y       z     vdW  Elec       q    Type
REMARK                         _______ _______ _______ _____ _____    ______ ____
ROOT
ATOM      1  CA  LEU A  1       -2.960   1.731   2.395  0.00  0.00    -0.011 C 
ENDROOT
BRANCH   1   2
ATOM      2  N   LEU A  1       -2.299   1.459   3.684  0.00  0.00    +0.384 N 
ATOM      3  H1  LEU A  1       -1.328   1.792   3.642  0.00  0.00    -0.089 HD
ATOM      4  H2  LEU A  1       -2.299   0.458   3.872  0.00  0.00    -0.089 HD
ATOM      5  H3  LEU A  1       -2.785   1.946   4.435  0.00  0.00    -0.089 HD
ENDBRANCH   1   2
BRANCH   1   6
ATOM      6  C   LEU A  1       -4.373   1.210   2.409  0.00  0.00    +0.207 C 
ATOM      7  O   LEU A  1       -4.805   0.660   3.394  0.00  0.00    -0.303 OA
ENDBRANCH   1   6
BRANCH   1   8
ATOM      8  CB  LEU A  1       -2.173   1.044   1.278  0.00  0.00    -0.006 C 
BRANCH   8  10
ATOM      9  CD1 LEU A  1       -0.858   3.107   0.773  0.00  0.00    +0.007 C 
ATOM     10  CG  LEU A  1       -0.767   1.641   1.202  0.00  0.00    -0.018 C 
ATOM     11  CD2 LEU A  1        0.064   0.862   0.181  0.00  0.00    +0.007 C 
ENDBRANCH   8  10
ENDBRANCH   1   8
TORSDOF 4
