REMARK  Name = ZINC05608787
REMARK                            x       y       z     vdW  Elec       q    Type
REMARK                         _______ _______ _______ _____ _____    ______ ____
ROOT
ATOM      1  CA  PHE A  1        4.171  -0.963   1.399  0.00  0.00    +0.166 C 
ENDROOT
BRANCH   1   2
ATOM      2  N   PHE A  1        4.451   0.315   2.057  0.00  0.00    -0.269 N 
ATOM      3  H   PHE A  1        5.356   0.664   2.075  0.00  0.00    +0.153 HD
ATOM      4  C   UNK A  0        3.451   1.007   2.638  0.00  0.00    +0.401 C 
ATOM      5  O   UNK A  0        2.317   0.571   2.616  0.00  0.00    -0.226 OA
BRANCH   4   6
ATOM      6  O   UNK A  0        3.708   2.182   3.243  0.00  0.00    -0.446 OA
BRANCH   6   7
ATOM      7  C   UNK A  0        2.600   2.861   3.838  0.00  0.00    +0.269 C 
BRANCH   7   8
ATOM      8  C   UNK A  0        3.077   4.147   4.463  0.00  0.00    -0.010 A 
ATOM      9  C   UNK A  0        3.502   4.161   5.778  0.00  0.00    +0.007 A 
ATOM     10  C   UNK A  0        3.938   5.341   6.351  0.00  0.00    +0.000 A 
ATOM     11  C   UNK A  0        3.951   6.507   5.608  0.00  0.00    +0.000 A 
ATOM     12  C   UNK A  0        3.527   6.493   4.293  0.00  0.00    +0.000 A 
ATOM     13  C   UNK A  0        3.094   5.312   3.719  0.00  0.00    +0.007 A 
ENDBRANCH   7   8
ENDBRANCH   6   7
ENDBRANCH   4   6
ENDBRANCH   1   2
BRANCH   1  14
ATOM     14  C   PHE A  1        5.422  -1.804   1.383  0.00  0.00    +0.234 C 
ATOM     15  N   PHE A  2        5.402  -3.031   0.824  0.00  0.00    -0.301 N 
ATOM     16  H   PHE A  2        4.583  -3.372   0.432  0.00  0.00    +0.150 HD
ATOM     17  O   PHE A  1        6.446  -1.378   1.874  0.00  0.00    -0.274 OA
BRANCH  15  18
ATOM     18  CA  PHE A  2        6.617  -3.849   0.809  0.00  0.00    +0.186 C 
BRANCH  18  19
ATOM     19  C   PHE A  2        7.459  -3.476  -0.384  0.00  0.00    +0.326 C 
ATOM     20  O   PHE A  2        8.672  -3.582  -0.332  0.00  0.00    -0.249 OA
BRANCH  19  21
ATOM     21  OXT PHE A  2        6.926  -3.069  -1.403  0.00  0.00    -0.479 OA
ATOM     22  HXT PHE A  2        5.993  -2.987  -1.443  0.00  0.00    +0.295 HD
ENDBRANCH  19  21
ENDBRANCH  18  19
BRANCH  18  23
ATOM     23  CB  PHE A  2        6.236  -5.328   0.723  0.00  0.00    +0.069 C 
BRANCH  23  24
ATOM     24  CG  PHE A  2        5.500  -5.731   1.974  0.00  0.00    -0.045 A 
ATOM     25  CD2 PHE A  2        6.201  -6.208   3.065  0.00  0.00    +0.004 A 
ATOM     26  CE2 PHE A  2        5.526  -6.578   4.213  0.00  0.00    +0.000 A 
ATOM     27  CZ  PHE A  2        4.149  -6.470   4.271  0.00  0.00    +0.000 A 
ATOM     28  CE1 PHE A  2        3.447  -5.991   3.180  0.00  0.00    +0.000 A 
ATOM     29  CD1 PHE A  2        4.123  -5.617   2.033  0.00  0.00    +0.004 A 
ENDBRANCH  23  24
ENDBRANCH  18  23
ENDBRANCH  15  18
ENDBRANCH   1  14
BRANCH   1  30
ATOM     30  CB  PHE A  1        3.711  -0.707  -0.038  0.00  0.00    +0.067 C 
BRANCH  30  34
ATOM     31  CZ  PHE A  1       -0.017   1.378   0.010  0.00  0.00    +0.000 A 
ATOM     32  CE1 PHE A  1        1.171   2.086   0.002  0.00  0.00    +0.000 A 
ATOM     33  CD1 PHE A  1        2.377   1.411  -0.013  0.00  0.00    +0.004 A 
ATOM     34  CG  PHE A  1        2.396   0.029  -0.020  0.00  0.00    -0.045 A 
ATOM     35  CD2 PHE A  1        1.208  -0.679  -0.012  0.00  0.00    +0.004 A 
ATOM     36  CE2 PHE A  1        0.002  -0.004   0.002  0.00  0.00    +0.000 A 
ENDBRANCH  30  34
ENDBRANCH   1  30
TORSDOF 12
