REMARK  Name = ZINC04899732
REMARK                            x       y       z     vdW  Elec       q    Type
REMARK                         _______ _______ _______ _____ _____    ______ ____
ROOT
ATOM      1  C   LIG    1       -2.517   0.953  -0.762  0.00  0.00    +0.201 C 
ATOM      2  N   LIG    1       -1.214   0.615  -0.699  0.00  0.00    -0.291 N 
ATOM      3  C   LIG    1       -0.381   0.196  -1.835  0.00  0.00    +0.108 C 
ATOM      4  C   LIG    1        1.040  -0.063  -1.290  0.00  0.00    +0.021 C 
ATOM      5  C   LIG    1        1.067   0.769   0.019  0.00  0.00    +0.033 C 
ATOM      6  C   LIG    1       -0.389   0.603   0.523  0.00  0.00    +0.162 C 
ATOM      7  O   LIG    1       -3.085   1.368   0.225  0.00  0.00    -0.277 OA
ENDROOT
BRANCH   6   8
ATOM      8  C   LIG    1       -0.765   1.751   1.424  0.00  0.00    +0.231 C 
ATOM      9  N   LIG    1       -0.611   1.638   2.759  0.00  0.00    -0.328 N 
ATOM     10  H   LIG    1       -0.853   2.377   3.339  0.00  0.00    +0.145 HD
ATOM     11  H   LIG    1       -0.258   0.819   3.139  0.00  0.00    +0.145 HD
ATOM     12  O   LIG    1       -1.207   2.776   0.949  0.00  0.00    -0.274 OA
ENDBRANCH   6   8
BRANCH   1  14
ATOM     13  C   LIG    1       -3.097   2.091  -2.888  0.00  0.00    -0.005 C 
ATOM     14  C   LIG    1       -3.268   0.815  -2.062  0.00  0.00    +0.010 C 
BRANCH  14  15
ATOM     15  N   LIG    1       -4.693   0.579  -1.769  0.00  0.00    +0.385 N 
ATOM     16  H   LIG    1       -4.789  -0.298  -1.244  0.00  0.00    -0.089 HD
ATOM     17  H   LIG    1       -5.221   0.505  -2.638  0.00  0.00    -0.089 HD
ATOM     18  H   LIG    1       -5.067   1.345  -1.210  0.00  0.00    -0.089 HD
ENDBRANCH  14  15
ENDBRANCH   1  14
TORSDOF 3
