REMARK  Name = ZINC05479224
REMARK                            x       y       z     vdW  Elec       q    Type
REMARK                         _______ _______ _______ _____ _____    ______ ____
ROOT
ATOM      1  C   LIG    1        1.129   3.599   0.010  0.00  0.00    +0.044 C 
ATOM      2  C   LIG    1        1.169   2.093   0.002  0.00  0.00    -0.048 A 
ATOM      3  C   LIG    1       -0.017   1.373   0.010  0.00  0.00    +0.005 A 
ATOM      4  C   LIG    1        0.002  -0.004   0.002  0.00  0.00    +0.030 A 
ATOM      5  C   LIG    1        1.224  -0.681  -0.013  0.00  0.00    +0.091 A 
ATOM      6  C   LIG    1        2.421   0.053  -0.021  0.00  0.00    +0.068 A 
ATOM      7  N   LIG    1        3.445  -0.880  -0.036  0.00  0.00    -0.326 N 
ATOM      8  C   LIG    1        2.866  -2.116  -0.037  0.00  0.00    +0.200 A 
ATOM      9  H   LIG    1        4.426  -0.684  -0.044  0.00  0.00    +0.169 HD
ATOM     10  N   LIG    1        1.562  -1.997  -0.024  0.00  0.00    -0.214 NA
ATOM     11  C   LIG    1        2.384   1.439  -0.012  0.00  0.00    +0.031 A 
ENDROOT
BRANCH   8  12
ATOM     12  N   LIG    1        3.554  -3.315  -0.050  0.00  0.00    -0.254 N 
ATOM     13  H   LIG    1        3.066  -4.154  -0.050  0.00  0.00    +0.158 HD
BRANCH  12  14
ATOM     14  C   LIG    1        4.940  -3.318  -0.064  0.00  0.00    +0.222 A 
ATOM     15  N   LIG    1        5.590  -2.164  -0.070  0.00  0.00    -0.219 NA
ATOM     16  C   LIG    1        6.912  -2.132  -0.078  0.00  0.00    +0.044 A 
ATOM     17  C   LIG    1        7.643  -0.814  -0.079  0.00  0.00    +0.066 C 
ATOM     18  C   LIG    1        7.617  -3.326  -0.091  0.00  0.00    +0.046 A 
ATOM     19  C   LIG    1        6.906  -4.515  -0.091  0.00  0.00    +0.044 A 
ATOM     20  C   LIG    1        7.630  -5.837  -0.105  0.00  0.00    +0.066 C 
ATOM     21  N   LIG    1        5.584  -4.476  -0.077  0.00  0.00    -0.219 NA
ENDBRANCH  12  14
ENDBRANCH   8  12
TORSDOF 2
