REMARK  Name = ZINC05719749
REMARK                            x       y       z     vdW  Elec       q    Type
REMARK                         _______ _______ _______ _____ _____    ______ ____
ROOT
ATOM      1  C   LIG    1       -0.018   1.465   0.010  0.00  0.00    +0.104 C 
ATOM      2  N   LIG    1        0.002  -0.004   0.002  0.00  0.00    -0.304 NA
ATOM      3  C   LIG    1        0.788  -0.519  -1.149  0.00  0.00    +0.093 C 
ATOM      4  C   LIG    1        1.173  -1.959  -0.743  0.00  0.00    +0.045 C 
ATOM      5  C   LIG    1        1.123  -1.968   0.799  0.00  0.00    +0.083 C 
ATOM      6  C   LIG    1        0.712  -0.533   1.195  0.00  0.00    +0.096 C 
ENDROOT
BRANCH   4   7
ATOM      7  C   LIG    1        2.563  -2.284  -1.226  0.00  0.00    -0.042 A 
ATOM      8  C   LIG    1        3.635  -1.515  -0.813  0.00  0.00    +0.007 A 
ATOM      9  C   LIG    1        4.910  -1.813  -1.254  0.00  0.00    +0.038 A 
ATOM     10  C   LIG    1        5.114  -2.882  -2.110  0.00  0.00    +0.123 A 
ATOM     11  F   LIG    1        6.360  -3.174  -2.542  0.00  0.00    -0.205 F 
ATOM     12  C   LIG    1        4.040  -3.652  -2.522  0.00  0.00    +0.038 A 
ATOM     13  C   LIG    1        2.766  -3.355  -2.075  0.00  0.00    +0.007 A 
ENDBRANCH   4   7
BRANCH   5  14
ATOM     14  C   LIG    1        0.098  -2.961   1.283  0.00  0.00    +0.168 C 
ATOM     15  O   LIG    1       -0.832  -3.270   0.569  0.00  0.00    -0.292 OA
BRANCH  14  16
ATOM     16  C   LIG    1        0.226  -3.555   2.622  0.00  0.00    +0.018 A 
ATOM     17  C   LIG    1        1.294  -3.196   3.451  0.00  0.00    +0.014 A 
ATOM     18  C   LIG    1        1.408  -3.756   4.704  0.00  0.00    +0.039 A 
ATOM     19  C   LIG    1        0.466  -4.675   5.145  0.00  0.00    +0.123 A 
ATOM     20  F   LIG    1        0.584  -5.221   6.375  0.00  0.00    -0.205 F 
ATOM     21  C   LIG    1       -0.595  -5.035   4.328  0.00  0.00    +0.039 A 
ATOM     22  C   LIG    1       -0.724  -4.478   3.075  0.00  0.00    +0.014 A 
ENDBRANCH  14  16
ENDBRANCH   5  14
TORSDOF 3
