REMARK  Name = ZINC05226596
REMARK                            x       y       z     vdW  Elec       q    Type
REMARK                         _______ _______ _______ _____ _____    ______ ____
ROOT
ATOM      1  C   LIG    1       -1.571   5.086   0.168  0.00  0.00    -0.014 C 
ATOM      2  C   LIG    1       -1.519   3.558   0.108  0.00  0.00    -0.075 C 
ATOM      3  N   LIG    1       -0.765   3.055   1.272  0.00  0.00    +0.381 N 
ATOM      4  H   LIG    1        0.196   3.416   1.235  0.00  0.00    -0.086 HD
ATOM      5  H   LIG    1       -1.219   3.379   2.134  0.00  0.00    -0.086 HD
ATOM      6  C   LIG    1       -0.731   1.580   1.266  0.00  0.00    -0.082 C 
ATOM      7  C   LIG    1       -0.013   1.086   0.008  0.00  0.00    -0.019 C 
ATOM      8  C   LIG    1       -0.755   1.594  -1.231  0.00  0.00    -0.003 C 
ATOM      9  C   LIG    1       -0.823   3.123  -1.184  0.00  0.00    -0.016 C 
ENDROOT
TORSDOF 0
