REMARK  Name = ZINC05224164
REMARK                            x       y       z     vdW  Elec       q    Type
REMARK                         _______ _______ _______ _____ _____    ______ ____
ROOT
ATOM      1  C   LIG    1        1.235   3.094   0.007  0.00  0.00    +0.136 C 
ATOM      2  C   LIG    1        1.177   1.588  -0.001  0.00  0.00    +0.302 C 
ATOM      3  O   LIG    1        2.199   0.944  -0.014  0.00  0.00    -0.251 OA
ENDROOT
BRANCH   2   4
ATOM      4  O   LIG    1       -0.011   0.963   0.007  0.00  0.00    -0.481 OA
ATOM      5  H   LIG    1       -0.804   1.462   0.018  0.00  0.00    +0.295 HD
ENDBRANCH   2   4
TORSDOF 1
