REMARK  Name = ZINC05324338
REMARK                            x       y       z     vdW  Elec       q    Type
REMARK                         _______ _______ _______ _____ _____    ______ ____
ROOT
ATOM      1  C   LIG    1        2.378   3.848   0.000  0.00  0.00    +0.056 A 
ATOM      2  C   LIG    1        1.916   5.166   0.011  0.00  0.00    +0.135 A 
ATOM      3  N   LIG    1        0.608   5.133   0.022  0.00  0.00    -0.182 NA
ATOM      4  N   LIG    1        0.178   3.922   0.015  0.00  0.00    -0.271 N 
ATOM      5  H   LIG    1       -0.784   3.652   0.016  0.00  0.00    +0.189 HD
ATOM      6  C   LIG    1        1.239   3.060   0.007  0.00  0.00    +0.142 A 
ENDROOT
BRANCH   6   7
ATOM      7  C   LIG    1        1.182   1.591  -0.001  0.00  0.00    +0.355 C 
ATOM      8  O   LIG    1        2.210   0.943  -0.014  0.00  0.00    -0.243 OA
BRANCH   7   9
ATOM      9  O   LIG    1       -0.011   0.963   0.007  0.00  0.00    -0.476 OA
ATOM     10  H   LIG    1       -0.804   1.462   0.018  0.00  0.00    +0.295 HD
ENDBRANCH   7   9
ENDBRANCH   6   7
TORSDOF 2
