REMARK  Name = ZINC04993968
REMARK                            x       y       z     vdW  Elec       q    Type
REMARK                         _______ _______ _______ _____ _____    ______ ____
ROOT
ATOM      1  C   LIG    1       -1.352   5.879   0.044  0.00  0.00    +0.020 A 
ATOM      2  C   LIG    1       -0.122   5.279   0.030  0.00  0.00    +0.014 A 
ATOM      3  C   LIG    1       -0.071   3.878   0.023  0.00  0.00    +0.031 A 
ATOM      4  C   LIG    1        1.203   3.160   0.007  0.00  0.00    +0.096 A 
ATOM      5  C   LIG    1        1.188   1.766   0.000  0.00  0.00    +0.034 A 
ATOM      6  C   LIG    1       -0.013   1.076   0.008  0.00  0.00    +0.050 A 
ATOM      7  C   LIG    1       -1.225   1.730   0.017  0.00  0.00    +0.143 A 
ATOM      8  C   LIG    1       -1.279   3.142   0.030  0.00  0.00    +0.114 A 
ATOM      9  N   LIG    1       -2.448   3.787   0.044  0.00  0.00    -0.251 NA
ATOM     10  C   LIG    1       -2.504   5.098   0.051  0.00  0.00    +0.111 A 
ENDROOT
BRANCH   4  11
ATOM     11  N   LIG    1        2.379   3.838   0.000  0.00  0.00    -0.149 NA
ATOM     12  N   LIG    1        3.496   3.193  -0.013  0.00  0.00    -0.149 NA
BRANCH  12  13
ATOM     13  C   LIG    1        4.678   3.875  -0.021  0.00  0.00    +0.086 A 
ATOM     14  C   LIG    1        4.679   5.275  -0.019  0.00  0.00    +0.030 A 
ATOM     15  C   LIG    1        5.863   5.957  -0.020  0.00  0.00    +0.017 A 
ATOM     16  C   LIG    1        7.073   5.257  -0.034  0.00  0.00    +0.059 A 
ATOM     17  C   LIG    1        7.073   3.859  -0.042  0.00  0.00    +0.017 A 
ATOM     18  C   LIG    1        5.890   3.176  -0.035  0.00  0.00    +0.030 A 
BRANCH  16  19
ATOM     19  C   LIG    1        8.352   5.995  -0.042  0.00  0.00    +0.337 C 
ATOM     20  O   LIG    1        9.403   5.387  -0.054  0.00  0.00    -0.245 OA
BRANCH  19  21
ATOM     21  O   LIG    1        8.352   7.342  -0.034  0.00  0.00    -0.477 OA
ATOM     22  H   LIG    1        7.541   7.811  -0.025  0.00  0.00    +0.295 HD
ENDBRANCH  19  21
ENDBRANCH  16  19
ENDBRANCH  12  13
ENDBRANCH   4  11
BRANCH   7  23
ATOM     23  O   LIG    1       -2.377   1.014   0.019  0.00  0.00    -0.505 OA
ATOM     24  H   LIG    1       -2.706   0.801   0.903  0.00  0.00    +0.292 HD
ENDBRANCH   7  23
TORSDOF 5
