REMARK  Name = ZINC05276105
REMARK                            x       y       z     vdW  Elec       q    Type
REMARK                         _______ _______ _______ _____ _____    ______ ____
ROOT
ATOM      1  C   LIG    1       -0.200   1.962   1.482  0.00  0.00    +0.024 C 
ATOM      2  C   LIG    1        1.211   1.785   2.096  0.00  0.00    +0.007 C 
ATOM      3  C   LIG    1        2.197   1.654   0.903  0.00  0.00    +0.005 C 
ATOM      4  C   LIG    1        1.363   2.140  -0.292  0.00  0.00    -0.001 C 
ATOM      5  C   LIG    1        1.867   1.822  -1.662  0.00  0.00    +0.000 C 
ATOM      6  C   LIG    1        2.892   0.688  -1.724  0.00  0.00    +0.031 C 
ATOM      7  C   LIG    1        3.331   0.579  -3.164  0.00  0.00    -0.027 C 
ATOM      8  C   LIG    1        2.589   0.950  -4.163  0.00  0.00    -0.065 C 
ATOM      9  C   LIG    1        1.189   1.502  -4.033  0.00  0.00    -0.008 C 
ATOM     10  C   LIG    1        0.249   0.635  -4.880  0.00  0.00    +0.016 C 
ATOM     11  C   LIG    1        1.173   2.921  -4.586  0.00  0.00    +0.014 C 
ATOM     12  C   LIG    1        2.504   3.239  -5.267  0.00  0.00    +0.032 C 
ATOM     13  C   LIG    1        2.897   2.168  -6.280  0.00  0.00    +0.119 C 
ATOM     14  C   LIG    1        3.136   0.827  -5.575  0.00  0.00    +0.062 C 
ATOM     15  C   LIG    1        0.708   1.435  -2.591  0.00  0.00    +0.003 C 
ATOM     16  C   LIG    1       -0.487   2.336  -2.318  0.00  0.00    +0.005 C 
ATOM     17  C   LIG    1       -1.074   2.059  -0.926  0.00  0.00    +0.007 C 
ATOM     18  C   LIG    1       -0.019   1.526   0.010  0.00  0.00    -0.024 C 
ATOM     19  C   LIG    1        0.002  -0.004   0.002  0.00  0.00    +0.012 C 
ENDROOT
BRANCH   1  21
ATOM     20  C   LIG    1       -1.381   1.481   3.628  0.00  0.00    +0.038 C 
ATOM     21  C   LIG    1       -1.206   1.044   2.172  0.00  0.00    +0.115 C 
BRANCH  21  22
ATOM     22  O   LIG    1       -2.463   1.121   1.498  0.00  0.00    -0.392 OA
ATOM     23  H   LIG    1       -2.849   2.008   1.485  0.00  0.00    +0.210 HD
ENDBRANCH  21  22
ENDBRANCH   1  21
BRANCH  13  24
ATOM     24  O   LIG    1        1.865   2.024  -7.259  0.00  0.00    -0.391 OA
ATOM     25  H   LIG    1        2.064   1.375  -7.947  0.00  0.00    +0.210 HD
ENDBRANCH  13  24
TORSDOF 3
