REMARK  Name = ZINC04962303
REMARK                            x       y       z     vdW  Elec       q    Type
REMARK                         _______ _______ _______ _____ _____    ______ ____
ROOT
ATOM      1  C   UNK A  1       -1.330   1.944   0.019  0.00  0.00    +0.169 C 
ENDROOT
BRANCH   1   2
ATOM      2  N   UNK A  1       -2.430   0.977   0.019  0.00  0.00    -0.303 N 
ATOM      3  H   UNK A  1       -2.839   0.708   0.856  0.00  0.00    +0.149 HD
ATOM      4  C   UNK A  1       -2.875   0.462  -1.145  0.00  0.00    +0.214 C 
ATOM      5  O   UNK A  1       -2.364   0.800  -2.192  0.00  0.00    -0.276 OA
BRANCH   4   6
ATOM      6  C   UNK A  1       -4.007  -0.532  -1.145  0.00  0.00    +0.095 C 
BRANCH   6   7
ATOM      7  C   UNK A  1       -4.314  -0.956  -2.583  0.00  0.00    +0.004 C 
BRANCH   7   8
ATOM      8  C   UNK A  1       -5.463  -1.966  -2.583  0.00  0.00    +0.036 C 
BRANCH   8   9
ATOM      9  N   UNK A  1       -5.057  -3.208  -1.902  0.00  0.00    +0.387 N 
ATOM     10  H   UNK A  1       -5.829  -3.883  -1.942  0.00  0.00    -0.089 HD
ATOM     11  H   UNK A  1       -4.834  -3.015  -0.926  0.00  0.00    -0.089 HD
ATOM     12  H   UNK A  1       -4.241  -3.608  -2.362  0.00  0.00    -0.089 HD
ENDBRANCH   8   9
BRANCH   8  13
ATOM     13  C   UNK A  1       -5.847  -2.289  -4.003  0.00  0.00    +0.290 C 
ATOM     14  O   UNK A  1       -5.449  -3.307  -4.520  0.00  0.00    -0.253 OA
BRANCH  13  15
ATOM     15  O   UNK A  1       -6.631  -1.448  -4.695  0.00  0.00    -0.482 OA
ATOM     16  H   UNK A  1       -6.940  -0.659  -4.295  0.00  0.00    +0.295 HD
ENDBRANCH  13  15
ENDBRANCH   8  13
ENDBRANCH   7   8
ENDBRANCH   6   7
ENDBRANCH   4   6
ENDBRANCH   1   2
BRANCH   1  17
ATOM     17  C   UNK A  1       -0.014   1.209   0.009  0.00  0.00    +0.235 C 
ATOM     18  N   GLY A  2        1.143   1.898   0.001  0.00  0.00    -0.303 N 
ATOM     19  H   GLY A  2        1.130   2.868   0.007  0.00  0.00    +0.149 HD
ATOM     20  O   UNK A  1        0.002  -0.004   0.002  0.00  0.00    -0.274 OA
BRANCH  18  21
ATOM     21  CA  GLY A  2        2.422   1.183  -0.015  0.00  0.00    +0.224 C 
BRANCH  21  22
ATOM     22  C   GLY A  2        3.554   2.178  -0.020  0.00  0.00    +0.322 C 
ATOM     23  O   GLY A  2        3.317   3.363  -0.012  0.00  0.00    -0.249 OA
BRANCH  22  24
ATOM     24  OXT GLY A  2        4.825   1.748  -0.035  0.00  0.00    -0.480 OA
ATOM     25  HXT GLY A  2        5.009   0.829  -0.041  0.00  0.00    +0.295 HD
ENDBRANCH  22  24
ENDBRANCH  21  22
ENDBRANCH  18  21
ENDBRANCH   1  17
BRANCH   1  26
ATOM     26  C   UNK A  1       -1.417   2.816   1.273  0.00  0.00    +0.101 C 
BRANCH  26  27
ATOM     27  S   UNK A  1       -3.000   3.701   1.286  0.00  0.00    -0.154 S 
BRANCH  27  28
ATOM     28  C   UNK A  1       -2.946   4.676   2.815  0.00  0.00    +0.104 C 
BRANCH  28  35
ATOM     29  C   UNK A  1       -4.298   6.745   2.421  0.00  0.00    +0.005 A 
ATOM     30  C   UNK A  1       -5.468   7.471   2.540  0.00  0.00    +0.015 A 
ATOM     31  C   UNK A  1       -6.556   6.928   3.198  0.00  0.00    +0.018 A 
ATOM     32 BR   UNK A  1       -8.154   7.924   3.367  0.00  0.00    -0.050 Br
ATOM     33  C   UNK A  1       -6.475   5.654   3.732  0.00  0.00    +0.015 A 
ATOM     34  C   UNK A  1       -5.307   4.926   3.608  0.00  0.00    +0.005 A 
ATOM     35  C   UNK A  1       -4.219   5.470   2.950  0.00  0.00    -0.037 A 
ENDBRANCH  28  35
ENDBRANCH  27  28
ENDBRANCH  26  27
ENDBRANCH   1  26
TORSDOF 15
