REMARK  Name = ZINC05613242
REMARK                            x       y       z     vdW  Elec       q    Type
REMARK                         _______ _______ _______ _____ _____    ______ ____
ROOT
ATOM      1  C   LIG    1        8.791   2.581  -0.066  0.00  0.00    +0.111 C 
ATOM      2  C   LIG    1        8.365   4.027  -0.055  0.00  0.00    +0.232 C 
ATOM      3  N   LIG    1        7.055   4.343  -0.041  0.00  0.00    -0.185 N 
ATOM      4  C   LIG    1        6.505   5.708  -0.029  0.00  0.00    +0.137 C 
ATOM      5  C   LIG    1        4.980   5.484  -0.022  0.00  0.00    +0.087 C 
ATOM      6  C   LIG    1        4.833   3.979  -0.022  0.00  0.00    +0.076 C 
ATOM      7  N   LIG    1        6.001   3.432  -0.035  0.00  0.00    -0.181 NA
ATOM      8  O   LIG    1        9.202   4.905  -0.058  0.00  0.00    -0.274 OA
ENDROOT
BRANCH   6   9
ATOM      9  C   LIG    1        3.555   3.250  -0.013  0.00  0.00    +0.083 A 
ATOM     10  C   LIG    1        2.355   3.936   0.001  0.00  0.00    +0.028 A 
ATOM     11  C   LIG    1        1.145   3.193   0.008  0.00  0.00    +0.018 A 
ATOM     12  C   LIG    1       -0.090   3.857   0.023  0.00  0.00    +0.011 A 
ATOM     13  C   LIG    1       -1.250   3.136   0.030  0.00  0.00    +0.001 A 
ATOM     14  C   LIG    1       -1.216   1.749   0.017  0.00  0.00    +0.004 A 
ATOM     15  C   LIG    1       -0.013   1.076   0.008  0.00  0.00    +0.047 A 
ATOM     16  C   LIG    1        1.182   1.788   0.000  0.00  0.00    +0.139 A 
ATOM     17  O   LIG    1        2.359   1.126  -0.013  0.00  0.00    -0.422 OA
ATOM     18  C   LIG    1        3.531   1.781  -0.021  0.00  0.00    +0.346 A 
ATOM     19  O   LIG    1        4.576   1.158  -0.034  0.00  0.00    -0.244 OA
ENDBRANCH   6   9
BRANCH   4  20
ATOM     20  C   LIG    1        6.943   6.446   1.209  0.00  0.00    -0.025 A 
ATOM     21  C   LIG    1        7.011   5.784   2.421  0.00  0.00    +0.005 A 
ATOM     22  C   LIG    1        7.417   6.459   3.556  0.00  0.00    +0.000 A 
ATOM     23  C   LIG    1        7.747   7.800   3.482  0.00  0.00    +0.000 A 
ATOM     24  C   LIG    1        7.674   8.463   2.272  0.00  0.00    +0.000 A 
ATOM     25  C   LIG    1        7.272   7.787   1.135  0.00  0.00    +0.005 A 
ENDBRANCH   4  20
TORSDOF 2
