REMARK  Name = ZINC05091174
REMARK                            x       y       z     vdW  Elec       q    Type
REMARK                         _______ _______ _______ _____ _____    ______ ____
ROOT
ATOM      1  C   LIG    1       -2.487  -5.716  -1.038  0.00  0.00    +0.109 A 
ATOM      2  C   LIG    1       -3.103  -5.793   0.197  0.00  0.00    +0.030 A 
ATOM      3  C   LIG    1       -4.030  -6.786   0.447  0.00  0.00    +0.025 A 
ATOM      4  C   LIG    1       -4.343  -7.708  -0.544  0.00  0.00    +0.033 A 
ATOM      5  C   LIG    1       -3.722  -7.627  -1.784  0.00  0.00    +0.025 A 
ATOM      6  C   LIG    1       -2.800  -6.628  -2.029  0.00  0.00    +0.030 A 
ENDROOT
BRANCH   1   7
ATOM      7  S   LIG    1       -1.305  -4.448  -1.353  0.00  0.00    +0.074 S 
ATOM      8  O   LIG    1       -0.785  -4.055  -0.090  0.00  0.00    -0.150 OA
ATOM      9  O   LIG    1       -0.474  -4.919  -2.405  0.00  0.00    -0.150 OA
BRANCH   7  10
ATOM     10  N   LIG    1       -2.132  -3.144  -1.951  0.00  0.00    -0.197 N 
ATOM     11  H   LIG    1       -3.109  -3.191  -2.065  0.00  0.00    +0.175 HD
BRANCH  10  15
ATOM     12  C   LIG    1       -1.201   1.486  -3.555  0.00  0.00    +0.089 C 
ATOM     13  C   LIG    1       -1.035   0.091  -3.011  0.00  0.00    +0.136 A 
ATOM     14  C   LIG    1       -2.022  -0.800  -2.811  0.00  0.00    +0.092 A 
ATOM     15  C   LIG    1       -1.448  -1.983  -2.293  0.00  0.00    +0.181 A 
ATOM     16  N   LIG    1       -0.157  -1.791  -2.191  0.00  0.00    -0.062 NA
ATOM     17  O   LIG    1        0.124  -0.480  -2.647  0.00  0.00    -0.358 OA
ENDBRANCH  10  15
ENDBRANCH   7  10
ENDBRANCH   1   7
BRANCH   4  18
ATOM     18  N   LIG    1       -5.281  -8.715  -0.294  0.00  0.00    -0.297 N 
ATOM     19  H   LIG    1       -5.122  -9.616  -0.615  0.00  0.00    +0.154 HD
BRANCH  18  20
ATOM     20  C   LIG    1       -6.405  -8.433   0.394  0.00  0.00    +0.139 C 
ATOM     21  S   LIG    1       -6.757  -6.816   0.834  0.00  0.00    -0.018 S 
BRANCH  20  22
ATOM     22  N   LIG    1       -7.253  -9.424   0.735  0.00  0.00    -0.297 N 
ATOM     23  H   LIG    1       -7.014 -10.348   0.560  0.00  0.00    +0.154 HD
BRANCH  22  24
ATOM     24  C   LIG    1       -8.475  -9.120   1.343  0.00  0.00    +0.033 A 
ATOM     25  C   LIG    1       -9.226  -8.041   0.894  0.00  0.00    +0.023 A 
ATOM     26  C   LIG    1      -10.433  -7.744   1.496  0.00  0.00    +0.002 A 
ATOM     27  C   LIG    1      -10.894  -8.519   2.544  0.00  0.00    +0.000 A 
ATOM     28  C   LIG    1      -10.149  -9.595   2.993  0.00  0.00    +0.002 A 
ATOM     29  C   LIG    1       -8.945  -9.901   2.391  0.00  0.00    +0.023 A 
ENDBRANCH  22  24
ENDBRANCH  20  22
ENDBRANCH  18  20
ENDBRANCH   4  18
TORSDOF 7
