REMARK  Name = ZINC05386873
REMARK                            x       y       z     vdW  Elec       q    Type
REMARK                         _______ _______ _______ _____ _____    ______ ____
ROOT
ATOM      1  C   LIG    1       -0.043   1.256   2.593  0.00  0.00    +0.066 C 
ATOM      2  N   LIG    1       -0.299   0.040   3.150  0.00  0.00    -0.286 NA
ATOM      3  H   LIG    1       -1.078  -0.501   2.834  0.00  0.00    +0.125 HD
ATOM      4  C   LIG    1        0.565  -0.352   4.130  0.00  0.00    +0.193 C 
ATOM      5  N   LIG    1        1.592   0.366   4.561  0.00  0.00    -0.273 NA
ATOM      6  H   LIG    1        1.446   0.514   5.559  0.00  0.00    +0.126 HD
ATOM      7  C   LIG    1        1.856   1.557   4.036  0.00  0.00    +0.130 C 
ATOM      8  C   LIG    1        1.025   2.047   3.012  0.00  0.00    +0.067 C 
ENDROOT
BRANCH   8   9
ATOM      9  C   LIG    1        1.278   3.372   2.394  0.00  0.00    -0.037 A 
ATOM     10  C   LIG    1        1.710   3.454   1.070  0.00  0.00    +0.005 A 
ATOM     11  C   LIG    1        1.943   4.685   0.491  0.00  0.00    +0.023 A 
ATOM     12  C   LIG    1        1.759   5.844   1.221  0.00  0.00    +0.082 A 
ATOM     13 CL   LIG    1        2.061   7.388   0.486  0.00  0.00    -0.080 Cl
ATOM     14  C   LIG    1        1.332   5.775   2.550  0.00  0.00    +0.175 A 
ATOM     15  C   LIG    1        1.091   4.533   3.136  0.00  0.00    +0.049 A 
BRANCH  14  16
ATOM     16  N   LIG    1        1.152   6.911   3.266  0.00  0.00    -0.213 NA
ATOM     17  N   LIG    1        1.014   7.778   3.812  0.00  0.00    -0.037 NA
ENDBRANCH  14  16
ENDBRANCH   8   9
BRANCH   4  18
ATOM     18  N   LIG    1        0.323  -1.587   4.703  0.00  0.00    -0.303 NA
ATOM     19  H   LIG    1       -0.425  -2.124   4.399  0.00  0.00    +0.121 HD
ATOM     20  H   LIG    1        0.901  -1.917   5.408  0.00  0.00    +0.121 HD
ENDBRANCH   4  18
BRANCH   7  21
ATOM     21  N   LIG    1        2.930   2.303   4.488  0.00  0.00    -0.315 NA
ATOM     22  H   LIG    1        3.497   1.957   5.194  0.00  0.00    +0.120 HD
ATOM     23  H   LIG    1        3.115   3.172   4.099  0.00  0.00    +0.120 HD
ENDBRANCH   7  21
BRANCH   1  25
ATOM     24  C   LIG    1       -2.104   2.549   2.114  0.00  0.00    +0.005 C 
ATOM     25  C   LIG    1       -0.964   1.733   1.500  0.00  0.00    +0.016 C 
ENDBRANCH   1  25
TORSDOF 5
