REMARK  Name = ZINC05618522
REMARK                            x       y       z     vdW  Elec       q    Type
REMARK                         _______ _______ _______ _____ _____    ______ ____
ROOT
ATOM      1  C   LIG    1        3.611   6.156   0.129  0.00  0.00    +0.100 C 
ENDROOT
BRANCH   1   8
ATOM      2  C   LIG    1        4.126  -0.060   0.422  0.00  0.00    +0.001 A 
ATOM      3  C   LIG    1        5.159  -0.055   1.349  0.00  0.00    +0.004 A 
ATOM      4  C   LIG    1        5.668   1.133   1.828  0.00  0.00    +0.047 A 
ATOM      5  C   LIG    1        5.139   2.341   1.389  0.00  0.00    +0.143 A 
ATOM      6  C   LIG    1        4.092   2.334   0.456  0.00  0.00    +0.065 A 
ATOM      7  C   LIG    1        3.545   3.630   0.003  0.00  0.00    +0.200 A 
ATOM      8  C   LIG    1        4.119   4.800   0.545  0.00  0.00    +0.092 A 
ATOM      9  C   LIG    1        5.131   4.695   1.445  0.00  0.00    +0.292 A 
ATOM     10  O   LIG    1        2.635   3.686  -0.807  0.00  0.00    -0.287 OA
ATOM     11  O   LIG    1        5.620   3.515   1.848  0.00  0.00    -0.425 OA
ATOM     12  C   LIG    1        3.588   1.127  -0.025  0.00  0.00    +0.015 A 
BRANCH   9  13
ATOM     13  O   LIG    1        5.667   5.826   1.952  0.00  0.00    -0.480 OA
ATOM     14  H   LIG    1        6.488   5.766   2.682  0.00  0.00    +0.295 HD
ENDBRANCH   9  13
ENDBRANCH   1   8
BRANCH   1  15
ATOM     15  C   LIG    1        2.537   6.605   1.087  0.00  0.00    +0.092 A 
ATOM     16  C   LIG    1        1.455   5.753   1.391  0.00  0.00    +0.200 A 
ATOM     17  C   LIG    1        0.439   6.257   2.337  0.00  0.00    +0.065 A 
ATOM     18  C   LIG    1       -0.664   5.485   2.697  0.00  0.00    +0.015 A 
ATOM     19  C   LIG    1       -1.589   5.993   3.584  0.00  0.00    +0.001 A 
ATOM     20  C   LIG    1       -1.424   7.264   4.115  0.00  0.00    +0.004 A 
ATOM     21  C   LIG    1       -0.337   8.036   3.766  0.00  0.00    +0.047 A 
ATOM     22  C   LIG    1        0.607   7.543   2.874  0.00  0.00    +0.143 A 
ATOM     23  O   LIG    1        1.679   8.282   2.519  0.00  0.00    -0.425 OA
ATOM     24  O   LIG    1        1.362   4.643   0.892  0.00  0.00    -0.287 OA
ATOM     25  C   LIG    1        2.608   7.832   1.666  0.00  0.00    +0.292 A 
BRANCH  25  26
ATOM     26  O   LIG    1        3.653   8.631   1.366  0.00  0.00    -0.480 OA
ATOM     27  H   LIG    1        3.732   9.629   1.823  0.00  0.00    +0.295 HD
ENDBRANCH  25  26
ENDBRANCH   1  15
BRANCH   1  28
ATOM     28  C   LIG    1        3.040   6.074  -1.263  0.00  0.00    -0.035 A 
ATOM     29  C   LIG    1        1.671   6.091  -1.451  0.00  0.00    +0.006 A 
ATOM     30  C   LIG    1        1.147   6.022  -2.728  0.00  0.00    +0.020 A 
ATOM     31  C   LIG    1        1.993   5.922  -3.818  0.00  0.00    +0.041 A 
ATOM     32 CL   LIG    1        1.336   5.828  -5.422  0.00  0.00    -0.084 Cl
ATOM     33  C   LIG    1        3.363   5.898  -3.629  0.00  0.00    +0.020 A 
ATOM     34  C   LIG    1        3.886   5.974  -2.352  0.00  0.00    +0.006 A 
ENDBRANCH   1  28
TORSDOF 5
