REMARK  Name = ZINC05423825
REMARK                            x       y       z     vdW  Elec       q    Type
REMARK                         _______ _______ _______ _____ _____    ______ ____
ROOT
ATOM      1  C   LIG    1       -0.018   1.461   0.010  0.00  0.00    +0.175 C 
ATOM      2  N   LIG    1        0.002  -0.004   0.002  0.00  0.00    -0.242 N 
ATOM      3  C   LIG    1       -1.168  -0.729   0.004  0.00  0.00    +0.185 A 
ATOM      4  S   LIG    1       -0.532  -2.399  -0.008  0.00  0.00    -0.009 S 
ATOM      5  C   LIG    1        1.207  -1.996  -0.015  0.00  0.00    +0.254 A 
ATOM      6  N   LIG    1       -2.410  -0.310   0.012  0.00  0.00    -0.276 NA
ATOM      7  H   LIG    1       -3.139  -0.950   0.013  0.00  0.00    +0.189 HD
ATOM      8  N   LIG    1        1.191  -0.697  -0.014  0.00  0.00    -0.141 NA
ENDROOT
BRANCH   5   9
ATOM      9  S   LIG    1        2.593  -3.084  -0.027  0.00  0.00    +0.081 S 
ATOM     10  O   LIG    1        3.751  -2.265  -0.120  0.00  0.00    -0.151 OA
ATOM     11  O   LIG    1        2.302  -4.102  -0.974  0.00  0.00    -0.151 OA
BRANCH   9  12
ATOM     12  N   LIG    1        2.651  -3.819   1.456  0.00  0.00    -0.202 NA
ATOM     13  H   LIG    1        3.351  -4.462   1.651  0.00  0.00    +0.144 HD
ATOM     14  H   LIG    1        1.986  -3.607   2.129  0.00  0.00    +0.144 HD
ENDBRANCH   9  12
ENDBRANCH   5   9
TORSDOF 2
