REMARK  Name = ZINC05782223
REMARK                            x       y       z     vdW  Elec       q    Type
REMARK                         _______ _______ _______ _____ _____    ______ ____
ROOT
ATOM      1  C   LIG    1       -1.468  -3.160   3.058  0.00  0.00    +0.393 C 
ATOM      2  N   LIG    1       -1.620  -3.906   4.115  0.00  0.00    -0.129 NA
ATOM      3  H   LIG    1       -1.054  -4.682   4.247  0.00  0.00    +0.306 HD
ENDROOT
BRANCH   1   4
ATOM      4  N   LIG    1       -0.576  -3.530   2.078  0.00  0.00    -0.243 N 
ATOM      5  H   LIG    1       -0.133  -4.392   2.125  0.00  0.00    +0.265 HD
BRANCH   4  11
ATOM      6  C   LIG    1        0.056   1.048   0.402  0.00  0.00    +0.044 C 
ATOM      7  C   LIG    1        0.004  -0.440   0.172  0.00  0.00    -0.047 A 
ATOM      8  C   LIG    1        0.220  -0.951  -1.095  0.00  0.00    +0.003 A 
ATOM      9  C   LIG    1        0.172  -2.316  -1.311  0.00  0.00    +0.004 A 
ATOM     10  C   LIG    1       -0.091  -3.174  -0.261  0.00  0.00    +0.042 A 
ATOM     11  C   LIG    1       -0.308  -2.664   1.012  0.00  0.00    +0.100 A 
ATOM     12  C   LIG    1       -0.254  -1.293   1.227  0.00  0.00    +0.045 A 
ENDBRANCH   4  11
ENDBRANCH   1   4
BRANCH   1  13
ATOM     13  N   LIG    1       -2.200  -1.999   2.922  0.00  0.00    -0.186 N 
ATOM     14  H   LIG    1       -2.149  -1.488   2.099  0.00  0.00    +0.271 HD
BRANCH  13  15
ATOM     15  C   LIG    1       -3.004  -1.565   3.955  0.00  0.00    +0.385 C 
ATOM     16  N   LIG    1       -3.826  -0.572   3.768  0.00  0.00    -0.129 NA
ATOM     17  H   LIG    1       -3.872  -0.137   2.902  0.00  0.00    +0.306 HD
BRANCH  15  18
ATOM     18  N   LIG    1       -2.938  -2.181   5.182  0.00  0.00    -0.289 N 
ATOM     19  H   LIG    1       -3.693  -2.135   5.789  0.00  0.00    +0.255 HD
ATOM     20  H   LIG    1       -2.137  -2.662   5.441  0.00  0.00    +0.255 HD
ENDBRANCH  15  18
ENDBRANCH  13  15
ENDBRANCH   1  13
TORSDOF 5
