REMARK  Name = ZINC04810192
REMARK                            x       y       z     vdW  Elec       q    Type
REMARK                         _______ _______ _______ _____ _____    ______ ____
ROOT
ATOM      1  C   LIG    1       -2.497  -0.370  -2.047  0.00  0.00    +0.006 A 
ATOM      2  C   LIG    1       -2.873  -0.638  -3.349  0.00  0.00    +0.015 A 
ATOM      3  C   LIG    1       -2.339  -1.729  -4.013  0.00  0.00    +0.018 A 
ATOM      4 BR   LIG    1       -2.858  -2.100  -5.793  0.00  0.00    -0.050 Br
ATOM      5  C   LIG    1       -1.425  -2.547  -3.373  0.00  0.00    +0.015 A 
ATOM      6  C   LIG    1       -1.045  -2.275  -2.073  0.00  0.00    +0.006 A 
ATOM      7  C   LIG    1       -1.579  -1.185  -1.410  0.00  0.00    -0.028 A 
ENDROOT
BRANCH   7   8
ATOM      8  C   LIG    1       -1.165  -0.889   0.008  0.00  0.00    +0.157 C 
BRANCH   8   9
ATOM      9  N   LIG    1        0.002  -0.004   0.002  0.00  0.00    -0.334 N 
ATOM     10  C   LIG    1       -0.017   1.365   0.009  0.00  0.00    +0.105 A 
ATOM     11  C   LIG    1        1.267   1.772  -0.001  0.00  0.00    +0.101 A 
ATOM     12  N   LIG    1        2.047   0.681  -0.014  0.00  0.00    -0.352 N 
ATOM     13  H   LIG    1        3.074   0.686  -0.024  0.00  0.00    +0.166 HD
ATOM     14  C   LIG    1        1.297  -0.386  -0.012  0.00  0.00    +0.174 A 
ENDBRANCH   8   9
ENDBRANCH   7   8
TORSDOF 2
