REMARK  Name = ZINC04810590
REMARK                            x       y       z     vdW  Elec       q    Type
REMARK                         _______ _______ _______ _____ _____    ______ ____
ROOT
ATOM      1  C   LIG    1        4.164  -0.959   1.377  0.00  0.00    -0.043 A 
ATOM      2  C   LIG    1        4.952  -0.027   2.026  0.00  0.00    +0.007 A 
ATOM      3  C   LIG    1        5.369  -0.256   3.323  0.00  0.00    +0.046 A 
ATOM      4  C   LIG    1        4.997  -1.423   3.974  0.00  0.00    +0.121 A 
ATOM      5  C   LIG    1        4.206  -2.357   3.321  0.00  0.00    +0.046 A 
ATOM      6  C   LIG    1        3.787  -2.121   2.026  0.00  0.00    +0.007 A 
ENDROOT
BRANCH   1   7
ATOM      7  C   LIG    1        3.711  -0.707  -0.038  0.00  0.00    +0.070 C 
BRANCH   7  11
ATOM      8  C   LIG    1       -0.017   1.378   0.010  0.00  0.00    +0.000 A 
ATOM      9  C   LIG    1        1.171   2.086   0.002  0.00  0.00    +0.000 A 
ATOM     10  C   LIG    1        2.377   1.411  -0.013  0.00  0.00    +0.004 A 
ATOM     11  C   LIG    1        2.396   0.029  -0.020  0.00  0.00    -0.043 A 
ATOM     12  C   LIG    1        1.208  -0.679  -0.012  0.00  0.00    +0.004 A 
ATOM     13  C   LIG    1        0.002  -0.004   0.002  0.00  0.00    +0.000 A 
ENDBRANCH   7  11
ENDBRANCH   1   7
BRANCH   4  14
ATOM     14  O   LIG    1        5.406  -1.651   5.250  0.00  0.00    -0.490 OA
BRANCH  14  15
ATOM     15  C   LIG    1        4.985  -2.873   5.858  0.00  0.00    +0.250 C 
BRANCH  15  16
ATOM     16  C   LIG    1        5.539  -2.952   7.282  0.00  0.00    +0.163 C 
BRANCH  16  17
ATOM     17  N   LIG    1        5.107  -4.206   7.905  0.00  0.00    -0.335 N 
ATOM     18  C   LIG    1        3.960  -4.401   8.626  0.00  0.00    +0.104 A 
ATOM     19  C   LIG    1        3.957  -5.691   9.011  0.00  0.00    +0.101 A 
ATOM     20  N   LIG    1        5.072  -6.268   8.539  0.00  0.00    -0.352 N 
ATOM     21  H   LIG    1        5.323  -7.196   8.670  0.00  0.00    +0.166 HD
ATOM     22  C   LIG    1        5.763  -5.386   7.872  0.00  0.00    +0.173 A 
ENDBRANCH  16  17
ENDBRANCH  15  16
ENDBRANCH  14  15
ENDBRANCH   4  14
TORSDOF 6
