REMARK  Name = ZINC05134197
REMARK                            x       y       z     vdW  Elec       q    Type
REMARK                         _______ _______ _______ _____ _____    ______ ____
ROOT
ATOM      1  C   LIG    1        0.939   1.847  -0.199  0.00  0.00    -0.016 C 
ATOM      2  C   LIG    1       -0.442   1.178  -0.397  0.00  0.00    -0.079 C 
ATOM      3  N   LIG    1       -0.090  -0.244  -0.327  0.00  0.00    +0.380 N 
ATOM      4  H   LIG    1       -0.915  -0.822  -0.127  0.00  0.00    -0.082 HD
ATOM      5  C   LIG    1        0.546  -0.643  -1.582  0.00  0.00    -0.066 C 
ATOM      6  C   LIG    1        1.957  -0.031  -1.420  0.00  0.00    +0.063 C 
ATOM      7  C   LIG    1        0.914  -0.367   0.704  0.00  0.00    -0.075 C 
ATOM      8  C   LIG    1        1.900   0.630  -0.006  0.00  0.00    -0.019 C 
ENDROOT
BRANCH   6   9
ATOM      9  C   LIG    1        2.211   1.007  -2.483  0.00  0.00    +0.230 A 
ATOM     10  N   LIG    1        3.366   1.293  -3.032  0.00  0.00    -0.178 NA
ATOM     11  C   LIG    1        3.111   2.275  -3.924  0.00  0.00    +0.253 A 
ATOM     12  N   LIG    1        1.832   2.532  -3.860  0.00  0.00    -0.040 NA
ATOM     13  O   LIG    1        1.302   1.814  -3.039  0.00  0.00    -0.336 OA
BRANCH  11  14
ATOM     14  N   LIG    1        4.037   2.898  -4.750  0.00  0.00    -0.325 N 
ATOM     15  H   LIG    1        4.969   2.632  -4.720  0.00  0.00    +0.145 HD
ATOM     16  H   LIG    1        3.751   3.599  -5.356  0.00  0.00    +0.145 HD
ENDBRANCH  11  14
ENDBRANCH   6   9
TORSDOF 2
