REMARK  Name = ZINC05764424
REMARK                            x       y       z     vdW  Elec       q    Type
REMARK                         _______ _______ _______ _____ _____    ______ ____
ROOT
ATOM      1  C   LIG    1        0.633   3.642   1.042  0.00  0.00    +0.014 C 
ATOM      2  C   LIG    1       -0.782   3.089   1.224  0.00  0.00    -0.003 C 
ATOM      3  C   LIG    1       -0.718   1.579   1.326  0.00  0.00    +0.010 C 
ATOM      4  C   LIG    1        0.007   1.056   0.071  0.00  0.00    +0.009 C 
ATOM      5  C   LIG    1       -0.706   1.518  -1.191  0.00  0.00    +0.023 C 
ATOM      6  C   LIG    1       -0.026   1.023  -2.434  0.00  0.00    -0.040 A 
ATOM      7  C   LIG    1        0.575  -0.228  -2.398  0.00  0.00    +0.022 A 
ATOM      8  C   LIG    1        1.204  -0.736  -3.516  0.00  0.00    +0.055 A 
ATOM      9  I   LIG    1        2.106  -2.626  -3.447  0.00  0.00    -0.040 I 
ATOM     10  C   LIG    1        1.236   0.010  -4.685  0.00  0.00    +0.130 A 
ATOM     11  C   LIG    1        0.641   1.259  -4.718  0.00  0.00    +0.050 A 
ATOM     12  C   LIG    1        0.012   1.772  -3.591  0.00  0.00    -0.040 A 
ATOM     13  C   LIG    1       -0.594   3.147  -3.695  0.00  0.00    +0.036 C 
ATOM     14  C   LIG    1       -1.550   3.420  -2.535  0.00  0.00    +0.009 C 
ATOM     15  C   LIG    1       -0.841   3.046  -1.233  0.00  0.00    +0.000 C 
ATOM     16  C   LIG    1       -1.478   3.826   2.363  0.00  0.00    +0.121 C 
ATOM     17  C   LIG    1       -2.129   5.070   1.708  0.00  0.00    +0.032 C 
ATOM     18  C   LIG    1       -1.855   4.956   0.183  0.00  0.00    +0.007 C 
ATOM     19  C   LIG    1       -1.647   3.451  -0.016  0.00  0.00    +0.001 C 
ENDROOT
BRANCH  10  20
ATOM     20  O   LIG    1        1.849  -0.484  -5.794  0.00  0.00    -0.506 OA
ATOM     21  H   LIG    1        1.265  -0.995  -6.371  0.00  0.00    +0.292 HD
ENDBRANCH  10  20
BRANCH  16  22
ATOM     22  O   LIG    1       -0.523   4.228   3.348  0.00  0.00    -0.391 OA
ATOM     23  H   LIG    1       -0.908   4.702   4.098  0.00  0.00    +0.210 HD
ENDBRANCH  16  22
TORSDOF 2
