REMARK  Name = ZINC05322871
REMARK                            x       y       z     vdW  Elec       q    Type
REMARK                         _______ _______ _______ _____ _____    ______ ____
ROOT
ATOM      1  C   LIG    1       -2.186  -3.070   0.006  0.00  0.00    +0.130 A 
ATOM      2  C   LIG    1       -2.185  -4.456  -0.007  0.00  0.00    +0.050 A 
ATOM      3  C   LIG    1       -3.521  -4.860   0.009  0.00  0.00    +0.050 A 
ATOM      4  C   LIG    1       -4.288  -3.716   0.022  0.00  0.00    +0.136 A 
ATOM      5  O   LIG    1       -3.469  -2.649   0.021  0.00  0.00    -0.455 OA
ENDROOT
BRANCH   4   6
ATOM      6  C   LIG    1       -5.763  -3.668   0.036  0.00  0.00    +0.018 A 
ATOM      7  C   LIG    1       -6.502  -4.858   0.037  0.00  0.00    +0.015 A 
ATOM      8  C   LIG    1       -7.878  -4.819   0.051  0.00  0.00    +0.047 A 
ATOM      9  C   LIG    1       -8.544  -3.600   0.064  0.00  0.00    +0.131 A 
ATOM     10  C   LIG    1       -7.814  -2.401   0.064  0.00  0.00    +0.101 A 
ATOM     11  C   LIG    1       -6.420  -2.440   0.055  0.00  0.00    +0.030 A 
BRANCH   9  12
ATOM     12  O   LIG    1       -9.899  -3.568   0.079  0.00  0.00    -0.506 OA
ATOM     13  H   LIG    1      -10.283  -3.564   0.966  0.00  0.00    +0.292 HD
ENDBRANCH   9  12
BRANCH  10  14
ATOM     14  C   LIG    1       -8.518  -1.106   0.078  0.00  0.00    +0.340 C 
ATOM     15  O   LIG    1       -9.733  -1.075   0.090  0.00  0.00    -0.245 OA
BRANCH  14  16
ATOM     16  O   LIG    1       -7.815   0.043   0.077  0.00  0.00    -0.477 OA
ATOM     17  H   LIG    1       -6.878   0.019   0.067  0.00  0.00    +0.295 HD
ENDBRANCH  14  16
ENDBRANCH  10  14
ENDBRANCH   4   6
BRANCH   1  19
ATOM     18  C   LIG    1       -1.190  -0.868   0.009  0.00  0.00    +0.097 C 
ATOM     19  C   LIG    1       -1.047  -2.245   0.000  0.00  0.00    +0.068 C 
BRANCH  18  27
ATOM     20  C   LIG    1        5.565   2.104  -0.042  0.00  0.00    +0.044 C 
ATOM     21  C   LIG    1        4.063   1.984  -0.027  0.00  0.00    -0.048 A 
ATOM     22  C   LIG    1        3.283   3.131  -0.013  0.00  0.00    +0.005 A 
ATOM     23  C   LIG    1        1.906   3.040  -0.000  0.00  0.00    +0.028 A 
ATOM     24  C   LIG    1        1.299   1.793  -0.001  0.00  0.00    +0.066 A 
ATOM     25  C   LIG    1        2.089   0.630  -0.015  0.00  0.00    +0.090 A 
ATOM     26  N   LIG    1        1.245  -0.430  -0.012  0.00  0.00    -0.227 NA
ATOM     27  C   LIG    1        0.002  -0.004   0.002  0.00  0.00    +0.150 A 
ATOM     28  N   LIG    1       -0.017   1.367   0.010  0.00  0.00    -0.337 N 
ATOM     29  H   LIG    1       -0.829   1.950   0.021  0.00  0.00    +0.167 HD
ATOM     30  C   LIG    1        3.483   0.747  -0.027  0.00  0.00    +0.033 A 
ENDBRANCH  18  27
BRANCH  18  31
ATOM     31  C   LIG    1       -2.497  -0.284   0.024  0.00  0.00    +0.103 C 
ATOM     32  N   LIG    1       -3.534   0.179   0.037  0.00  0.00    -0.191 NA
ENDBRANCH  18  31
ENDBRANCH   1  19
TORSDOF 7
