REMARK  Name = ZINC04962613
REMARK                            x       y       z     vdW  Elec       q    Type
REMARK                         _______ _______ _______ _____ _____    ______ ____
ROOT
ATOM      1  N   LIG    1        3.645  -2.065   0.056  0.00  0.00    -0.181 NA
ATOM      2  C   LIG    1        4.777  -2.684  -0.159  0.00  0.00    +0.103 C 
ENDROOT
BRANCH   2   3
ATOM      3  C   LIG    1        4.790  -4.149  -0.370  0.00  0.00    +0.044 A 
ATOM      4  C   LIG    1        5.985  -4.802  -0.673  0.00  0.00    +0.014 A 
ATOM      5  C   LIG    1        5.992  -6.168  -0.868  0.00  0.00    +0.001 A 
ATOM      6  C   LIG    1        4.817  -6.893  -0.764  0.00  0.00    +0.004 A 
ATOM      7  C   LIG    1        3.628  -6.256  -0.464  0.00  0.00    +0.046 A 
ATOM      8  C   LIG    1        3.606  -4.886  -0.260  0.00  0.00    +0.126 A 
BRANCH   8   9
ATOM      9  O   LIG    1        2.438  -4.260   0.040  0.00  0.00    -0.506 OA
ATOM     10  H   LIG    1        1.944  -3.957  -0.734  0.00  0.00    +0.292 HD
ENDBRANCH   8   9
ENDBRANCH   2   3
BRANCH   2  11
ATOM     11  C   LIG    1        6.043  -1.920  -0.193  0.00  0.00    +0.044 A 
ATOM     12  C   LIG    1        6.517  -1.298   0.962  0.00  0.00    +0.014 A 
ATOM     13  C   LIG    1        7.699  -0.587   0.925  0.00  0.00    +0.001 A 
ATOM     14  C   LIG    1        8.417  -0.488  -0.255  0.00  0.00    +0.004 A 
ATOM     15  C   LIG    1        7.957  -1.100  -1.405  0.00  0.00    +0.046 A 
ATOM     16  C   LIG    1        6.775  -1.823  -1.382  0.00  0.00    +0.126 A 
BRANCH  16  17
ATOM     17  O   LIG    1        6.325  -2.430  -2.511  0.00  0.00    -0.506 OA
ATOM     18  H   LIG    1        5.811  -1.851  -3.091  0.00  0.00    +0.292 HD
ENDBRANCH  16  17
ENDBRANCH   2  11
BRANCH   1  19
ATOM     19  N   LIG    1        3.615  -0.667   0.130  0.00  0.00    -0.237 N 
ATOM     20  H   LIG    1        4.442  -0.161   0.091  0.00  0.00    +0.174 HD
BRANCH  19  24
ATOM     21  C   LIG    1       -0.022   1.318   0.514  0.00  0.00    +0.000 A 
ATOM     22  C   LIG    1        1.155   2.041   0.460  0.00  0.00    +0.002 A 
ATOM     23  C   LIG    1        2.364   1.386   0.332  0.00  0.00    +0.025 A 
ATOM     24  C   LIG    1        2.396  -0.002   0.259  0.00  0.00    +0.048 A 
ATOM     25  C   LIG    1        1.210  -0.725   0.315  0.00  0.00    +0.025 A 
ATOM     26  C   LIG    1        0.005  -0.062   0.442  0.00  0.00    +0.002 A 
ENDBRANCH  19  24
ENDBRANCH   1  19
TORSDOF 6
