REMARK  Name = ZINC05682238
REMARK                            x       y       z     vdW  Elec       q    Type
REMARK                         _______ _______ _______ _____ _____    ______ ____
ROOT
ATOM      1  C   LIG    1       -0.729   1.579   1.267  0.00  0.00    -0.027 C 
ATOM      2  C   LIG    1       -2.117   0.940   1.205  0.00  0.00    -0.012 C 
ATOM      3  C   LIG    1       -2.857   1.446  -0.035  0.00  0.00    -0.001 C 
ATOM      4  C   LIG    1       -2.066   1.071  -1.290  0.00  0.00    +0.003 C 
ATOM      5  C   LIG    1       -0.678   1.711  -1.228  0.00  0.00    +0.043 C 
ATOM      6  C   LIG    1        0.062   1.204   0.012  0.00  0.00    +0.163 C 
ENDROOT
BRANCH   1  10
ATOM      7  C   LIG    1        0.336  -0.387   4.911  0.00  0.00    +0.016 C 
ATOM      8  C   LIG    1        0.993  -0.824   3.599  0.00  0.00    -0.011 C 
ATOM      9  C   LIG    1        0.125  -0.368   2.423  0.00  0.00    -0.078 C 
ATOM     10  N   LIG    1        0.009   1.105   2.456  0.00  0.00    +0.384 N 
ATOM     11  H   LIG    1        0.951   1.514   2.449  0.00  0.00    -0.081 HD
ATOM     12  C   LIG    1       -0.690   1.532   3.687  0.00  0.00    -0.078 C 
ATOM     13  C   LIG    1        0.154   1.133   4.900  0.00  0.00    -0.011 C 
BRANCH   7  17
ATOM     14  C   LIG    1        2.829  -1.503   8.196  0.00  0.00    +0.000 A 
ATOM     15  C   LIG    1        1.541  -1.998   8.106  0.00  0.00    +0.000 A 
ATOM     16  C   LIG    1        0.735  -1.637   7.043  0.00  0.00    +0.004 A 
ATOM     17  C   LIG    1        1.215  -0.781   6.070  0.00  0.00    -0.044 A 
ATOM     18  C   LIG    1        2.504  -0.289   6.157  0.00  0.00    +0.004 A 
ATOM     19  C   LIG    1        3.309  -0.647   7.223  0.00  0.00    +0.000 A 
ENDBRANCH   7  17
ENDBRANCH   1  10
BRANCH   6  20
ATOM     20  O   LIG    1        1.380   1.812   0.071  0.00  0.00    -0.459 OA
BRANCH  20  21
ATOM     21  C   LIG    1        2.383   1.156  -0.544  0.00  0.00    +0.339 C 
ATOM     22  O   LIG    1        2.163   0.106  -1.115  0.00  0.00    -0.245 OA
BRANCH  21  23
ATOM     23  C   LIG    1        3.751   1.714  -0.526  0.00  0.00    +0.059 A 
ATOM     24  C   LIG    1        4.006   2.924   0.124  0.00  0.00    +0.015 A 
ATOM     25  C   LIG    1        5.286   3.437   0.142  0.00  0.00    +0.001 A 
ATOM     26  C   LIG    1        6.314   2.761  -0.491  0.00  0.00    +0.000 A 
ATOM     27  C   LIG    1        6.068   1.565  -1.141  0.00  0.00    +0.001 A 
ATOM     28  C   LIG    1        4.793   1.038  -1.163  0.00  0.00    +0.015 A 
ENDBRANCH  21  23
ENDBRANCH  20  21
ENDBRANCH   6  20
TORSDOF 5
