REMARK  Name = ZINC05113920
REMARK                            x       y       z     vdW  Elec       q    Type
REMARK                         _______ _______ _______ _____ _____    ______ ____
ROOT
ATOM      1  C   LIG    1       -0.018   1.465   0.010  0.00  0.00    +0.057 C 
ENDROOT
BRANCH   1   2
ATOM      2  N   LIG    1        0.015  -0.008  -0.019  0.00  0.00    +0.391 N 
ATOM      3  H   LIG    1        0.528  -0.318  -0.853  0.00  0.00    -0.088 HD
ATOM      4  H   LIG    1       -0.933  -0.378  -0.056  0.00  0.00    -0.088 HD
ATOM      5  H   LIG    1        0.486  -0.364   0.811  0.00  0.00    -0.088 HD
ENDBRANCH   1   2
BRANCH   1   6
ATOM      6  C   LIG    1        1.396   1.986  -0.001  0.00  0.00    +0.296 C 
ATOM      7  O   LIG    1        1.672   2.996   0.602  0.00  0.00    -0.253 OA
BRANCH   6   8
ATOM      8  O   LIG    1        2.349   1.329  -0.680  0.00  0.00    -0.482 OA
ATOM      9  H   LIG    1        2.135   0.546  -1.148  0.00  0.00    +0.295 HD
ENDBRANCH   6   8
ENDBRANCH   1   6
BRANCH   1  10
ATOM     10  C   LIG    1       -0.758   1.972  -1.229  0.00  0.00    +0.211 C 
ATOM     11  F   LIG    1       -0.777   3.370  -1.222  0.00  0.00    -0.250 F 
ENDBRANCH   1  10
BRANCH   1  12
ATOM     12  C   LIG    1       -0.734   1.958   1.269  0.00  0.00    -0.001 C 
BRANCH  12  13
ATOM     13  C   LIG    1       -2.127   1.329   1.343  0.00  0.00    -0.020 C 
BRANCH  13  14
ATOM     14  C   LIG    1       -2.843   1.822   2.602  0.00  0.00    -0.086 C 
BRANCH  14  15
ATOM     15  N   LIG    1       -4.190   1.227   2.652  0.00  0.00    +0.378 N 
ATOM     16  H   LIG    1       -4.725   1.535   1.832  0.00  0.00    -0.090 HD
ATOM     17  H   LIG    1       -4.673   1.528   3.497  0.00  0.00    -0.090 HD
ATOM     18  H   LIG    1       -4.123   0.211   2.644  0.00  0.00    -0.090 HD
ENDBRANCH  14  15
ENDBRANCH  13  14
ENDBRANCH  12  13
ENDBRANCH   1  12
TORSDOF 8
