REMARK  Name = ZINC05425419
REMARK                            x       y       z     vdW  Elec       q    Type
REMARK                         _______ _______ _______ _____ _____    ______ ____
ROOT
ATOM      1  C   LIG    1       -5.443   3.291   0.045  0.00  0.00    +0.022 A 
ATOM      2  C   LIG    1       -4.775   2.083   0.036  0.00  0.00    +0.029 A 
ATOM      3  C   LIG    1       -3.389   2.061   0.029  0.00  0.00    +0.068 A 
ATOM      4  C   LIG    1       -2.668   3.266   0.032  0.00  0.00    +0.092 A 
ATOM      5  N   LIG    1       -1.348   2.942   0.030  0.00  0.00    -0.215 NA
ATOM      6  C   LIG    1       -1.214   1.639   0.017  0.00  0.00    +0.191 A 
ATOM      7  C   LIG    1       -3.357   4.480   0.042  0.00  0.00    +0.050 A 
ATOM      8  N   LIG    1       -2.445   1.046   0.019  0.00  0.00    -0.326 N 
ATOM      9  H   LIG    1       -2.767  -0.005   0.015  0.00  0.00    +0.169 HD
ATOM     10  C   LIG    1       -4.736   4.484   0.049  0.00  0.00    +0.043 A 
ATOM     11 CL   LIG    1       -5.593   5.994   0.061  0.00  0.00    -0.083 Cl
ENDROOT
BRANCH   6  12
ATOM     12  N   LIG    1       -0.011   0.966   0.007  0.00  0.00    -0.329 N 
ATOM     13  H   LIG    1        0.934   1.529   0.011  0.00  0.00    +0.145 HD
ATOM     14  H   LIG    1        0.004  -0.134  -0.004  0.00  0.00    +0.145 HD
ENDBRANCH   6  12
TORSDOF 1
