REMARK  Name = ZINC05426668
REMARK                            x       y       z     vdW  Elec       q    Type
REMARK                         _______ _______ _______ _____ _____    ______ ____
ROOT
ATOM      1  N   LIG    1        0.018   5.600   0.031  0.00  0.00    -0.199 N 
ATOM      2  H   LIG    1        0.852   6.095   0.025  0.00  0.00    +0.178 HD
ATOM      3  C   LIG    1       -1.157   6.260   0.045  0.00  0.00    +0.320 C 
ATOM      4  O   LIG    1       -2.202   5.640   0.051  0.00  0.00    -0.263 OA
ENDROOT
BRANCH   3   5
ATOM      5  C   LIG    1       -1.175   7.749   0.053  0.00  0.00    +0.320 C 
ATOM      6  N   LIG    1       -2.350   8.409   0.067  0.00  0.00    -0.199 N 
ATOM      7  H   LIG    1       -3.184   7.914   0.072  0.00  0.00    +0.178 HD
ATOM      8  O   LIG    1       -0.130   8.369   0.046  0.00  0.00    -0.263 OA
BRANCH   6   9
ATOM      9  N   LIG    1       -2.367   9.810   0.074  0.00  0.00    -0.187 NA
ATOM     10  C   LIG    1       -3.499  10.446   0.088  0.00  0.00    +0.138 C 
BRANCH  10  11
ATOM     11  C   LIG    1       -3.517  11.919   0.096  0.00  0.00    -0.002 A 
ATOM     12  C   LIG    1       -4.734  12.606   0.116  0.00  0.00    +0.058 A 
ATOM     13  C   LIG    1       -4.745  13.987   0.124  0.00  0.00    +0.159 A 
ATOM     14  C   LIG    1       -3.543  14.694   0.110  0.00  0.00    +0.158 A 
ATOM     15  C   LIG    1       -2.335  14.013   0.089  0.00  0.00    +0.050 A 
ATOM     16  C   LIG    1       -2.316  12.634   0.088  0.00  0.00    +0.013 A 
BRANCH  13  17
ATOM     17  O   LIG    1       -5.928  14.658   0.144  0.00  0.00    -0.503 OA
ATOM     18  H   LIG    1       -6.257  14.848   1.033  0.00  0.00    +0.292 HD
ENDBRANCH  13  17
BRANCH  14  19
ATOM     19  O   LIG    1       -3.556  16.053   0.117  0.00  0.00    -0.503 OA
ATOM     20  H   LIG    1       -3.547  16.442   1.002  0.00  0.00    +0.292 HD
ENDBRANCH  14  19
ENDBRANCH  10  11
ENDBRANCH   6   9
ENDBRANCH   3   5
BRANCH   1  22
ATOM     21  C   LIG    1        1.167   3.563   0.010  0.00  0.00    +0.138 C 
ATOM     22  N   LIG    1        0.034   4.199   0.023  0.00  0.00    -0.187 NA
BRANCH  21  24
ATOM     23  C   LIG    1       -0.017   1.375   0.010  0.00  0.00    +0.013 A 
ATOM     24  C   LIG    1        1.184   2.090   0.002  0.00  0.00    -0.002 A 
ATOM     25  C   LIG    1        2.402   1.403  -0.013  0.00  0.00    +0.058 A 
ATOM     26  C   LIG    1        2.412   0.021  -0.021  0.00  0.00    +0.159 A 
ATOM     27  C   LIG    1        1.211  -0.685  -0.013  0.00  0.00    +0.158 A 
ATOM     28  C   LIG    1        0.002  -0.004   0.002  0.00  0.00    +0.050 A 
BRANCH  26  29
ATOM     29  O   LIG    1        3.595  -0.649  -0.036  0.00  0.00    -0.503 OA
ATOM     30  H   LIG    1        3.946  -0.848   0.843  0.00  0.00    +0.292 HD
ENDBRANCH  26  29
BRANCH  27  31
ATOM     31  O   LIG    1        1.223  -2.044  -0.021  0.00  0.00    -0.503 OA
ATOM     32  H   LIG    1        1.236  -2.442   0.861  0.00  0.00    +0.292 HD
ENDBRANCH  27  31
ENDBRANCH  21  24
ENDBRANCH   1  22
TORSDOF 9
