REMARK  Name = ZINC05161166
REMARK                            x       y       z     vdW  Elec       q    Type
REMARK                         _______ _______ _______ _____ _____    ______ ____
ROOT
ATOM      1  N   LIG    1       -0.069   5.244   0.030  0.00  0.00    -0.202 N 
ATOM      2  C   LIG    1       -0.091   6.010  -1.075  0.00  0.00    +0.258 C 
ATOM      3  C   LIG    1       -0.106   7.427  -0.667  0.00  0.00    +0.050 A 
ATOM      4  C   LIG    1       -0.130   8.632  -1.355  0.00  0.00    +0.015 A 
ATOM      5  C   LIG    1       -0.139   9.824  -0.656  0.00  0.00    +0.023 A 
ATOM      6  C   LIG    1       -0.125   9.824   0.735  0.00  0.00    +0.025 A 
ATOM      7  C   LIG    1       -0.101   8.619   1.438  0.00  0.00    +0.036 A 
ATOM      8  C   LIG    1       -0.091   7.423   0.745  0.00  0.00    +0.051 A 
ATOM      9  O   LIG    1       -0.097   5.602  -2.219  0.00  0.00    -0.269 OA
ATOM     10  C   LIG    1       -0.074   5.999   1.144  0.00  0.00    +0.258 C 
ATOM     11  O   LIG    1       -0.063   5.582   2.284  0.00  0.00    -0.269 OA
ENDROOT
BRANCH   1  19
ATOM     12  C   LIG    1        2.457   3.932   0.000  0.00  0.00    +0.046 C 
ATOM     13  C   LIG    1        1.161   3.163   0.008  0.00  0.00    -0.028 A 
ATOM     14  C   LIG    1        1.176   1.782   0.000  0.00  0.00    +0.005 A 
ATOM     15  C   LIG    1       -0.013   1.076   0.008  0.00  0.00    +0.001 A 
ATOM     16  C   LIG    1       -1.220   1.749   0.017  0.00  0.00    +0.005 A 
ATOM     17  C   LIG    1       -1.242   3.130   0.031  0.00  0.00    -0.028 A 
ATOM     18  C   LIG    1       -2.558   3.864   0.047  0.00  0.00    +0.046 C 
ATOM     19  C   LIG    1       -0.050   3.842   0.023  0.00  0.00    +0.050 A 
ENDBRANCH   1  19
BRANCH   6  20
ATOM     20  N   LIG    1       -0.135  11.030   1.427  0.00  0.00    -0.358 N 
ATOM     21  H   LIG    1       -0.125  11.032   2.397  0.00  0.00    +0.142 HD
ATOM     22  H   LIG    1       -0.151  11.868   0.941  0.00  0.00    +0.142 HD
ENDBRANCH   6  20
TORSDOF 2
