REMARK  Name = ZINC05842240
REMARK                            x       y       z     vdW  Elec       q    Type
REMARK                         _______ _______ _______ _____ _____    ______ ____
ROOT
ATOM      1  N   LIG    1       -0.020   1.094   2.454  0.00  0.00    -0.309 N 
ATOM      2  C   LIG    1       -0.364  -0.128   3.030  0.00  0.00    +0.159 A 
ATOM      3  C   LIG    1        0.563  -1.170   3.097  0.00  0.00    +0.087 A 
ATOM      4  N   LIG    1        1.831  -1.062   2.528  0.00  0.00    -0.308 N 
ATOM      5  C   LIG    1        2.349  -2.252   1.848  0.00  0.00    +0.152 C 
ATOM      6  C   LIG    1        2.616   0.005   2.539  0.00  0.00    +0.262 A 
ATOM      7  C   LIG    1        2.287   1.305   3.128  0.00  0.00    +0.082 A 
ATOM      8  C   LIG    1        3.276   2.051   3.779  0.00  0.00    +0.022 A 
ATOM      9  C   LIG    1        2.949   3.311   4.249  0.00  0.00    -0.026 A 
ATOM     10  C   LIG    1        1.667   3.794   4.064  0.00  0.00    +0.116 A 
ATOM     11  N   LIG    1        0.742   3.067   3.469  0.00  0.00    -0.237 NA
ATOM     12  O   LIG    1        3.707  -0.104   2.013  0.00  0.00    -0.267 OA
ATOM     13  C   LIG    1        0.205  -2.349   3.742  0.00  0.00    +0.031 A 
ATOM     14  C   LIG    1       -1.077  -2.459   4.262  0.00  0.00    +0.022 A 
ATOM     15  C   LIG    1       -1.954  -1.403   4.120  0.00  0.00    +0.113 A 
ATOM     16  N   LIG    1       -1.582  -0.289   3.519  0.00  0.00    -0.236 NA
ATOM     17  C   LIG    1        0.995   1.846   3.020  0.00  0.00    +0.147 A 
ENDROOT
BRANCH   1  19
ATOM     18  C   LIG    1       -0.013   1.086   0.008  0.00  0.00    +0.027 C 
ATOM     19  C   LIG    1       -0.729   1.579   1.267  0.00  0.00    +0.122 C 
ENDBRANCH   1  19
BRANCH   9  20
ATOM     20  C   LIG    1        3.983   4.149   4.956  0.00  0.00    +0.064 C 
BRANCH  20  21
ATOM     21  C   LIG    1        4.730   5.008   3.934  0.00  0.00    +0.160 C 
BRANCH  21  22
ATOM     22  O   LIG    1        5.710   5.803   4.604  0.00  0.00    -0.395 OA
ATOM     23  H   LIG    1        6.223   6.373   4.016  0.00  0.00    +0.209 HD
ENDBRANCH  21  22
ENDBRANCH  20  21
ENDBRANCH   9  20
TORSDOF 4
