REMARK  Name = ZINC04877108
REMARK                            x       y       z     vdW  Elec       q    Type
REMARK                         _______ _______ _______ _____ _____    ______ ____
ROOT
ATOM      1  C   LIG    1       -1.182  -2.098  -0.102  0.00  0.00    +0.137 A 
ATOM      2  C   LIG    1       -2.382  -2.829  -0.207  0.00  0.00    +0.078 A 
ATOM      3  C   LIG    1       -3.752  -2.489  -0.230  0.00  0.00    +0.147 A 
ATOM      4  N   LIG    1       -4.447  -3.584  -0.345  0.00  0.00    -0.180 NA
ATOM      5  N   LIG    1       -3.584  -4.686  -0.404  0.00  0.00    -0.260 N 
ATOM      6  H   LIG    1       -3.852  -5.614  -0.490  0.00  0.00    +0.191 HD
ATOM      7  C   LIG    1       -2.302  -4.230  -0.319  0.00  0.00    +0.161 A 
ATOM      8  N   LIG    1       -1.101  -4.807  -0.321  0.00  0.00    -0.216 NA
ATOM      9  C   LIG    1       -0.009  -4.083  -0.221  0.00  0.00    +0.225 A 
ATOM     10  N   LIG    1       -0.033  -2.766  -0.119  0.00  0.00    -0.220 NA
ENDROOT
BRANCH   1  11
ATOM     11  N   LIG    1       -1.199  -0.721   0.010  0.00  0.00    -0.299 N 
ATOM     12  H   LIG    1       -2.036  -0.238  -0.068  0.00  0.00    +0.154 HD
BRANCH  11  19
ATOM     13  C   LIG    1        0.183   1.229  -0.334  0.00  0.00    +0.025 A 
ATOM     14  C   LIG    1        1.360   1.917  -0.110  0.00  0.00    +0.022 A 
ATOM     15  C   LIG    1        2.349   1.358   0.681  0.00  0.00    +0.041 A 
ATOM     16 CL   LIG    1        3.827   2.224   0.960  0.00  0.00    -0.084 Cl
ATOM     17  C   LIG    1        2.162   0.110   1.249  0.00  0.00    +0.022 A 
ATOM     18  C   LIG    1        0.987  -0.582   1.028  0.00  0.00    +0.025 A 
ATOM     19  C   LIG    1       -0.008  -0.023   0.235  0.00  0.00    +0.032 A 
ENDBRANCH  11  19
ENDBRANCH   1  11
TORSDOF 2
