REMARK  Name = ZINC05618790
REMARK                            x       y       z     vdW  Elec       q    Type
REMARK                         _______ _______ _______ _____ _____    ______ ____
ROOT
ATOM      1  C   LIG    1       -1.447   2.543   5.252  0.00  0.00    +0.144 C 
ENDROOT
BRANCH   1   5
ATOM      2  C   LIG    1       -0.520  -1.624   5.100  0.00  0.00    +0.000 A 
ATOM      3  C   LIG    1       -1.838  -1.210   5.142  0.00  0.00    +0.000 A 
ATOM      4  C   LIG    1       -2.138   0.138   5.191  0.00  0.00    +0.007 A 
ATOM      5  C   LIG    1       -1.120   1.073   5.199  0.00  0.00    -0.007 A 
ATOM      6  C   LIG    1        0.198   0.659   5.151  0.00  0.00    +0.007 A 
ATOM      7  C   LIG    1        0.498  -0.689   5.108  0.00  0.00    +0.000 A 
ENDBRANCH   1   5
BRANCH   1   8
ATOM      8  C   LIG    1       -2.575   2.772   6.224  0.00  0.00    -0.007 A 
ATOM      9  C   LIG    1       -2.735   1.929   7.308  0.00  0.00    +0.007 A 
ATOM     10  C   LIG    1       -3.767   2.142   8.203  0.00  0.00    +0.000 A 
ATOM     11  C   LIG    1       -4.645   3.192   8.008  0.00  0.00    +0.000 A 
ATOM     12  C   LIG    1       -4.488   4.032   6.922  0.00  0.00    +0.000 A 
ATOM     13  C   LIG    1       -3.453   3.822   6.030  0.00  0.00    +0.007 A 
ENDBRANCH   1   8
BRANCH   1  14
ATOM     14  C   LIG    1       -0.231   3.312   5.702  0.00  0.00    -0.007 A 
ATOM     15  C   LIG    1        0.521   2.853   6.767  0.00  0.00    +0.007 A 
ATOM     16  C   LIG    1        1.639   3.555   7.177  0.00  0.00    +0.000 A 
ATOM     17  C   LIG    1        1.998   4.723   6.529  0.00  0.00    +0.000 A 
ATOM     18  C   LIG    1        1.242   5.185   5.468  0.00  0.00    +0.000 A 
ATOM     19  C   LIG    1        0.127   4.479   5.054  0.00  0.00    +0.007 A 
ENDBRANCH   1  14
BRANCH   1  20
ATOM     20  O   LIG    1       -1.839   2.991   3.953  0.00  0.00    -0.357 OA
BRANCH  20  21
ATOM     21  C   LIG    1       -0.836   2.818   2.950  0.00  0.00    +0.196 C 
BRANCH  21  22
ATOM     22  C   LIG    1       -1.362   3.330   1.608  0.00  0.00    +0.175 C 
ATOM     23  C   LIG    1       -0.247   3.268   0.534  0.00  0.00    +0.150 C 
ATOM     24  C   LIG    1       -1.093   3.180  -0.765  0.00  0.00    +0.088 C 
ATOM     25  C   LIG    1       -2.314   2.354  -0.306  0.00  0.00    +0.226 C 
ATOM     26  O   LIG    1       -2.402   2.467   1.119  0.00  0.00    -0.348 OA
BRANCH  25  27
ATOM     27  N   LIG    1       -3.533   2.882  -0.924  0.00  0.00    -0.274 N 
ATOM     28  C   LIG    1       -3.962   4.143  -0.608  0.00  0.00    +0.098 A 
ATOM     29  C   LIG    1       -5.082   4.631  -1.181  0.00  0.00    +0.088 A 
ATOM     30  C   LIG    1       -5.798   3.820  -2.095  0.00  0.00    +0.254 A 
ATOM     31  N   LIG    1       -5.345   2.582  -2.376  0.00  0.00    -0.275 N 
ATOM     32  H   LIG    1       -5.846   2.003  -3.020  0.00  0.00    +0.173 HD
ATOM     33  O   LIG    1       -6.814   4.238  -2.621  0.00  0.00    -0.268 OA
ATOM     34  C   LIG    1       -4.223   2.122  -1.794  0.00  0.00    +0.331 A 
ATOM     35  O   LIG    1       -3.826   1.003  -2.057  0.00  0.00    -0.246 OA
ENDBRANCH  25  27
BRANCH  23  36
ATOM     36  O   LIG    1        0.550   4.454   0.550  0.00  0.00    -0.389 OA
ATOM     37  H   LIG    1        1.191   4.507  -0.172  0.00  0.00    +0.210 HD
ENDBRANCH  23  36
ENDBRANCH  21  22
ENDBRANCH  20  21
ENDBRANCH   1  20
TORSDOF 8
