REMARK  Name = ZINC04826285
REMARK                            x       y       z     vdW  Elec       q    Type
REMARK                         _______ _______ _______ _____ _____    ______ ____
ROOT
ATOM      1  C   LIG    1       -1.983   0.648   1.054  0.00  0.00    +0.120 A 
ATOM      2  C   LIG    1       -2.800   0.148   0.047  0.00  0.00    +0.046 A 
ATOM      3  C   LIG    1       -4.143  -0.042   0.288  0.00  0.00    +0.015 A 
ATOM      4  C   LIG    1       -4.676   0.266   1.543  0.00  0.00    +0.025 A 
ATOM      5  C   LIG    1       -3.857   0.760   2.558  0.00  0.00    -0.033 A 
ATOM      6  C   LIG    1       -4.377   1.087   3.930  0.00  0.00    +0.041 C 
ATOM      7  C   LIG    1       -5.871   1.402   3.917  0.00  0.00    +0.043 C 
ATOM      8  C   LIG    1       -6.591   0.297   3.167  0.00  0.00    +0.001 C 
ATOM      9  C   LIG    1       -7.584  -0.429   3.725  0.00  0.00    +0.016 C 
ATOM     10  C   LIG    1       -6.127   0.071   1.782  0.00  0.00    +0.189 C 
ATOM     11  O   LIG    1       -6.890  -0.255   0.891  0.00  0.00    -0.287 OA
ATOM     12  C   LIG    1       -2.510   0.947   2.302  0.00  0.00    +0.050 A 
ENDROOT
BRANCH   9  13
ATOM     13  C   LIG    1       -8.110  -0.059   5.048  0.00  0.00    -0.011 A 
ATOM     14  C   LIG    1       -8.299   1.287   5.379  0.00  0.00    +0.009 A 
ATOM     15  C   LIG    1       -8.797   1.624   6.619  0.00  0.00    +0.001 A 
ATOM     16  C   LIG    1       -9.101   0.636   7.540  0.00  0.00    +0.001 A 
ATOM     17  C   LIG    1       -8.913  -0.697   7.223  0.00  0.00    +0.016 A 
ATOM     18  C   LIG    1       -8.420  -1.053   5.984  0.00  0.00    +0.025 A 
ATOM     19 BR   LIG    1       -8.162  -2.876   5.553  0.00  0.00    -0.050 Br
ENDBRANCH   9  13
BRANCH   1  21
ATOM     20  C   LIG    1       -0.180   0.506  -0.486  0.00  0.00    +0.277 C 
ATOM     21  O   LIG    1       -0.660   0.840   0.817  0.00  0.00    -0.495 OA
ENDBRANCH   1  21
TORSDOF 2
