REMARK  Name = ZINC04826839
REMARK                            x       y       z     vdW  Elec       q    Type
REMARK                         _______ _______ _______ _____ _____    ______ ____
ROOT
ATOM      1  C   LIG    1       -4.798   1.875   0.033  0.00  0.00    +0.123 A 
ATOM      2  C   LIG    1       -5.019   0.505   0.025  0.00  0.00    +0.046 A 
ATOM      3  C   LIG    1       -3.950  -0.369   0.016  0.00  0.00    +0.005 A 
ATOM      4  C   LIG    1       -2.656   0.117   0.014  0.00  0.00    +0.024 A 
ATOM      5  C   LIG    1       -2.429   1.487   0.020  0.00  0.00    +0.048 A 
ATOM      6  C   LIG    1       -3.502   2.367   0.035  0.00  0.00    +0.069 A 
ENDROOT
BRANCH   5   7
ATOM      7  N   LIG    1       -1.117   1.980   0.018  0.00  0.00    -0.202 N 
ATOM      8  C   LIG    1       -0.014   1.210   0.009  0.00  0.00    +0.258 C 
ATOM      9  C   LIG    1        1.174   2.089   0.002  0.00  0.00    +0.050 A 
ATOM     10  C   LIG    1        2.542   1.867  -0.013  0.00  0.00    +0.014 A 
ATOM     11  C   LIG    1        3.413   2.946  -0.015  0.00  0.00    +0.001 A 
ATOM     12  C   LIG    1        2.926   4.240  -0.004  0.00  0.00    +0.001 A 
ATOM     13  C   LIG    1        1.560   4.477   0.011  0.00  0.00    +0.014 A 
ATOM     14  C   LIG    1        0.678   3.409   0.014  0.00  0.00    +0.050 A 
ATOM     15  O   LIG    1        0.002  -0.004   0.002  0.00  0.00    -0.269 OA
ATOM     16  C   LIG    1       -0.795   3.287   0.027  0.00  0.00    +0.258 C 
ATOM     17  O   LIG    1       -1.583   4.211   0.040  0.00  0.00    -0.269 OA
ENDBRANCH   5   7
BRANCH   1  18
ATOM     18  O   LIG    1       -5.851   2.735   0.042  0.00  0.00    -0.487 OA
BRANCH  18  19
ATOM     19  C   LIG    1       -7.158   2.158   0.044  0.00  0.00    +0.264 C 
BRANCH  19  23
ATOM     20  C   LIG    1      -10.086   5.268   0.075  0.00  0.00    +0.000 A 
ATOM     21  C   LIG    1       -9.617   4.772  -1.127  0.00  0.00    +0.000 A 
ATOM     22  C   LIG    1       -8.670   3.766  -1.137  0.00  0.00    +0.007 A 
ATOM     23  C   LIG    1       -8.191   3.255   0.055  0.00  0.00    -0.010 A 
ATOM     24  C   LIG    1       -8.664   3.748   1.257  0.00  0.00    +0.007 A 
ATOM     25  C   LIG    1       -9.608   4.758   1.267  0.00  0.00    +0.000 A 
ENDBRANCH  19  23
ENDBRANCH  18  19
ENDBRANCH   1  18
TORSDOF 4
