REMARK  Name = ZINC05276062
REMARK                            x       y       z     vdW  Elec       q    Type
REMARK                         _______ _______ _______ _____ _____    ______ ____
ROOT
ATOM      1  C   LIG    1       -2.267  -3.855   4.273  0.00  0.00    +0.024 C 
ATOM      2  C   LIG    1       -2.238  -2.566   5.138  0.00  0.00    +0.007 C 
ATOM      3  C   LIG    1       -1.385  -1.531   4.358  0.00  0.00    +0.005 C 
ATOM      4  C   LIG    1       -1.230  -2.163   2.966  0.00  0.00    -0.001 C 
ATOM      5  C   LIG    1       -0.126  -1.635   2.105  0.00  0.00    +0.000 C 
ATOM      6  C   LIG    1        0.948  -0.843   2.853  0.00  0.00    +0.031 C 
ATOM      7  C   LIG    1        1.915  -0.332   1.814  0.00  0.00    -0.027 C 
ATOM      8  C   LIG    1        2.098  -0.909   0.666  0.00  0.00    -0.065 C 
ATOM      9  C   LIG    1        1.403  -2.175   0.222  0.00  0.00    -0.008 C 
ATOM     10  C   LIG    1        2.473  -3.200  -0.174  0.00  0.00    +0.016 C 
ATOM     11  C   LIG    1        0.548  -1.861  -0.999  0.00  0.00    +0.014 C 
ATOM     12  C   LIG    1        0.834  -0.444  -1.495  0.00  0.00    +0.032 C 
ATOM     13  C   LIG    1        2.326  -0.191  -1.680  0.00  0.00    +0.119 C 
ATOM     14  C   LIG    1        3.053  -0.277  -0.333  0.00  0.00    +0.062 C 
ATOM     15  C   LIG    1        0.586  -2.773   1.360  0.00  0.00    +0.003 C 
ATOM     16  C   LIG    1       -0.445  -3.784   0.880  0.00  0.00    +0.005 C 
ATOM     17  C   LIG    1       -1.081  -4.522   2.071  0.00  0.00    +0.007 C 
ATOM     18  C   LIG    1       -1.086  -3.659   3.303  0.00  0.00    -0.024 C 
ATOM     19  C   LIG    1        0.182  -3.929   4.132  0.00  0.00    +0.012 C 
ENDROOT
BRANCH   1  21
ATOM     20  C   LIG    1       -4.704  -4.306   4.548  0.00  0.00    +0.038 C 
ATOM     21  C   LIG    1       -3.601  -3.963   3.544  0.00  0.00    +0.115 C 
BRANCH  21  22
ATOM     22  O   LIG    1       -3.901  -2.716   2.913  0.00  0.00    -0.392 OA
ATOM     23  H   LIG    1       -3.971  -1.972   3.526  0.00  0.00    +0.210 HD
ENDBRANCH  21  22
ENDBRANCH   1  21
BRANCH  13  24
ATOM     24  O   LIG    1        2.872  -1.149  -2.588  0.00  0.00    -0.391 OA
ATOM     25  H   LIG    1        3.820  -1.042  -2.749  0.00  0.00    +0.210 HD
ENDBRANCH  13  24
TORSDOF 3
