REMARK  Name = ZINC05117007
REMARK                            x       y       z     vdW  Elec       q    Type
REMARK                         _______ _______ _______ _____ _____    ______ ____
ROOT
ATOM      1  C   LIG    1       -0.016   1.354   0.009  0.00  0.00    +0.069 A 
ATOM      2  C   LIG    1        1.205   2.065   0.002  0.00  0.00    +0.074 A 
ATOM      3  C   LIG    1        2.406   1.343  -0.014  0.00  0.00    +0.131 A 
ATOM      4  N   LIG    1        3.424   2.288  -0.019  0.00  0.00    -0.324 N 
ATOM      5  C   LIG    1        2.829   3.512  -0.007  0.00  0.00    +0.169 A 
ATOM      6  H   LIG    1        4.378   2.109  -0.029  0.00  0.00    +0.169 HD
ATOM      7  C   LIG    1        2.368  -0.054  -0.020  0.00  0.00    +0.276 A 
ATOM      8  N   LIG    1        1.182  -0.695  -0.012  0.00  0.00    -0.309 N 
ATOM      9  H   LIG    1        1.166  -1.665  -0.017  0.00  0.00    +0.170 HD
ATOM     10  O   LIG    1        3.408  -0.694  -0.033  0.00  0.00    -0.266 OA
ATOM     11  N   LIG    1        1.523   3.371   0.005  0.00  0.00    -0.328 N 
ATOM     12  H   LIG    1        0.883   4.100   0.015  0.00  0.00    +0.169 HD
ATOM     13  C   LIG    1        0.002  -0.004   0.002  0.00  0.00    +0.098 A 
ENDROOT
BRANCH   5  14
ATOM     14  N   LIG    1        3.496   4.717  -0.007  0.00  0.00    -0.330 N 
ATOM     15  H   LIG    1        2.995   5.548   0.003  0.00  0.00    +0.145 HD
ATOM     16  H   LIG    1        4.466   4.735  -0.016  0.00  0.00    +0.145 HD
ENDBRANCH   5  14
BRANCH  13  17
ATOM     17  N   LIG    1       -1.192  -0.700   0.010  0.00  0.00    -0.344 N 
ATOM     18  H   LIG    1       -1.188  -1.670   0.004  0.00  0.00    +0.144 HD
ATOM     19  H   LIG    1       -2.034  -0.218   0.020  0.00  0.00    +0.144 HD
ENDBRANCH  13  17
TORSDOF 2
