REMARK  Name = ZINC05307767
REMARK                            x       y       z     vdW  Elec       q    Type
REMARK                         _______ _______ _______ _____ _____    ______ ____
ROOT
ATOM      1  C   LIG    1        2.120  -4.757  -3.659  0.00  0.00    +0.228 C 
ATOM      2  O   LIG    1        2.526  -4.145  -4.625  0.00  0.00    -0.284 OA
ENDROOT
BRANCH   1   3
ATOM      3  C   LIG    1        2.238  -6.226  -3.615  0.00  0.00    +0.025 A 
ATOM      4  C   LIG    1        1.649  -6.948  -2.570  0.00  0.00    +0.012 A 
ATOM      5  C   LIG    1        1.764  -8.321  -2.536  0.00  0.00    +0.001 A 
ATOM      6  C   LIG    1        2.460  -8.986  -3.531  0.00  0.00    +0.000 A 
ATOM      7  C   LIG    1        3.045  -8.280  -4.568  0.00  0.00    +0.001 A 
ATOM      8  C   LIG    1        2.934  -6.907  -4.620  0.00  0.00    +0.012 A 
ENDBRANCH   1   3
BRANCH   1   9
ATOM      9  C   LIG    1        1.502  -4.025  -2.519  0.00  0.00    +0.203 C 
ATOM     10  O   LIG    1        1.013  -4.639  -1.601  0.00  0.00    -0.289 OA
BRANCH   9  11
ATOM     11  C   LIG    1        1.487  -2.518  -2.511  0.00  0.00    +0.083 C 
BRANCH  11  12
ATOM     12  C   LIG    1        0.799  -2.022  -1.237  0.00  0.00    +0.008 C 
BRANCH  12  13
ATOM     13  C   LIG    1        0.784  -0.492  -1.229  0.00  0.00    +0.000 C 
BRANCH  13  15
ATOM     14  C   LIG    1        0.081   1.534   0.053  0.00  0.00    +0.004 C 
ATOM     15  C   LIG    1        0.097   0.004   0.044  0.00  0.00    -0.003 C 
ENDBRANCH  13  15
ENDBRANCH  12  13
ENDBRANCH  11  12
ENDBRANCH   9  11
ENDBRANCH   1   9
TORSDOF 6
