REMARK  Name = ZINC05177027
REMARK                            x       y       z     vdW  Elec       q    Type
REMARK                         _______ _______ _______ _____ _____    ______ ____
ROOT
ATOM      1  C   LIG    1        3.679   1.649  -0.025  0.00  0.00    +0.035 C 
ATOM      2  C   LIG    1        4.666   0.710  -0.039  0.00  0.00    +0.078 C 
ATOM      3  C   LIG    1        6.126   0.891  -0.047  0.00  0.00    +0.256 C 
ATOM      4  N   LIG    1        6.868  -0.203  -0.061  0.00  0.00    -0.260 N 
ATOM      5  H   LIG    1        7.835  -0.128  -0.067  0.00  0.00    +0.157 HD
ATOM      6  C   LIG    1        6.281  -1.450  -0.068  0.00  0.00    +0.166 C 
ATOM      7  N   LIG    1        6.863  -2.628  -0.081  0.00  0.00    -0.226 NA
ATOM      8  O   LIG    1        6.629   2.000  -0.040  0.00  0.00    -0.269 OA
ATOM      9  S   LIG    1        4.536  -1.072  -0.046  0.00  0.00    -0.049 S 
ENDROOT
BRANCH   7  10
ATOM     10  C   LIG    1        8.229  -2.717  -0.090  0.00  0.00    +0.067 A 
ATOM     11  C   LIG    1        8.979  -1.899  -0.937  0.00  0.00    +0.029 A 
ATOM     12  C   LIG    1       10.355  -1.993  -0.941  0.00  0.00    +0.022 A 
ATOM     13  C   LIG    1       10.993  -2.896  -0.106  0.00  0.00    +0.041 A 
ATOM     14 CL   LIG    1       12.725  -3.008  -0.117  0.00  0.00    -0.084 Cl
ATOM     15  C   LIG    1       10.254  -3.710   0.736  0.00  0.00    +0.022 A 
ATOM     16  C   LIG    1        8.878  -3.622   0.753  0.00  0.00    +0.029 A 
ENDBRANCH   7  10
BRANCH   1  19
ATOM     17  C   LIG    1       -0.016   1.351   0.009  0.00  0.00    +0.008 A 
ATOM     18  C   LIG    1        1.175   2.037   0.002  0.00  0.00    +0.015 A 
ATOM     19  C   LIG    1        2.322   1.249  -0.013  0.00  0.00    +0.013 A 
ATOM     20  S   LIG    1        1.635  -0.396  -0.016  0.00  0.00    -0.097 S 
ATOM     21  C   LIG    1        0.002  -0.004   0.002  0.00  0.00    +0.046 A 
ENDBRANCH   1  19
TORSDOF 2
