REMARK  Name = ZINC05683549
REMARK                            x       y       z     vdW  Elec       q    Type
REMARK                         _______ _______ _______ _____ _____    ______ ____
ROOT
ATOM      1  C   LIG    1        4.164  -0.959   1.377  0.00  0.00    +0.058 A 
ATOM      2  C   LIG    1        3.881  -2.143   1.998  0.00  0.00    +0.143 A 
ATOM      3 CL   LIG    1        2.990  -3.372   1.155  0.00  0.00    -0.061 Cl
ATOM      4  N   LIG    1        4.292  -2.357   3.248  0.00  0.00    -0.185 NA
ATOM      5  C   LIG    1        4.963  -1.442   3.913  0.00  0.00    +0.297 A 
ATOM      6  N   LIG    1        5.269  -0.245   3.350  0.00  0.00    -0.277 N 
ATOM      7  H   LIG    1        5.765   0.418   3.855  0.00  0.00    +0.173 HD
ATOM      8  C   LIG    1        4.881   0.021   2.084  0.00  0.00    +0.259 A 
ATOM      9  O   LIG    1        5.149   1.092   1.564  0.00  0.00    -0.267 OA
ENDROOT
BRANCH   5  10
ATOM     10  O   LIG    1        5.355  -1.698   5.178  0.00  0.00    -0.480 OA
ATOM     11  H   LIG    1        5.834  -1.053   5.660  0.00  0.00    +0.295 HD
ENDBRANCH   5  10
BRANCH   1  12
ATOM     12  C   LIG    1        3.711  -0.707  -0.038  0.00  0.00    +0.078 C 
BRANCH  12  16
ATOM     13  C   LIG    1       -0.017   1.378   0.010  0.00  0.00    +0.000 A 
ATOM     14  C   LIG    1        1.171   2.086   0.002  0.00  0.00    +0.000 A 
ATOM     15  C   LIG    1        2.377   1.411  -0.013  0.00  0.00    +0.004 A 
ATOM     16  C   LIG    1        2.396   0.029  -0.020  0.00  0.00    -0.043 A 
ATOM     17  C   LIG    1        1.208  -0.679  -0.012  0.00  0.00    +0.004 A 
ATOM     18  C   LIG    1        0.002  -0.004   0.002  0.00  0.00    +0.000 A 
ENDBRANCH  12  16
ENDBRANCH   1  12
TORSDOF 3
