REMARK  Name = ZINC05332367
REMARK                            x       y       z     vdW  Elec       q    Type
REMARK                         _______ _______ _______ _____ _____    ______ ____
ROOT
ATOM      1  N   LIG    1        4.933  -2.631  -0.084  0.00  0.00    -0.270 N 
ATOM      2  C   LIG    1        5.368  -3.542  -1.022  0.00  0.00    +0.169 A 
ATOM      3  N   LIG    1        6.539  -3.979  -0.620  0.00  0.00    -0.128 NA
ATOM      4  N   LIG    1        6.863  -3.413   0.488  0.00  0.00    -0.122 NA
ATOM      5  C   LIG    1        5.920  -2.575   0.861  0.00  0.00    +0.193 A 
ENDROOT
BRANCH   1  11
ATOM      6  C   LIG    1        0.150   1.559  -0.319  0.00  0.00    +0.001 A 
ATOM      7  C   LIG    1        1.355   2.236  -0.496  0.00  0.00    +0.001 A 
ATOM      8  C   LIG    1        2.541   1.569  -0.488  0.00  0.00    +0.008 A 
ATOM      9  C   LIG    1        2.554   0.176  -0.299  0.00  0.00    -0.016 A 
ATOM     10  C   LIG    1        3.760  -0.545  -0.285  0.00  0.00    +0.034 A 
ATOM     11  C   LIG    1        3.732  -1.909  -0.098  0.00  0.00    +0.051 A 
ATOM     12  C   LIG    1        2.517  -2.581   0.079  0.00  0.00    +0.027 A 
ATOM     13  C   LIG    1        1.337  -1.906   0.069  0.00  0.00    +0.010 A 
ATOM     14  C   LIG    1        1.328  -0.513  -0.120  0.00  0.00    -0.018 A 
ATOM     15  C   LIG    1        0.124   0.211  -0.134  0.00  0.00    +0.008 A 
ENDBRANCH   1  11
BRANCH   2  16
ATOM     16  C   LIG    1        4.652  -3.951  -2.248  0.00  0.00    +0.022 A 
ATOM     17  C   LIG    1        3.608  -3.173  -2.764  0.00  0.00    +0.031 A 
ATOM     18  C   LIG    1        2.967  -3.592  -3.911  0.00  0.00    +0.111 A 
ATOM     19  N   LIG    1        3.325  -4.708  -4.519  0.00  0.00    -0.263 NA
ATOM     20  C   LIG    1        4.303  -5.469  -4.066  0.00  0.00    +0.111 A 
ATOM     21  C   LIG    1        5.002  -5.123  -2.929  0.00  0.00    +0.031 A 
ENDBRANCH   2  16
BRANCH   5  22
ATOM     22  S   LIG    1        5.926  -1.570   2.308  0.00  0.00    -0.103 S 
ATOM     23  H   LIG    1        4.783  -0.835   2.355  0.00  0.00    +0.110 HD
ENDBRANCH   5  22
TORSDOF 3
