REMARK  Name = ZINC05115722
REMARK                            x       y       z     vdW  Elec       q    Type
REMARK                         _______ _______ _______ _____ _____    ______ ____
ROOT
ATOM      1  C   LIG    1        3.570   0.508  -6.291  0.00  0.00    +0.164 C 
ATOM      2  O   LIG    1        3.529   1.720  -6.232  0.00  0.00    -0.292 OA
ENDROOT
BRANCH   1   4
ATOM      3  C   LIG    1        2.393   0.340  -4.214  0.00  0.00    +0.011 C 
ATOM      4  C   LIG    1        2.993  -0.267  -5.267  0.00  0.00    +0.047 C 
BRANCH   3   7
ATOM      5  C   LIG    1        0.606  -0.608  -1.056  0.00  0.00    +0.162 A 
ATOM      6  C   LIG    1        1.170   0.158  -2.057  0.00  0.00    +0.057 A 
ATOM      7  C   LIG    1        1.792  -0.467  -3.146  0.00  0.00    -0.021 A 
ATOM      8  C   LIG    1        1.837  -1.866  -3.212  0.00  0.00    +0.012 A 
ATOM      9  C   LIG    1        1.272  -2.621  -2.209  0.00  0.00    +0.050 A 
ATOM     10  C   LIG    1        0.661  -2.000  -1.127  0.00  0.00    +0.158 A 
BRANCH   5  12
ATOM     11  C   LIG    1       -0.017   1.425   0.010  0.00  0.00    +0.277 C 
ATOM     12  O   LIG    1        0.002  -0.004   0.002  0.00  0.00    -0.491 OA
ENDBRANCH   5  12
BRANCH  10  13
ATOM     13  O   LIG    1        0.111  -2.750  -0.138  0.00  0.00    -0.503 OA
ATOM     14  H   LIG    1       -0.818  -2.975  -0.286  0.00  0.00    +0.292 HD
ENDBRANCH  10  13
ENDBRANCH   3   7
ENDBRANCH   1   4
BRANCH   1  15
ATOM     15  C   LIG    1        4.238  -0.167  -7.461  0.00  0.00    +0.158 C 
BRANCH  15  16
ATOM     16  C   LIG    1        4.769   0.878  -8.408  0.00  0.00    +0.164 C 
ATOM     17  O   LIG    1        4.620   2.057  -8.157  0.00  0.00    -0.292 OA
BRANCH  16  18
ATOM     18  C   LIG    1        5.438   0.488  -9.584  0.00  0.00    +0.047 C 
ATOM     19  C   LIG    1        5.916   1.428 -10.435  0.00  0.00    +0.011 C 
BRANCH  19  20
ATOM     20  C   LIG    1        6.614   1.022 -11.661  0.00  0.00    -0.025 A 
ATOM     21  C   LIG    1        6.782  -0.338 -11.956  0.00  0.00    +0.011 A 
ATOM     22  C   LIG    1        7.437  -0.713 -13.107  0.00  0.00    +0.046 A 
ATOM     23  C   LIG    1        7.931   0.254 -13.976  0.00  0.00    +0.117 A 
ATOM     24  C   LIG    1        7.767   1.604 -13.688  0.00  0.00    +0.046 A 
ATOM     25  C   LIG    1        7.108   1.991 -12.543  0.00  0.00    +0.011 A 
BRANCH  23  26
ATOM     26  O   LIG    1        8.576  -0.122 -15.109  0.00  0.00    -0.507 OA
ATOM     27  H   LIG    1        7.995  -0.232 -15.874  0.00  0.00    +0.292 HD
ENDBRANCH  23  26
ENDBRANCH  19  20
ENDBRANCH  16  18
ENDBRANCH  15  16
ENDBRANCH   1  15
TORSDOF 9
