REMARK  Name = ZINC05424460
REMARK                            x       y       z     vdW  Elec       q    Type
REMARK                         _______ _______ _______ _____ _____    ______ ____
ROOT
ATOM      1  C   LIG    1       -3.521   2.411  -0.409  0.00  0.00    +0.022 C 
ATOM      2  C   LIG    1       -2.487   1.379   0.087  0.00  0.00    +0.048 C 
ATOM      3  C   LIG    1       -1.158   2.104   0.058  0.00  0.00    -0.043 A 
ATOM      4  C   LIG    1        0.135   1.608   0.089  0.00  0.00    +0.007 A 
ATOM      5  C   LIG    1        1.212   2.471   0.046  0.00  0.00    +0.038 A 
ATOM      6  C   LIG    1        0.999   3.837  -0.021  0.00  0.00    +0.124 A 
ATOM      7  F   LIG    1        2.051   4.684  -0.063  0.00  0.00    -0.205 F 
ATOM      8  C   LIG    1       -0.292   4.334  -0.047  0.00  0.00    +0.042 A 
ATOM      9  C   LIG    1       -1.372   3.468  -0.005  0.00  0.00    -0.041 A 
ATOM     10  C   LIG    1       -2.858   3.753  -0.019  0.00  0.00    +0.049 C 
ENDROOT
BRANCH   1  11
ATOM     11  C   LIG    1       -3.708   2.308  -1.901  0.00  0.00    +0.066 A 
ATOM     12  C   LIG    1       -4.710   2.857  -2.613  0.00  0.00    +0.107 A 
ATOM     13  N   LIG    1       -4.496   2.522  -3.922  0.00  0.00    -0.351 N 
ATOM     14  H   LIG    1       -5.191   2.870  -4.700  0.00  0.00    +0.166 HD
ATOM     15  C   LIG    1       -3.374   1.771  -3.964  0.00  0.00    +0.196 A 
ATOM     16  N   LIG    1       -2.909   1.647  -2.751  0.00  0.00    -0.240 NA
ENDBRANCH   1  11
BRANCH   1  18
ATOM     17  C   LIG    1       -5.393   0.825   0.066  0.00  0.00    +0.005 C 
ATOM     18  C   LIG    1       -4.856   2.236   0.318  0.00  0.00    +0.010 C 
ENDBRANCH   1  18
TORSDOF 2
