REMARK  Name = ZINC05835076
REMARK                            x       y       z     vdW  Elec       q    Type
REMARK                         _______ _______ _______ _____ _____    ______ ____
ROOT
ATOM      1  C   LIG    1        2.462   0.334   4.204  0.00  0.00    +0.100 C 
ENDROOT
BRANCH   1   2
ATOM      2  C   LIG    1        3.944   0.113   4.358  0.00  0.00    +0.092 A 
ATOM      3  C   LIG    1        4.847   0.684   3.437  0.00  0.00    +0.200 A 
ATOM      4  C   LIG    1        6.286   0.427   3.648  0.00  0.00    +0.065 A 
ATOM      5  C   LIG    1        7.250   0.951   2.789  0.00  0.00    +0.015 A 
ATOM      6  C   LIG    1        8.583   0.688   3.022  0.00  0.00    +0.001 A 
ATOM      7  C   LIG    1        8.963  -0.093   4.103  0.00  0.00    +0.004 A 
ATOM      8  C   LIG    1        8.018  -0.616   4.960  0.00  0.00    +0.047 A 
ATOM      9  C   LIG    1        6.669  -0.362   4.743  0.00  0.00    +0.143 A 
ATOM     10  O   LIG    1        5.728  -0.863   5.569  0.00  0.00    -0.425 OA
ATOM     11  O   LIG    1        4.454   1.364   2.502  0.00  0.00    -0.287 OA
ATOM     12  C   LIG    1        4.421  -0.632   5.389  0.00  0.00    +0.292 A 
BRANCH  12  13
ATOM     13  O   LIG    1        3.542  -1.165   6.264  0.00  0.00    -0.480 OA
ATOM     14  H   LIG    1        2.624  -1.015   6.156  0.00  0.00    +0.295 HD
ENDBRANCH  12  13
ENDBRANCH   1   2
BRANCH   1  15
ATOM     15  C   LIG    1        1.804   0.290   5.559  0.00  0.00    +0.092 A 
ATOM     16  C   LIG    1        0.854  -0.710   5.856  0.00  0.00    +0.200 A 
ATOM     17  C   LIG    1        0.249  -0.693   7.203  0.00  0.00    +0.065 A 
ATOM     18  C   LIG    1       -0.697  -1.642   7.585  0.00  0.00    +0.015 A 
ATOM     19  C   LIG    1       -1.238  -1.591   8.852  0.00  0.00    +0.001 A 
ATOM     20  C   LIG    1       -0.844  -0.603   9.741  0.00  0.00    +0.004 A 
ATOM     21  C   LIG    1        0.092   0.342   9.374  0.00  0.00    +0.047 A 
ATOM     22  C   LIG    1        0.649   0.307   8.102  0.00  0.00    +0.143 A 
ATOM     23  O   LIG    1        1.566   1.221   7.722  0.00  0.00    -0.425 OA
ATOM     24  O   LIG    1        0.546  -1.556   5.032  0.00  0.00    -0.287 OA
ATOM     25  C   LIG    1        2.125   1.211   6.505  0.00  0.00    +0.292 A 
BRANCH  25  26
ATOM     26  O   LIG    1        3.040   2.157   6.204  0.00  0.00    -0.480 OA
ATOM     27  H   LIG    1        3.442   2.167   5.358  0.00  0.00    +0.295 HD
ENDBRANCH  25  26
ENDBRANCH   1  15
BRANCH   1  30
ATOM     28  C   LIG    1        0.349  -1.433   1.618  0.00  0.00    +0.162 A 
ATOM     29  C   LIG    1        0.883  -0.440   2.423  0.00  0.00    +0.054 A 
ATOM     30  C   LIG    1        1.881  -0.748   3.329  0.00  0.00    -0.031 A 
ATOM     31  C   LIG    1        2.349  -2.044   3.434  0.00  0.00    +0.008 A 
ATOM     32  C   LIG    1        1.820  -3.040   2.633  0.00  0.00    +0.049 A 
ATOM     33  C   LIG    1        0.815  -2.740   1.727  0.00  0.00    +0.158 A 
BRANCH  28  35
ATOM     34  C   LIG    1       -1.063   0.229   0.669  0.00  0.00    +0.277 C 
ATOM     35  O   LIG    1       -0.634  -1.133   0.727  0.00  0.00    -0.491 OA
ENDBRANCH  28  35
BRANCH  33  36
ATOM     36  O   LIG    1        0.290  -3.719   0.943  0.00  0.00    -0.503 OA
ATOM     37  H   LIG    1        0.748  -3.835   0.100  0.00  0.00    +0.292 HD
ENDBRANCH  33  36
ENDBRANCH   1  30
TORSDOF 7
