REMARK  Name = ZINC04837050
REMARK                            x       y       z     vdW  Elec       q    Type
REMARK                         _______ _______ _______ _____ _____    ______ ____
ROOT
ATOM      1  C   LIG    1        1.155   3.565   0.010  0.00  0.00    +0.039 A 
ATOM      2  C   LIG    1       -0.048   4.247   0.025  0.00  0.00    +0.052 A 
ATOM      3  C   LIG    1       -1.242   3.545   0.033  0.00  0.00    +0.169 A 
ATOM      4  C   LIG    1       -1.227   2.152   0.019  0.00  0.00    +0.198 A 
ATOM      5  O   LIG    1       -2.515   1.702   0.024  0.00  0.00    -0.450 OA
ATOM      6  C   LIG    1       -3.318   2.828  -0.378  0.00  0.00    +0.466 C 
ATOM      7  C   LIG    1       -0.018   1.476   0.010  0.00  0.00    +0.197 A 
ATOM      8  O   LIG    1       -2.540   3.967   0.048  0.00  0.00    -0.453 OA
ATOM      9  C   LIG    1        1.170   2.183   0.003  0.00  0.00    +0.155 A 
ENDROOT
BRANCH   7  10
ATOM     10  N   LIG    1        0.002  -0.004   0.002  0.00  0.00    +0.012 N 
ATOM     11  O   LIG    1        0.020  -0.619   1.053  0.00  0.00    -0.130 OA
BRANCH  10  12
ATOM     12  O   LIG    1        0.000  -0.607  -1.056  0.00  0.00    -0.396 OA
ATOM     13  H   LIG    1       -0.014  -0.134  -1.865  0.00  0.00    +0.329 HD
ENDBRANCH  10  12
ENDBRANCH   7  10
BRANCH   9  14
ATOM     14  N   LIG    1        2.461   1.459  -0.014  0.00  0.00    +0.008 N 
ATOM     15  O   LIG    1        3.508   2.080  -0.020  0.00  0.00    -0.130 OA
BRANCH  14  16
ATOM     16  O   LIG    1        2.476   0.241  -0.020  0.00  0.00    -0.396 OA
ATOM     17  H   LIG    1        1.670  -0.237  -0.015  0.00  0.00    +0.329 HD
ENDBRANCH  14  16
ENDBRANCH   9  14
TORSDOF 4
