REMARK  Name = ZINC05052973
REMARK                            x       y       z     vdW  Elec       q    Type
REMARK                         _______ _______ _______ _____ _____    ______ ____
ROOT
ATOM      1  C   LIG    1       -1.598   0.584   1.779  0.00  0.00    -0.095 C 
ATOM      2  N   LIG    1       -0.627   1.582   1.240  0.00  0.00    +0.382 N 
ATOM      3  H   LIG    1       -1.119   2.463   1.052  0.00  0.00    -0.081 HD
ATOM      4  C   LIG    1       -0.013   1.086   0.008  0.00  0.00    -0.038 C 
ATOM      5  C   LIG    1        1.428   1.630  -0.003  0.00  0.00    -0.013 C 
ATOM      6  C   LIG    1        1.569   2.424   1.316  0.00  0.00    -0.020 C 
ATOM      7  C   LIG    1        0.457   1.816   2.207  0.00  0.00    -0.078 C 
ENDROOT
BRANCH   4   8
ATOM      8  C   LIG    1       -0.763   1.595  -1.195  0.00  0.00    -0.061 A 
ATOM      9  C   LIG    1       -1.287   2.875  -1.192  0.00  0.00    +0.003 A 
ATOM     10  C   LIG    1       -1.971   3.344  -2.298  0.00  0.00    +0.015 A 
ATOM     11  C   LIG    1       -2.141   2.530  -3.403  0.00  0.00    +0.018 A 
ATOM     12 BR   LIG    1       -3.083   3.169  -4.913  0.00  0.00    -0.050 Br
ATOM     13  C   LIG    1       -1.621   1.248  -3.404  0.00  0.00    +0.015 A 
ATOM     14  C   LIG    1       -0.933   0.781  -2.300  0.00  0.00    +0.003 A 
ENDBRANCH   4   8
TORSDOF 1
