REMARK  Name = ZINC05225893
REMARK                            x       y       z     vdW  Elec       q    Type
REMARK                         _______ _______ _______ _____ _____    ______ ____
ROOT
ATOM      1  C   LIG    1       -2.957   4.428  -1.244  0.00  0.00    +0.101 C 
ENDROOT
BRANCH   1   2
ATOM      2  C   LIG    1       -1.893   5.277  -1.892  0.00  0.00    +0.308 C 
ATOM      3  O   LIG    1       -2.043   6.472  -1.979  0.00  0.00    -0.251 OA
BRANCH   2   4
ATOM      4  O   LIG    1       -0.778   4.704  -2.373  0.00  0.00    -0.480 OA
ATOM      5  H   LIG    1       -0.662   3.776  -2.306  0.00  0.00    +0.295 HD
ENDBRANCH   2   4
ENDBRANCH   1   2
BRANCH   1   6
ATOM      6  C   LIG    1       -2.750   4.421   0.272  0.00  0.00    +0.049 C 
BRANCH   6  10
ATOM      7  C   LIG    1        0.957   2.509   1.194  0.00  0.00    +0.000 A 
ATOM      8  C   LIG    1       -0.182   1.750   0.997  0.00  0.00    +0.000 A 
ATOM      9  C   LIG    1       -1.381   2.369   0.694  0.00  0.00    +0.003 A 
ATOM     10  C   LIG    1       -1.442   3.747   0.597  0.00  0.00    -0.047 A 
ATOM     11  C   LIG    1       -0.304   4.505   0.794  0.00  0.00    +0.003 A 
ATOM     12  C   LIG    1        0.896   3.886   1.092  0.00  0.00    +0.000 A 
ENDBRANCH   6  10
ENDBRANCH   1   6
BRANCH   1  13
ATOM     13  C   LIG    1       -4.336   5.005  -1.568  0.00  0.00    +0.010 C 
BRANCH  13  14
ATOM     14  CA  LIG    1       -5.420   4.067  -1.032  0.00  0.00    +0.037 C 
BRANCH  14  15
ATOM     15  N   LIG    1       -5.366   2.769  -1.727  0.00  0.00    +0.387 N 
ATOM     16  H1  LIG    1       -6.180   2.206  -1.455  0.00  0.00    -0.089 HD
ATOM     17  H2  LIG    1       -4.516   2.270  -1.469  0.00  0.00    -0.089 HD
ATOM     18  H3  LIG    1       -5.382   2.911  -2.736  0.00  0.00    -0.089 HD
ENDBRANCH  14  15
BRANCH  14  19
ATOM     19  C   LIG    1       -6.776   4.685  -1.259  0.00  0.00    +0.290 C 
ATOM     20  O   LIG    1       -7.454   4.327  -2.192  0.00  0.00    -0.253 OA
BRANCH  19  21
ATOM     21  OXT LIG    1       -7.230   5.632  -0.423  0.00  0.00    -0.482 OA
ATOM     22  HXT LIG    1       -6.704   5.909   0.301  0.00  0.00    +0.295 HD
ENDBRANCH  19  21
ENDBRANCH  14  19
ENDBRANCH  13  14
ENDBRANCH   1  13
TORSDOF 9
