REMARK  Name = ZINC05395387
REMARK                            x       y       z     vdW  Elec       q    Type
REMARK                         _______ _______ _______ _____ _____    ______ ____
ROOT
ATOM      1  C   LIG    1        0.651  -0.116  -4.156  0.00  0.00    +0.021 C 
ATOM      2  C   LIG    1       -0.056   1.078  -4.851  0.00  0.00    +0.035 C 
ATOM      3  C   LIG    1       -0.899   1.690  -3.713  0.00  0.00    +0.184 C 
ATOM      4  N   LIG    1       -0.288   1.272  -2.443  0.00  0.00    -0.288 N 
ATOM      5  C   LIG    1       -0.742   1.585  -1.213  0.00  0.00    +0.217 C 
ATOM      6  O   LIG    1       -1.736   2.268  -1.088  0.00  0.00    -0.276 OA
ATOM      7  C   LIG    1        0.906   0.460  -2.738  0.00  0.00    +0.109 C 
ENDROOT
BRANCH   3   8
ATOM      8  C   LIG    1       -0.886   3.194  -3.818  0.00  0.00    +0.325 C 
ATOM      9  O   LIG    1       -0.415   3.857  -2.925  0.00  0.00    -0.249 OA
BRANCH   8  10
ATOM     10  O   LIG    1       -1.398   3.796  -4.903  0.00  0.00    -0.479 OA
ATOM     11  H   LIG    1       -1.763   3.281  -5.596  0.00  0.00    +0.295 HD
ENDBRANCH   8  10
ENDBRANCH   3   8
BRANCH   5  12
ATOM     12  C   LIG    1       -0.013   1.086   0.008  0.00  0.00    +0.106 C 
BRANCH  12  13
ATOM     13  C   LIG    1       -0.729   1.579   1.267  0.00  0.00    +0.075 C 
BRANCH  13  14
ATOM     14  S   LIG    1        0.148   0.978   2.736  0.00  0.00    -0.178 S 
ATOM     15  H   LIG    1       -0.565   1.470   3.765  0.00  0.00    +0.102 HD
ENDBRANCH  13  14
ENDBRANCH  12  13
ENDBRANCH   5  12
TORSDOF 5
