REMARK  Name = ZINC05727254
REMARK                            x       y       z     vdW  Elec       q    Type
REMARK                         _______ _______ _______ _____ _____    ______ ____
ROOT
ATOM      1  C   LIG    1       -1.307   1.934   0.019  0.00  0.00    +0.037 A 
ATOM      2  C   LIG    1       -1.325   3.329   0.032  0.00  0.00    +0.014 A 
ATOM      3  C   LIG    1       -2.527   4.003   0.036  0.00  0.00    +0.012 A 
ATOM      4  C   LIG    1       -3.728   3.288   0.037  0.00  0.00    +0.026 A 
ATOM      5  C   LIG    1       -3.708   1.891   0.029  0.00  0.00    +0.012 A 
ATOM      6  C   LIG    1       -2.505   1.219   0.021  0.00  0.00    +0.014 A 
ENDROOT
BRANCH   1   9
ATOM      7  N   LIG    1        1.143   1.901   0.001  0.00  0.00    -0.309 N 
ATOM      8  H   LIG    1        1.130   2.871   0.007  0.00  0.00    +0.149 HD
ATOM      9  C   LIG    1       -0.014   1.211   0.009  0.00  0.00    +0.244 C 
ATOM     10  O   LIG    1        0.002  -0.004   0.002  0.00  0.00    -0.270 OA
BRANCH   7  12
ATOM     11  C   LIG    1        2.792   0.835  -1.457  0.00  0.00    +0.027 C 
ATOM     12  C   LIG    1        2.422   1.186  -0.015  0.00  0.00    +0.067 C 
ATOM     13  C   LIG    1        3.511   2.074   0.589  0.00  0.00    +0.027 C 
ENDBRANCH   7  12
ENDBRANCH   1   9
BRANCH   4  14
ATOM     14  C   LIG    1       -5.014   4.008   0.046  0.00  0.00    +0.265 C 
ATOM     15  O   LIG    1       -6.056   3.388   0.047  0.00  0.00    -0.283 OA
BRANCH  14  16
ATOM     16  C   LIG    1       -5.035   5.515   0.054  0.00  0.00    +0.455 C 
ATOM     17  F   LIG    1       -4.386   5.996  -1.088  0.00  0.00    -0.163 F 
ATOM     18  F   LIG    1       -4.377   5.984   1.197  0.00  0.00    -0.163 F 
ATOM     19  F   LIG    1       -6.360   5.963   0.062  0.00  0.00    -0.163 F 
ENDBRANCH  14  16
ENDBRANCH   4  14
TORSDOF 4
