REMARK  Name = ZINC05393058
REMARK                            x       y       z     vdW  Elec       q    Type
REMARK                         _______ _______ _______ _____ _____    ______ ____
ROOT
ATOM      1  C   LIG    1        2.174  -1.315  -0.289  0.00  0.00    +0.001 A 
ATOM      2  C   LIG    1        2.285   0.064  -0.268  0.00  0.00    +0.001 A 
ATOM      3  C   LIG    1        1.152   0.857  -0.226  0.00  0.00    +0.012 A 
ATOM      4  C   LIG    1       -0.108   0.265  -0.207  0.00  0.00    +0.033 A 
ATOM      5  C   LIG    1       -0.221  -1.136  -0.229  0.00  0.00    +0.033 A 
ATOM      6  C   LIG    1       -1.555  -1.772  -0.208  0.00  0.00    +0.198 C 
ATOM      7  C   LIG    1       -2.764  -0.940  -0.164  0.00  0.00    +0.078 A 
ATOM      8  C   LIG    1       -4.030  -1.536  -0.145  0.00  0.00    +0.130 A 
ATOM      9  C   LIG    1       -5.171  -0.744  -0.103  0.00  0.00    +0.072 A 
ATOM     10  C   LIG    1       -5.067   0.636  -0.081  0.00  0.00    +0.073 A 
ATOM     11  C   LIG    1       -3.805   1.251  -0.100  0.00  0.00    +0.149 A 
ATOM     12  C   LIG    1       -2.653   0.469  -0.141  0.00  0.00    +0.080 A 
ATOM     13  O   LIG    1       -1.651  -2.985  -0.227  0.00  0.00    -0.286 OA
ATOM     14  C   LIG    1       -1.324   1.104  -0.156  0.00  0.00    +0.198 C 
ATOM     15  O   LIG    1       -1.228   2.316  -0.137  0.00  0.00    -0.286 OA
ATOM     16  C   LIG    1        0.930  -1.919  -0.271  0.00  0.00    +0.012 A 
ENDROOT
BRANCH   8  17
ATOM     17  O   LIG    1       -4.143  -2.888  -0.167  0.00  0.00    -0.506 OA
ATOM     18  H   LIG    1       -4.154  -3.296   0.710  0.00  0.00    +0.292 HD
ENDBRANCH   8  17
BRANCH  10  19
ATOM     19  N   LIG    1       -6.217   1.416  -0.040  0.00  0.00    -0.341 N 
ATOM     20  H   LIG    1       -6.147   2.384  -0.025  0.00  0.00    +0.146 HD
BRANCH  19  21
ATOM     21  C   LIG    1       -7.535   0.778  -0.020  0.00  0.00    +0.100 C 
BRANCH  21  22
ATOM     22  C   LIG    1       -8.623   1.853   0.025  0.00  0.00    +0.000 C 
BRANCH  22  23
ATOM     23  C   LIG    1       -9.999   1.186   0.045  0.00  0.00    -0.077 C 
BRANCH  23  24
ATOM     24  N   LIG    1      -11.029   2.231   0.232  0.00  0.00    +0.383 N 
ATOM     25  H   LIG    1      -10.701   2.899   0.940  0.00  0.00    -0.082 HD
BRANCH  24  26
ATOM     26  C   LIG    1      -12.291   1.618   0.698  0.00  0.00    -0.051 C 
BRANCH  26  27
ATOM     27  C   LIG    1      -12.159   1.297   2.188  0.00  0.00    +0.137 C 
BRANCH  27  28
ATOM     28  O   LIG    1      -12.010   2.512   2.925  0.00  0.00    -0.397 OA
ATOM     29  H   LIG    1      -11.921   2.384   3.880  0.00  0.00    +0.209 HD
ENDBRANCH  27  28
ENDBRANCH  26  27
ENDBRANCH  24  26
BRANCH  24  30
ATOM     30  C   LIG    1      -11.255   2.950  -1.039  0.00  0.00    -0.051 C 
BRANCH  30  31
ATOM     31  C   LIG    1      -12.151   4.161  -0.768  0.00  0.00    +0.137 C 
BRANCH  31  32
ATOM     32  O   LIG    1      -11.470   5.073   0.095  0.00  0.00    -0.397 OA
ATOM     33  H   LIG    1      -11.980   5.866   0.310  0.00  0.00    +0.209 HD
ENDBRANCH  31  32
ENDBRANCH  30  31
ENDBRANCH  24  30
ENDBRANCH  23  24
ENDBRANCH  22  23
ENDBRANCH  21  22
ENDBRANCH  19  21
ENDBRANCH  10  19
BRANCH  11  34
ATOM     34  O   LIG    1       -3.708   2.604  -0.078  0.00  0.00    -0.504 OA
ATOM     35  H   LIG    1       -3.700   3.012  -0.955  0.00  0.00    +0.292 HD
ENDBRANCH  11  34
TORSDOF 13
