REMARK  Name = ZINC04980521
REMARK                            x       y       z     vdW  Elec       q    Type
REMARK                         _______ _______ _______ _____ _____    ______ ____
ROOT
ATOM      1  N   LIG    1        0.464   7.824  -1.045  0.00  0.00    +0.382 N 
ATOM      2  H   LIG    1        0.919   7.518  -1.913  0.00  0.00    -0.082 HD
ATOM      3  C   LIG    1       -0.913   7.288  -1.011  0.00  0.00    -0.060 C 
ATOM      4  C   LIG    1       -0.850   5.761  -1.099  0.00  0.00    +0.086 C 
ATOM      5  N   LIG    1       -0.069   5.239   0.030  0.00  0.00    -0.333 N 
ATOM      6  C   LIG    1        1.296   5.784   0.020  0.00  0.00    +0.086 C 
ATOM      7  C   LIG    1        1.233   7.311   0.108  0.00  0.00    -0.060 C 
ENDROOT
BRANCH   5   8
ATOM      8  C   LIG    1       -0.050   3.842   0.023  0.00  0.00    +0.030 A 
ATOM      9  C   LIG    1        1.161   3.163   0.008  0.00  0.00    +0.023 A 
ATOM     10  C   LIG    1        1.177   1.782   0.000  0.00  0.00    +0.002 A 
ATOM     11  C   LIG    1       -0.013   1.076   0.008  0.00  0.00    +0.012 A 
ATOM     12  C   LIG    1       -1.220   1.749   0.017  0.00  0.00    +0.057 A 
ATOM     13  C   LIG    1       -1.242   3.130   0.031  0.00  0.00    +0.035 A 
BRANCH  12  14
ATOM     14  C   LIG    1       -2.513   0.976   0.019  0.00  0.00    +0.417 C 
ATOM     15  F   LIG    1       -3.257   1.309  -1.118  0.00  0.00    -0.166 F 
ATOM     16  F   LIG    1       -3.247   1.295   1.166  0.00  0.00    -0.166 F 
ATOM     17  F   LIG    1       -2.236  -0.396   0.010  0.00  0.00    -0.166 F 
ENDBRANCH  12  14
ENDBRANCH   5   8
BRANCH   1  18
ATOM     18  C   LIG    1        0.431   9.302  -1.014  0.00  0.00    -0.074 C 
BRANCH  18  19
ATOM     19  C   LIG    1       -0.584   9.803  -2.043  0.00  0.00    +0.016 C 
BRANCH  19  23
ATOM     20  C   LIG    1       -0.642  14.075  -2.021  0.00  0.00    +0.000 A 
ATOM     21  C   LIG    1        0.223  13.399  -2.861  0.00  0.00    +0.000 A 
ATOM     22  C   LIG    1        0.242  12.017  -2.868  0.00  0.00    +0.003 A 
ATOM     23  C   LIG    1       -0.604  11.310  -2.035  0.00  0.00    -0.049 A 
ATOM     24  C   LIG    1       -1.474  11.985  -1.198  0.00  0.00    +0.003 A 
ATOM     25  C   LIG    1       -1.489  13.368  -1.188  0.00  0.00    +0.000 A 
ENDBRANCH  19  23
ENDBRANCH  18  19
ENDBRANCH   1  18
TORSDOF 5
