REMARK  Name = ZINC05382766
REMARK                            x       y       z     vdW  Elec       q    Type
REMARK                         _______ _______ _______ _____ _____    ______ ____
ROOT
ATOM      1  N   LIG    1       -1.318  -1.700  -1.126  0.00  0.00    -0.262 N 
ATOM      2  C   LIG    1       -1.814  -1.380  -2.386  0.00  0.00    +0.046 A 
ATOM      3  C   LIG    1       -2.375  -0.210  -2.886  0.00  0.00    +0.024 A 
ATOM      4  C   LIG    1       -2.798  -0.150  -4.199  0.00  0.00    +0.002 A 
ATOM      5  C   LIG    1       -2.670  -1.249  -5.033  0.00  0.00    +0.001 A 
ATOM      6  C   LIG    1       -2.116  -2.419  -4.555  0.00  0.00    +0.012 A 
ATOM      7  C   LIG    1       -1.686  -2.490  -3.233  0.00  0.00    +0.027 A 
ATOM      8  C   LIG    1       -1.065  -3.563  -2.427  0.00  0.00    +0.135 C 
ATOM      9  N   LIG    1       -0.760  -4.778  -2.814  0.00  0.00    -0.242 NA
ATOM     10  C   LIG    1       -0.859  -2.962  -1.085  0.00  0.00    +0.270 C 
ATOM     11  O   LIG    1       -0.365  -3.514  -0.121  0.00  0.00    -0.268 OA
ENDROOT
BRANCH   9  12
ATOM     12  C   LIG    1       -0.189  -5.647  -1.938  0.00  0.00    +0.066 A 
ATOM     13  C   LIG    1        0.857  -5.224  -1.107  0.00  0.00    +0.029 A 
ATOM     14  C   LIG    1        1.430  -6.111  -0.222  0.00  0.00    +0.023 A 
ATOM     15  C   LIG    1        0.976  -7.418  -0.152  0.00  0.00    +0.059 A 
ATOM     16 CL   LIG    1        1.705  -8.528   0.966  0.00  0.00    -0.082 Cl
ATOM     17  C   LIG    1       -0.059  -7.845  -0.972  0.00  0.00    +0.061 A 
ATOM     18 CL   LIG    1       -0.619  -9.486  -0.876  0.00  0.00    -0.082 Cl
ATOM     19  C   LIG    1       -0.647  -6.968  -1.858  0.00  0.00    +0.049 A 
ENDBRANCH   9  12
BRANCH   1  20
ATOM     20  C   LIG    1       -1.293  -0.775   0.010  0.00  0.00    +0.140 C 
BRANCH  20  22
ATOM     21  C   LIG    1       -0.016   1.306   0.009  0.00  0.00    +0.005 C 
ATOM     22  C   LIG    1        0.002  -0.004   0.002  0.00  0.00    -0.015 C 
ENDBRANCH  20  22
ENDBRANCH   1  20
TORSDOF 3
