REMARK  Name = ZINC05203255
REMARK                            x       y       z     vdW  Elec       q    Type
REMARK                         _______ _______ _______ _____ _____    ______ ____
ROOT
ATOM      1  C   LIG    1        3.252  -1.650  -0.231  0.00  0.00    +0.104 C 
ATOM      2  C   LIG    1        3.603  -2.388   1.045  0.00  0.00    +0.032 C 
ATOM      3  C   LIG    1        2.350  -2.713   1.854  0.00  0.00    +0.038 C 
ATOM      4  C   LIG    1        1.275  -3.240   0.938  0.00  0.00    -0.032 A 
ATOM      5  C   LIG    1        0.986  -4.589   0.914  0.00  0.00    +0.054 A 
ATOM      6  C   LIG    1       -0.012  -5.071   0.077  0.00  0.00    +0.165 A 
ATOM      7  C   LIG    1       -0.725  -4.201  -0.741  0.00  0.00    +0.204 A 
ATOM      8  C   LIG    1       -0.436  -2.843  -0.725  0.00  0.00    +0.173 A 
ATOM      9  C   LIG    1        0.572  -2.364   0.117  0.00  0.00    +0.031 A 
ATOM     10  C   LIG    1        0.893  -0.904   0.129  0.00  0.00    -0.009 A 
ATOM     11  C   LIG    1       -0.165  -0.040   0.257  0.00  0.00    +0.010 A 
ATOM     12  C   LIG    1       -0.243   1.298   0.354  0.00  0.00    +0.019 A 
ATOM     13  C   LIG    1        0.770   2.212   0.375  0.00  0.00    +0.054 A 
ATOM     14  C   LIG    1        2.129   1.914   0.288  0.00  0.00    +0.193 A 
ATOM     15  O   LIG    1        2.889   2.868   0.384  0.00  0.00    -0.287 OA
ATOM     16  C   LIG    1        2.723   0.699   0.111  0.00  0.00    +0.058 A 
ATOM     17  C   LIG    1        2.237  -0.553   0.021  0.00  0.00    -0.016 A 
ENDROOT
BRANCH   1  20
ATOM     18  C   LIG    1        5.814  -0.226  -2.693  0.00  0.00    +0.109 C 
ATOM     19  C   LIG    1        4.562  -0.837  -2.117  0.00  0.00    +0.210 C 
ATOM     20  N   LIG    1        4.468  -1.056  -0.791  0.00  0.00    -0.309 N 
ATOM     21  H   LIG    1        5.206  -0.822  -0.207  0.00  0.00    +0.149 HD
ATOM     22  O   LIG    1        3.639  -1.131  -2.847  0.00  0.00    -0.276 OA
ENDBRANCH   1  20
BRANCH   6  23
ATOM     23  O   LIG    1       -0.293  -6.401   0.056  0.00  0.00    -0.491 OA
ATOM     24  C   LIG    1        0.476  -7.240   0.920  0.00  0.00    +0.277 C 
ENDBRANCH   6  23
BRANCH   7  25
ATOM     25  O   LIG    1       -1.704  -4.680  -1.556  0.00  0.00    -0.488 OA
ATOM     26  C   LIG    1       -3.026  -4.741  -1.016  0.00  0.00    +0.277 C 
ENDBRANCH   7  25
BRANCH   8  27
ATOM     27  O   LIG    1       -1.128  -1.986  -1.521  0.00  0.00    -0.491 OA
ATOM     28  C   LIG    1       -0.666  -1.832  -2.865  0.00  0.00    +0.277 C 
ENDBRANCH   8  27
BRANCH  13  29
ATOM     29  S   LIG    1        0.324   3.910   0.524  0.00  0.00    -0.125 S 
ATOM     30  C   LIG    1       -1.478   3.756   0.598  0.00  0.00    +0.090 C 
ENDBRANCH  13  29
TORSDOF 5
