REMARK  Name = ZINC05850992
REMARK                            x       y       z     vdW  Elec       q    Type
REMARK                         _______ _______ _______ _____ _____    ______ ____
ROOT
ATOM      1  C   LIG    1       -2.188   1.063  -1.221  0.00  0.00    -0.005 C 
ATOM      2  C   LIG    1       -0.753   1.593  -1.232  0.00  0.00    +0.044 C 
ATOM      3  C   LIG    1       -0.013   1.086   0.008  0.00  0.00    +0.151 C 
ATOM      4  C   LIG    1       -0.729   1.579   1.267  0.00  0.00    +0.170 C 
ATOM      5  C   LIG    1       -2.164   1.050   1.278  0.00  0.00    +0.131 C 
ATOM      6  C   LIG    1       -2.904   1.556   0.038  0.00  0.00    -0.043 C 
ENDROOT
BRANCH   6   7
ATOM      7  N   LIG    1       -2.938   3.030   0.025  0.00  0.00    +0.382 N 
ATOM      8  H   LIG    1       -3.466   3.348  -0.795  0.00  0.00    -0.090 HD
ATOM      9  H   LIG    1       -1.990   3.400  -0.026  0.00  0.00    -0.090 HD
ATOM     10  H   LIG    1       -3.392   3.376   0.868  0.00  0.00    -0.090 HD
ENDBRANCH   6   7
BRANCH   3  11
ATOM     11  O   LIG    1        1.328   1.580  -0.002  0.00  0.00    -0.389 OA
ATOM     12  H   LIG    1        1.857   1.298   0.756  0.00  0.00    +0.210 HD
ENDBRANCH   3  11
BRANCH   4  13
ATOM     13  O   LIG    1       -0.038   1.106   2.425  0.00  0.00    -0.387 OA
ATOM     14  H   LIG    1       -0.437   1.381   3.261  0.00  0.00    +0.210 HD
ENDBRANCH   4  13
BRANCH   5  15
ATOM     15  O   LIG    1       -2.833   1.510   2.453  0.00  0.00    -0.391 OA
ATOM     16  H   LIG    1       -2.418   1.226   3.279  0.00  0.00    +0.210 HD
ENDBRANCH   5  15
BRANCH   2  17
ATOM     17  C   LIG    1       -0.037   1.099  -2.490  0.00  0.00    +0.162 C 
BRANCH  17  18
ATOM     18  O   LIG    1       -0.658   1.667  -3.645  0.00  0.00    -0.395 OA
ATOM     19  H   LIG    1       -0.254   1.397  -4.482  0.00  0.00    +0.209 HD
ENDBRANCH  17  18
ENDBRANCH   2  17
TORSDOF 6
