REMARK  Name = ZINC04942474
REMARK                            x       y       z     vdW  Elec       q    Type
REMARK                         _______ _______ _______ _____ _____    ______ ____
ROOT
ATOM      1  C   LIG    1        0.025   0.045   2.504  0.00  0.00    +0.137 C 
ATOM      2  C   LIG    1        1.452   0.504   2.864  0.00  0.00    +0.087 C 
ATOM      3  C   LIG    1        1.744  -0.202   4.169  0.00  0.00    +0.072 C 
ATOM      4  N   LIG    1        0.727  -0.917   4.508  0.00  0.00    -0.181 NA
ATOM      5  N   LIG    1       -0.342  -0.851   3.612  0.00  0.00    -0.185 N 
ATOM      6  C   LIG    1       -1.516  -1.501   3.738  0.00  0.00    +0.232 C 
ATOM      7  C   LIG    1       -1.761  -2.392   4.929  0.00  0.00    +0.111 C 
ATOM      8  O   LIG    1       -2.377  -1.369   2.893  0.00  0.00    -0.274 OA
ENDROOT
BRANCH   1  15
ATOM      9  C   LIG    1       -0.018   1.503   0.010  0.00  0.00    +0.044 C 
ATOM     10  C   LIG    1        0.002  -0.004   0.002  0.00  0.00    -0.045 A 
ATOM     11  C   LIG    1        0.006  -0.689  -1.199  0.00  0.00    +0.004 A 
ATOM     12  C   LIG    1        0.025  -2.071  -1.207  0.00  0.00    +0.000 A 
ATOM     13  C   LIG    1        0.040  -2.768  -0.013  0.00  0.00    +0.000 A 
ATOM     14  C   LIG    1        0.037  -2.084   1.188  0.00  0.00    +0.006 A 
ATOM     15  C   LIG    1        0.023  -0.702   1.195  0.00  0.00    -0.022 A 
ENDBRANCH   1  15
BRANCH   3  16
ATOM     16  C   LIG    1        2.998  -0.090   4.934  0.00  0.00    +0.039 A 
ATOM     17  C   LIG    1        4.035   0.723   4.469  0.00  0.00    +0.013 A 
ATOM     18  C   LIG    1        5.206   0.823   5.191  0.00  0.00    +0.001 A 
ATOM     19  C   LIG    1        5.359   0.121   6.374  0.00  0.00    +0.004 A 
ATOM     20  C   LIG    1        4.341  -0.686   6.845  0.00  0.00    +0.046 A 
ATOM     21  C   LIG    1        3.156  -0.795   6.136  0.00  0.00    +0.126 A 
BRANCH  21  22
ATOM     22  O   LIG    1        2.153  -1.584   6.600  0.00  0.00    -0.506 OA
ATOM     23  H   LIG    1        2.196  -2.498   6.289  0.00  0.00    +0.292 HD
ENDBRANCH  21  22
ENDBRANCH   3  16
TORSDOF 3
