REMARK  Name = ZINC05764539
REMARK                            x       y       z     vdW  Elec       q    Type
REMARK                         _______ _______ _______ _____ _____    ______ ____
ROOT
ATOM      1  C   LIG    1       -0.019   1.526   0.010  0.00  0.00    +0.015 C 
ATOM      2  C   LIG    1        0.002  -0.004   0.002  0.00  0.00    +0.011 C 
ATOM      3  C   LIG    1       -1.416  -0.538   0.073  0.00  0.00    +0.011 C 
ATOM      4  C   LIG    1       -2.078   0.098   1.306  0.00  0.00    +0.005 C 
ATOM      5  C   LIG    1       -1.299  -0.202   2.583  0.00  0.00    -0.000 C 
ATOM      6  C   LIG    1        0.174   0.215   2.464  0.00  0.00    -0.003 C 
ATOM      7  C   LIG    1        0.916  -0.201   3.738  0.00  0.00    +0.008 C 
ATOM      8  C   LIG    1        0.358   0.587   4.925  0.00  0.00    +0.031 C 
ATOM      9  C   LIG    1       -1.143   0.370   4.992  0.00  0.00    -0.064 C 
ATOM     10  C   LIG    1       -1.666   0.034   6.166  0.00  0.00    +0.026 C 
ATOM     11  C   LIG    1       -3.120  -0.172   6.292  0.00  0.00    +0.080 C 
ATOM     12  C   LIG    1       -3.987   0.485   5.235  0.00  0.00    +0.059 C 
ATOM     13  C   LIG    1       -3.400   0.119   3.873  0.00  0.00    +0.014 C 
ATOM     14  N   LIG    1       -3.629  -0.874   7.254  0.00  0.00    -0.092 NA
ATOM     15  C   LIG    1       -1.938   0.556   3.753  0.00  0.00    +0.019 C 
ATOM     16  C   LIG    1        0.863  -0.503  -1.154  0.00  0.00    +0.132 C 
ATOM     17  C   LIG    1        2.304  -0.573  -0.591  0.00  0.00    +0.049 C 
ATOM     18  C   LIG    1        2.207  -0.192   0.912  0.00  0.00    +0.008 C 
ATOM     19  C   LIG    1        0.751  -0.527   1.257  0.00  0.00    +0.002 C 
ENDROOT
BRANCH  14  20
ATOM     20  O   LIG    1       -5.032  -1.046   7.338  0.00  0.00    -0.409 OA
ATOM     21  H   LIG    1       -5.318  -1.586   8.088  0.00  0.00    +0.328 HD
ENDBRANCH  14  20
BRANCH  16  22
ATOM     22  O   LIG    1        0.803   0.414  -2.248  0.00  0.00    -0.376 OA
ATOM     23  H   LIG    1        1.332   0.149  -3.013  0.00  0.00    +0.211 HD
ENDBRANCH  16  22
BRANCH  16  24
ATOM     24  C   LIG    1        0.417  -1.839  -1.582  0.00  0.00    -0.070 C 
ATOM     25  C   LIG    1        0.061  -2.905  -1.924  0.00  0.00    +0.007 C 
ENDBRANCH  16  24
TORSDOF 3
