REMARK  Name = ZINC04935067
REMARK                            x       y       z     vdW  Elec       q    Type
REMARK                         _______ _______ _______ _____ _____    ______ ____
ROOT
ATOM      1  N   LIG    1       -1.191   1.870   0.018  0.00  0.00    -0.297 N 
ATOM      2  H   LIG    1       -1.204   2.840   0.023  0.00  0.00    +0.151 HD
ATOM      3  C   LIG    1       -0.014   1.212   0.009  0.00  0.00    +0.300 C 
ATOM      4  N   LIG    1        1.143   1.901   0.001  0.00  0.00    -0.294 N 
ATOM      5  H   LIG    1        1.130   2.871   0.007  0.00  0.00    +0.151 HD
ATOM      6  O   LIG    1        0.002  -0.004   0.002  0.00  0.00    -0.253 OA
ENDROOT
BRANCH   4   7
ATOM      7  C   LIG    1        2.422   1.186  -0.015  0.00  0.00    +0.037 C 
ATOM      8  C   LIG    1        2.503   0.315  -1.270  0.00  0.00    +0.029 C 
ATOM      9  C   LIG    1        3.838  -0.432  -1.286  0.00  0.00    -0.008 C 
ATOM     10  C   LIG    1        4.987   0.578  -1.292  0.00  0.00    +0.007 C 
ATOM     11  C   LIG    1        4.907   1.449  -0.037  0.00  0.00    -0.008 C 
ATOM     12  C   LIG    1        5.011   0.564   1.207  0.00  0.00    +0.007 C 
ATOM     13  C   LIG    1        3.862  -0.446   1.212  0.00  0.00    -0.008 C 
ATOM     14  C   LIG    1        3.943  -1.317  -0.043  0.00  0.00    +0.007 C 
ATOM     15  C   LIG    1        2.527   0.301   1.229  0.00  0.00    +0.029 C 
ATOM     16  C   LIG    1        3.571   2.196  -0.020  0.00  0.00    +0.029 C 
ENDBRANCH   4   7
BRANCH   1  24
ATOM     17  C   LIG    1       -2.833   0.761  -1.418  0.00  0.00    +0.003 C 
ATOM     18  C   LIG    1       -4.179   0.033  -1.415  0.00  0.00    -0.081 C 
ATOM     19  N   LIG    1       -5.214   0.901  -0.822  0.00  0.00    +0.379 N 
ATOM     20  H   LIG    1       -5.272   1.773  -1.359  0.00  0.00    -0.086 HD
ATOM     21  H   LIG    1       -6.120   0.418  -0.854  0.00  0.00    -0.086 HD
ATOM     22  C   LIG    1       -4.880   1.215   0.581  0.00  0.00    -0.081 C 
ATOM     23  C   LIG    1       -3.556   1.980   0.637  0.00  0.00    +0.003 C 
ATOM     24  C   LIG    1       -2.449   1.120   0.020  0.00  0.00    +0.071 C 
ENDBRANCH   1  24
TORSDOF 2
