REMARK  Name = ZINC05646855
REMARK                            x       y       z     vdW  Elec       q    Type
REMARK                         _______ _______ _______ _____ _____    ______ ____
ROOT
ATOM      1  C   LIG    1        3.258  -0.512  -0.191  0.00  0.00    +0.024 A 
ATOM      2  C   LIG    1        3.751  -1.226  -1.301  0.00  0.00    +0.072 A 
ATOM      3  C   LIG    1        5.114  -1.591  -1.310  0.00  0.00    +0.180 A 
ATOM      4  N   LIG    1        5.329  -2.264  -2.481  0.00  0.00    -0.257 N 
ATOM      5  N   LIG    1        4.133  -2.329  -3.204  0.00  0.00    -0.156 NA
ATOM      6  H   LIG    1        6.177  -2.639  -2.766  0.00  0.00    +0.191 HD
ATOM      7  N   LIG    1        5.885  -1.254  -0.283  0.00  0.00    -0.129 NA
ATOM      8  N   LIG    1        5.436  -0.604   0.727  0.00  0.00    -0.147 NA
ATOM      9  C   LIG    1        3.177  -1.728  -2.543  0.00  0.00    +0.158 A 
ATOM     10  C   LIG    1        4.170  -0.209   0.833  0.00  0.00    +0.102 A 
ENDROOT
BRANCH   1  14
ATOM     11  C   LIG    1       -0.811   0.687   0.039  0.00  0.00    +0.000 A 
ATOM     12  C   LIG    1        0.179   1.639  -0.122  0.00  0.00    +0.001 A 
ATOM     13  C   LIG    1        1.502   1.256  -0.198  0.00  0.00    +0.008 A 
ATOM     14  C   LIG    1        1.841  -0.095  -0.111  0.00  0.00    -0.015 A 
ATOM     15  C   LIG    1        0.837  -1.050   0.052  0.00  0.00    +0.008 A 
ATOM     16  C   LIG    1       -0.482  -0.654   0.126  0.00  0.00    +0.001 A 
ENDBRANCH   1  14
BRANCH  10  17
ATOM     17  C   LIG    1        3.723   0.545   2.027  0.00  0.00    +0.003 A 
ATOM     18  C   LIG    1        2.522   0.215   2.654  0.00  0.00    +0.010 A 
ATOM     19  C   LIG    1        2.111   0.920   3.767  0.00  0.00    +0.001 A 
ATOM     20  C   LIG    1        2.888   1.953   4.260  0.00  0.00    +0.000 A 
ATOM     21  C   LIG    1        4.081   2.284   3.643  0.00  0.00    +0.001 A 
ATOM     22  C   LIG    1        4.505   1.583   2.533  0.00  0.00    +0.010 A 
ENDBRANCH  10  17
BRANCH   9  23
ATOM     23  N   LIG    1        1.847  -1.593  -2.954  0.00  0.00    -0.252 N 
ATOM     24  H   LIG    1        1.210  -1.128  -2.389  0.00  0.00    +0.158 HD
BRANCH  23  25
ATOM     25  C   LIG    1        1.443  -2.118  -4.155  0.00  0.00    +0.286 C 
ATOM     26  N   LIG    1        0.196  -1.992  -4.539  0.00  0.00    -0.199 NA
BRANCH  26  27
ATOM     27  C   LIG    1       -0.239  -2.627  -5.672  0.00  0.00    +0.069 A 
ATOM     28  C   LIG    1       -0.091  -4.009  -5.802  0.00  0.00    +0.028 A 
ATOM     29  C   LIG    1       -0.532  -4.643  -6.945  0.00  0.00    +0.002 A 
ATOM     30  C   LIG    1       -1.120  -3.912  -7.962  0.00  0.00    +0.000 A 
ATOM     31  C   LIG    1       -1.270  -2.542  -7.840  0.00  0.00    +0.002 A 
ATOM     32  C   LIG    1       -0.839  -1.897  -6.700  0.00  0.00    +0.028 A 
ENDBRANCH  26  27
BRANCH  25  33
ATOM     33  O   LIG    1        2.329  -2.766  -4.941  0.00  0.00    -0.481 OA
ATOM     34  H   LIG    1        1.966  -3.052  -5.790  0.00  0.00    +0.295 HD
ENDBRANCH  25  33
ENDBRANCH  23  25
ENDBRANCH   9  23
TORSDOF 6
