REMARK  Name = ZINC05819379
REMARK                            x       y       z     vdW  Elec       q    Type
REMARK                         _______ _______ _______ _____ _____    ______ ____
ROOT
ATOM      1  C   LIG    1        1.267  -2.144  -0.022  0.00  0.00    +0.158 A 
ATOM      2  N   LIG    1        2.359  -2.871  -0.031  0.00  0.00    -0.226 NA
ATOM      3  C   LIG    1        2.036  -4.176  -0.036  0.00  0.00    +0.092 A 
ATOM      4  C   LIG    1        0.628  -4.259  -0.029  0.00  0.00    +0.085 A 
ATOM      5  C   LIG    1        0.029  -5.509  -0.033  0.00  0.00    +0.138 A 
ATOM      6  N   LIG    1        0.770  -6.600  -0.041  0.00  0.00    -0.261 NA
ATOM      7  C   LIG    1        2.091  -6.557  -0.047  0.00  0.00    +0.113 A 
ATOM      8  C   LIG    1        2.768  -5.370  -0.045  0.00  0.00    +0.049 A 
ATOM      9  N   LIG    1        0.169  -2.959  -0.015  0.00  0.00    -0.335 N 
ATOM     10  H   LIG    1       -0.773  -2.671  -0.002  0.00  0.00    +0.167 HD
ENDROOT
BRANCH   1  15
ATOM     11  C   LIG    1       -0.017   1.380   0.010  0.00  0.00    +0.004 A 
ATOM     12  C   LIG    1        1.193   2.059   0.002  0.00  0.00    +0.020 A 
ATOM     13  C   LIG    1        2.375   1.339  -0.013  0.00  0.00    +0.111 A 
ATOM     14  N   LIG    1        2.365   0.023  -0.020  0.00  0.00    -0.252 NA
ATOM     15  C   LIG    1        1.230  -0.665  -0.013  0.00  0.00    +0.106 A 
ATOM     16  C   LIG    1        0.002  -0.004   0.002  0.00  0.00    +0.031 A 
ENDBRANCH   1  15
TORSDOF 1
