REMARK  Name = ZINC04851561
REMARK                            x       y       z     vdW  Elec       q    Type
REMARK                         _______ _______ _______ _____ _____    ______ ____
ROOT
ATOM      1  N   LIG    1        4.188  -0.702   0.122  0.00  0.00    -0.194 N 
ENDROOT
BRANCH   1   2
ATOM      2  C   LIG    1        4.508  -2.024  -0.195  0.00  0.00    +0.052 A 
ATOM      3  C   LIG    1        5.745  -2.546   0.164  0.00  0.00    +0.025 A 
ATOM      4  C   LIG    1        6.057  -3.854  -0.150  0.00  0.00    +0.005 A 
ATOM      5  C   LIG    1        5.142  -4.644  -0.822  0.00  0.00    -0.050 A 
ATOM      6  C   LIG    1        5.487  -6.070  -1.164  0.00  0.00    +0.044 C 
ATOM      7  C   LIG    1        3.910  -4.127  -1.180  0.00  0.00    +0.005 A 
ATOM      8  C   LIG    1        3.589  -2.821  -0.864  0.00  0.00    +0.025 A 
ENDBRANCH   1   2
BRANCH   1   9
ATOM      9  S   LIG    1        4.986   0.544  -0.622  0.00  0.00    +0.075 S 
ATOM     10  O   LIG    1        4.074   1.631  -0.685  0.00  0.00    -0.150 OA
ATOM     11  O   LIG    1        5.601  -0.002  -1.781  0.00  0.00    -0.150 OA
BRANCH   9  12
ATOM     12  C   LIG    1        6.291   1.043   0.453  0.00  0.00    +0.112 A 
ATOM     13  C   LIG    1        6.031   1.916   1.493  0.00  0.00    +0.032 A 
ATOM     14  C   LIG    1        7.051   2.310   2.339  0.00  0.00    +0.051 A 
ATOM     15  C   LIG    1        8.336   1.830   2.145  0.00  0.00    +0.162 A 
ATOM     16  C   LIG    1        8.597   0.952   1.098  0.00  0.00    +0.163 A 
ATOM     17  C   LIG    1        7.570   0.556   0.257  0.00  0.00    +0.078 A 
BRANCH  15  18
ATOM     18  O   LIG    1        9.341   2.217   2.976  0.00  0.00    -0.491 OA
ATOM     19  C   LIG    1        9.000   3.122   4.029  0.00  0.00    +0.277 C 
ENDBRANCH  15  18
BRANCH  16  20
ATOM     20  O   LIG    1        9.857   0.478   0.904  0.00  0.00    -0.491 OA
ATOM     21  C   LIG    1       10.051  -0.420  -0.190  0.00  0.00    +0.277 C 
ENDBRANCH  16  20
ENDBRANCH   9  12
ENDBRANCH   1   9
BRANCH   1  22
ATOM     22  C   LIG    1        3.147  -0.417   1.112  0.00  0.00    +0.227 C 
BRANCH  22  24
ATOM     23  N   LIG    1        2.969  -0.216   3.571  0.00  0.00    -0.301 N 
ATOM     24  C   LIG    1        3.745  -0.451   2.495  0.00  0.00    +0.235 C 
ATOM     25  O   LIG    1        4.926  -0.690   2.639  0.00  0.00    -0.274 OA
BRANCH  23  27
ATOM     26  C   LIG    1        1.343   1.581   3.243  0.00  0.00    +0.024 C 
ATOM     27  C   LIG    1        1.543   0.072   3.397  0.00  0.00    +0.104 C 
ENDBRANCH  23  27
BRANCH  23  28
ATOM     28  C   LIG    1        3.551  -0.250   4.915  0.00  0.00    +0.104 C 
ATOM     29  C   LIG    1        3.457  -1.670   5.476  0.00  0.00    +0.024 C 
ENDBRANCH  23  28
ENDBRANCH  22  24
ENDBRANCH   1  22
TORSDOF 9
