REMARK  Name = ZINC05041294
REMARK                            x       y       z     vdW  Elec       q    Type
REMARK                         _______ _______ _______ _____ _____    ______ ____
ROOT
ATOM      1  N   LIG    1       -2.130   7.100  -0.950  0.00  0.00    -0.297 N 
ATOM      2  H   LIG    1       -1.710   7.586  -0.224  0.00  0.00    +0.151 HD
ATOM      3  C   LIG    1       -2.112   5.752  -0.958  0.00  0.00    +0.300 C 
ATOM      4  N   LIG    1       -1.510   5.081   0.044  0.00  0.00    -0.294 N 
ATOM      5  H   LIG    1       -1.089   5.567   0.770  0.00  0.00    +0.151 HD
ATOM      6  O   LIG    1       -2.639   5.142  -1.868  0.00  0.00    -0.253 OA
ENDROOT
BRANCH   4   7
ATOM      7  C   LIG    1       -1.490   3.616   0.036  0.00  0.00    +0.037 C 
ATOM      8  C   LIG    1       -0.773   3.123  -1.223  0.00  0.00    +0.029 C 
ATOM      9  C   LIG    1       -0.753   1.593  -1.232  0.00  0.00    -0.008 C 
ATOM     10  C   LIG    1       -0.013   1.086   0.008  0.00  0.00    +0.007 C 
ATOM     11  C   LIG    1       -0.729   1.579   1.267  0.00  0.00    -0.008 C 
ATOM     12  C   LIG    1       -2.164   1.050   1.278  0.00  0.00    +0.007 C 
ATOM     13  C   LIG    1       -2.904   1.556   0.038  0.00  0.00    -0.008 C 
ATOM     14  C   LIG    1       -2.188   1.063  -1.221  0.00  0.00    +0.007 C 
ATOM     15  C   LIG    1       -2.925   3.086   0.047  0.00  0.00    +0.029 C 
ATOM     16  C   LIG    1       -0.750   3.109   1.275  0.00  0.00    +0.029 C 
ENDBRANCH   4   7
BRANCH   1  21
ATOM     17  N   LIG    1       -2.847  10.143  -3.772  0.00  0.00    +0.382 N 
ATOM     18  H   LIG    1       -2.010  10.594  -3.385  0.00  0.00    -0.081 HD
ATOM     19  C   LIG    1       -2.473   8.818  -4.310  0.00  0.00    -0.077 C 
ATOM     20  C   LIG    1       -1.803   8.003  -3.201  0.00  0.00    +0.004 C 
ATOM     21  C   LIG    1       -2.785   7.829  -2.039  0.00  0.00    +0.071 C 
ATOM     22  C   LIG    1       -3.222   9.209  -1.540  0.00  0.00    +0.004 C 
ATOM     23  C   LIG    1       -3.850   9.990  -2.697  0.00  0.00    -0.077 C 
BRANCH  17  24
ATOM     24  C   LIG    1       -3.392  10.991  -4.853  0.00  0.00    -0.043 C 
BRANCH  24  28
ATOM     25  C   LIG    1       -0.254  11.897  -7.606  0.00  0.00    +0.000 A 
ATOM     26  C   LIG    1       -1.045  10.781  -7.803  0.00  0.00    +0.000 A 
ATOM     27  C   LIG    1       -2.061  10.488  -6.912  0.00  0.00    +0.002 A 
ATOM     28  C   LIG    1       -2.285  11.310  -5.824  0.00  0.00    -0.064 A 
ATOM     29  C   LIG    1       -1.497  12.430  -5.630  0.00  0.00    +0.002 A 
ATOM     30  C   LIG    1       -0.478  12.720  -6.518  0.00  0.00    +0.000 A 
ENDBRANCH  24  28
ENDBRANCH  17  24
ENDBRANCH   1  21
TORSDOF 4
