REMARK  Name = ZINC04820272
REMARK                            x       y       z     vdW  Elec       q    Type
REMARK                         _______ _______ _______ _____ _____    ______ ____
ROOT
ATOM      1  C   LIG    1        3.813   3.340  -0.323  0.00  0.00    +0.037 A 
ATOM      2  C   LIG    1        2.748   3.867   0.413  0.00  0.00    +0.015 A 
ATOM      3  C   LIG    1        1.554   3.186   0.476  0.00  0.00    +0.024 A 
ATOM      4  C   LIG    1        1.406   1.974  -0.193  0.00  0.00    +0.034 A 
ATOM      5  C   LIG    1        2.466   1.445  -0.923  0.00  0.00    +0.024 A 
ATOM      6  C   LIG    1        3.662   2.123  -0.994  0.00  0.00    +0.015 A 
ENDROOT
BRANCH   1  16
ATOM      7  C   LIG    1        9.796   5.483  -1.217  0.00  0.00    +0.000 A 
ATOM      8  C   LIG    1        8.583   6.146  -1.268  0.00  0.00    +0.002 A 
ATOM      9  C   LIG    1        7.409   5.449  -1.067  0.00  0.00    +0.024 A 
ATOM     10  C   LIG    1        7.445   4.082  -0.815  0.00  0.00    +0.040 A 
ATOM     11  C   LIG    1        8.660   3.418  -0.766  0.00  0.00    -0.026 A 
ATOM     12  C   LIG    1        8.738   1.938  -0.502  0.00  0.00    +0.038 C 
ATOM     13  C   LIG    1        7.459   1.448   0.177  0.00  0.00    +0.024 C 
ATOM     14  C   LIG    1        6.252   1.925  -0.633  0.00  0.00    +0.114 C 
ATOM     15  N   LIG    1        6.242   3.394  -0.611  0.00  0.00    -0.267 N 
ATOM     16  C   LIG    1        5.095   4.068  -0.393  0.00  0.00    +0.251 C 
ATOM     17  O   LIG    1        5.117   5.276  -0.253  0.00  0.00    -0.270 OA
ATOM     18  C   LIG    1        9.834   4.125  -0.967  0.00  0.00    +0.005 A 
ENDBRANCH   1  16
BRANCH   4  19
ATOM     19  N   LIG    1        0.196   1.287  -0.127  0.00  0.00    -0.282 N 
ATOM     20  H   LIG    1       -0.344   1.331   0.677  0.00  0.00    +0.155 HD
ATOM     21  C   LIG    1       -0.228   0.565  -1.183  0.00  0.00    +0.248 C 
ATOM     22  O   LIG    1        0.396   0.591  -2.227  0.00  0.00    -0.270 OA
BRANCH  21  23
ATOM     23  C   LIG    1       -1.450  -0.259  -1.074  0.00  0.00    +0.037 A 
ATOM     24  C   LIG    1       -2.165  -0.296   0.125  0.00  0.00    +0.015 A 
ATOM     25  C   LIG    1       -3.308  -1.062   0.219  0.00  0.00    +0.033 A 
ATOM     26  C   LIG    1       -3.740  -1.803  -0.867  0.00  0.00    +0.122 A 
ATOM     27  C   LIG    1       -3.033  -1.775  -2.056  0.00  0.00    +0.033 A 
ATOM     28  C   LIG    1       -1.891  -1.008  -2.166  0.00  0.00    +0.015 A 
BRANCH  26  29
ATOM     29  N   LIG    1       -4.964  -2.627  -0.757  0.00  0.00    +0.006 N 
ATOM     30  O   LIG    1       -5.347  -3.280  -1.712  0.00  0.00    -0.130 OA
BRANCH  29  31
ATOM     31  O   LIG    1       -5.589  -2.654   0.288  0.00  0.00    -0.396 OA
ATOM     32  H   LIG    1       -5.294  -2.152   1.022  0.00  0.00    +0.329 HD
ENDBRANCH  29  31
ENDBRANCH  26  29
ENDBRANCH  21  23
ENDBRANCH   4  19
TORSDOF 5
