REMARK  Name = ZINC05782223
REMARK                            x       y       z     vdW  Elec       q    Type
REMARK                         _______ _______ _______ _____ _____    ______ ____
ROOT
ATOM      1  C   LIG    1       -0.326  -4.462   2.399  0.00  0.00    +0.394 C 
ATOM      2  N   LIG    1       -0.647  -5.324   3.331  0.00  0.00    -0.288 N 
ATOM      3  H   LIG    1       -0.901  -5.011   4.214  0.00  0.00    +0.255 HD
ATOM      4  H   LIG    1       -0.632  -6.274   3.139  0.00  0.00    +0.255 HD
ENDROOT
BRANCH   1   5
ATOM      5  N   LIG    1       -0.340  -3.108   2.675  0.00  0.00    -0.243 N 
ATOM      6  H   LIG    1       -0.511  -2.799   3.578  0.00  0.00    +0.265 HD
BRANCH   5  12
ATOM      7  C   LIG    1       -0.736  -1.849  -2.061  0.00  0.00    +0.044 C 
ATOM      8  C   LIG    1       -0.289  -1.547  -0.653  0.00  0.00    -0.047 A 
ATOM      9  C   LIG    1        0.351  -0.354  -0.373  0.00  0.00    +0.003 A 
ATOM     10  C   LIG    1        0.763  -0.073   0.917  0.00  0.00    +0.004 A 
ATOM     11  C   LIG    1        0.535  -0.984   1.930  0.00  0.00    +0.042 A 
ATOM     12  C   LIG    1       -0.108  -2.183   1.652  0.00  0.00    +0.100 A 
ATOM     13  C   LIG    1       -0.525  -2.460   0.356  0.00  0.00    +0.045 A 
ENDBRANCH   5  12
ENDBRANCH   1   5
BRANCH   1  14
ATOM     14  N   LIG    1        0.019  -4.896   1.170  0.00  0.00    -0.006 NA
ATOM     15  C   LIG    1        0.824  -5.933   1.038  0.00  0.00    +0.387 C 
BRANCH  15  16
ATOM     16  N   LIG    1        1.080  -6.447  -0.203  0.00  0.00    -0.289 N 
ATOM     17  H   LIG    1        1.671  -7.209  -0.299  0.00  0.00    +0.255 HD
ATOM     18  H   LIG    1        0.670  -6.048  -0.986  0.00  0.00    +0.255 HD
ENDBRANCH  15  16
BRANCH  15  19
ATOM     19  N   LIG    1        1.401  -6.495   2.143  0.00  0.00    -0.289 N 
ATOM     20  H   LIG    1        1.996  -7.255   2.045  0.00  0.00    +0.255 HD
ATOM     21  H   LIG    1        1.216  -6.134   3.023  0.00  0.00    +0.255 HD
ENDBRANCH  15  19
ENDBRANCH   1  14
TORSDOF 5
