REMARK  Name = ZINC05394709
REMARK                            x       y       z     vdW  Elec       q    Type
REMARK                         _______ _______ _______ _____ _____    ______ ____
ROOT
ATOM      1  C   LIG    1        4.744  -3.117   0.441  0.00  0.00    +0.149 C 
ATOM      2  N   LIG    1        5.926  -2.259   0.320  0.00  0.00    -0.339 N 
ATOM      3  C   LIG    1        7.230  -2.693   0.286  0.00  0.00    +0.049 A 
ATOM      4  C   LIG    1        7.816  -3.955   0.349  0.00  0.00    +0.026 A 
ATOM      5  C   LIG    1        9.186  -4.076   0.294  0.00  0.00    +0.002 A 
ATOM      6  C   LIG    1        9.993  -2.951   0.178  0.00  0.00    +0.001 A 
ATOM      7  C   LIG    1        9.442  -1.704   0.115  0.00  0.00    +0.010 A 
ATOM      8  C   LIG    1        8.050  -1.554   0.168  0.00  0.00    +0.001 A 
ATOM      9  C   LIG    1        7.191  -0.429   0.128  0.00  0.00    +0.041 A 
ATOM     10  C   LIG    1        5.912  -0.882   0.219  0.00  0.00    +0.106 A 
ENDROOT
BRANCH  10  11
ATOM     11  C   LIG    1        4.708  -0.039   0.215  0.00  0.00    +0.267 C 
ATOM     12  N   LIG    1        4.804   1.274  -0.076  0.00  0.00    -0.269 N 
ATOM     13  C   LIG    1        6.080   1.830  -0.534  0.00  0.00    +0.138 C 
ATOM     14  O   LIG    1        3.624  -0.526   0.475  0.00  0.00    -0.268 OA
BRANCH  12  15
ATOM     15  C   LIG    1        3.688   2.104   0.059  0.00  0.00    +0.036 A 
ATOM     16  C   LIG    1        3.744   3.423  -0.373  0.00  0.00    +0.023 A 
ATOM     17  C   LIG    1        2.639   4.240  -0.238  0.00  0.00    +0.002 A 
ATOM     18  C   LIG    1        1.477   3.747   0.326  0.00  0.00    +0.000 A 
ATOM     19  C   LIG    1        1.417   2.434   0.757  0.00  0.00    +0.002 A 
ATOM     20  C   LIG    1        2.519   1.611   0.626  0.00  0.00    +0.023 A 
ENDBRANCH  12  15
ENDBRANCH  10  11
TORSDOF 2
