REMARK  Name = ZINC05133132
REMARK                            x       y       z     vdW  Elec       q    Type
REMARK                         _______ _______ _______ _____ _____    ______ ____
ROOT
ATOM      1  C   LIG    1       -0.018   1.475   0.010  0.00  0.00    +0.073 C 
ATOM      2  C   LIG    1        1.262   1.881   0.000  0.00  0.00    +0.073 C 
ATOM      3  C   LIG    1        2.098   0.660  -0.014  0.00  0.00    +0.243 C 
ATOM      4  N   LIG    1        1.284  -0.411  -0.012  0.00  0.00    -0.249 N 
ATOM      5  H   LIG    1        1.577  -1.336  -0.021  0.00  0.00    +0.158 HD
ATOM      6  O   LIG    1        3.311   0.629  -0.026  0.00  0.00    -0.270 OA
ATOM      7  C   LIG    1        0.002  -0.004   0.002  0.00  0.00    +0.243 C 
ATOM      8  O   LIG    1       -0.973  -0.727   0.008  0.00  0.00    -0.270 OA
ENDROOT
TORSDOF 0
