REMARK  Name = ZINC05853034
REMARK                            x       y       z     vdW  Elec       q    Type
REMARK                         _______ _______ _______ _____ _____    ______ ____
ROOT
ATOM      1  N   LIG    1        1.127  -5.299   0.553  0.00  0.00    -0.160 NA
ATOM      2  C   LIG    1        1.496  -5.258  -0.874  0.00  0.00    +0.141 C 
ATOM      3  C   LIG    1        2.930  -5.841  -0.930  0.00  0.00    +0.132 C 
ATOM      4  C   LIG    1        3.547  -5.274   0.376  0.00  0.00    +0.064 C 
ATOM      5  C   LIG    1        2.357  -5.287   1.358  0.00  0.00    +0.191 C 
ENDROOT
BRANCH   1   6
ATOM      6  S   LIG    1       -0.417  -5.342   1.149  0.00  0.00    +0.062 S 
ATOM      7  O   LIG    1       -0.338  -4.938   2.510  0.00  0.00    -0.153 OA
ATOM      8  O   LIG    1       -1.238  -4.673   0.202  0.00  0.00    -0.153 OA
BRANCH   6  13
ATOM      9  C   LIG    1       -2.164 -11.117   1.166  0.00  0.00    +0.044 C 
ATOM     10  C   LIG    1       -1.728  -9.675   1.162  0.00  0.00    -0.050 A 
ATOM     11  C   LIG    1       -1.005  -9.169   2.226  0.00  0.00    +0.005 A 
ATOM     12  C   LIG    1       -0.604  -7.846   2.222  0.00  0.00    +0.029 A 
ATOM     13  C   LIG    1       -0.927  -7.029   1.154  0.00  0.00    +0.106 A 
ATOM     14  C   LIG    1       -1.649  -7.536   0.090  0.00  0.00    +0.029 A 
ATOM     15  C   LIG    1       -2.046  -8.860   0.092  0.00  0.00    +0.005 A 
ENDBRANCH   6  13
ENDBRANCH   1   6
BRANCH   3  16
ATOM     16  O   LIG    1        2.904  -7.270  -0.906  0.00  0.00    -0.390 OA
ATOM     17  H   LIG    1        2.440  -7.667  -1.656  0.00  0.00    +0.210 HD
ENDBRANCH   3  16
BRANCH   5  18
ATOM     18  C   LIG    1        2.390  -4.055   2.225  0.00  0.00    +0.326 C 
ATOM     19  O   LIG    1        1.798  -3.059   1.882  0.00  0.00    -0.249 OA
BRANCH  18  20
ATOM     20  O   LIG    1        3.078  -4.064   3.377  0.00  0.00    -0.467 OA
ATOM     21  C   LIG    1        3.066  -2.861   4.149  0.00  0.00    +0.280 C 
ENDBRANCH  18  20
ENDBRANCH   5  18
TORSDOF 5
