REMARK  Name = ZINC05782223
REMARK                            x       y       z     vdW  Elec       q    Type
REMARK                         _______ _______ _______ _____ _____    ______ ____
ROOT
ATOM      1  C   LIG    1       -1.142  -2.606   3.531  0.00  0.00    +0.393 C 
ATOM      2  N   LIG    1       -1.696  -1.433   3.416  0.00  0.00    -0.129 NA
ATOM      3  H   LIG    1       -1.612  -0.784   4.132  0.00  0.00    +0.306 HD
ENDROOT
BRANCH   1   4
ATOM      4  N   LIG    1       -1.173  -3.488   2.475  0.00  0.00    -0.243 N 
ATOM      5  H   LIG    1       -0.842  -4.393   2.589  0.00  0.00    +0.265 HD
BRANCH   4  11
ATOM      6  C   LIG    1       -2.121   0.116  -0.731  0.00  0.00    +0.044 C 
ATOM      7  C   LIG    1       -2.154  -1.339  -0.342  0.00  0.00    -0.047 A 
ATOM      8  C   LIG    1       -2.690  -2.274  -1.210  0.00  0.00    +0.003 A 
ATOM      9  C   LIG    1       -2.723  -3.610  -0.857  0.00  0.00    +0.004 A 
ATOM     10  C   LIG    1       -2.220  -4.016   0.364  0.00  0.00    +0.042 A 
ATOM     11  C   LIG    1       -1.682  -3.080   1.238  0.00  0.00    +0.100 A 
ATOM     12  C   LIG    1       -1.645  -1.739   0.878  0.00  0.00    +0.045 A 
ENDBRANCH   4  11
ENDBRANCH   1   4
BRANCH   1  13
ATOM     13  N   LIG    1       -0.523  -2.964   4.711  0.00  0.00    -0.186 N 
ATOM     14  H   LIG    1       -0.577  -2.379   5.483  0.00  0.00    +0.271 HD
BRANCH  13  15
ATOM     15  C   LIG    1        0.171  -4.152   4.793  0.00  0.00    +0.385 C 
ATOM     16  N   LIG    1        0.347  -4.726   5.949  0.00  0.00    -0.129 NA
ATOM     17  H   LIG    1       -0.071  -4.356   6.742  0.00  0.00    +0.306 HD
BRANCH  15  18
ATOM     18  N   LIG    1        0.678  -4.732   3.654  0.00  0.00    -0.289 N 
ATOM     19  H   LIG    1        0.977  -5.655   3.671  0.00  0.00    +0.255 HD
ATOM     20  H   LIG    1        0.736  -4.219   2.833  0.00  0.00    +0.255 HD
ENDBRANCH  15  18
ENDBRANCH  13  15
ENDBRANCH   1  13
TORSDOF 5
