REMARK  Name = ZINC05420113
REMARK                            x       y       z     vdW  Elec       q    Type
REMARK                         _______ _______ _______ _____ _____    ______ ____
ROOT
ATOM      1  C   LIG    1       -0.889   1.403   1.295  0.00  0.00    +0.107 C 
ENDROOT
BRANCH   1   2
ATOM      2  C   LIG    1       -0.901   2.900   1.463  0.00  0.00    +0.309 C 
ATOM      3  O   LIG    1       -0.244   3.596   0.726  0.00  0.00    -0.251 OA
BRANCH   2   4
ATOM      4  O   LIG    1       -1.642   3.461   2.432  0.00  0.00    -0.480 OA
ATOM      5  H   LIG    1       -2.152   2.921   3.004  0.00  0.00    +0.295 HD
ENDBRANCH   2   4
ENDBRANCH   1   2
BRANCH   1   6
ATOM      6  C   LIG    1       -0.811   1.057  -0.193  0.00  0.00    +0.018 C 
BRANCH   6   8
ATOM      7  C   LIG    1       -1.940   1.329  -2.406  0.00  0.00    +0.007 C 
ATOM      8  C   LIG    1       -2.080   1.542  -0.897  0.00  0.00    -0.016 C 
ATOM      9  C   LIG    1       -3.283   0.750  -0.381  0.00  0.00    +0.007 C 
ENDBRANCH   6   8
ENDBRANCH   1   6
BRANCH   1  10
ATOM     10  C   LIG    1        0.325   0.818   2.019  0.00  0.00    +0.080 C 
BRANCH  10  11
ATOM     11  S   LIG    1        0.158   1.099   3.804  0.00  0.00    -0.177 S 
ATOM     12  H   LIG    1        1.269   0.548   4.325  0.00  0.00    +0.102 HD
ENDBRANCH  10  11
ENDBRANCH   1  10
TORSDOF 6
