REMARK  Name = ZINC05614811
REMARK                            x       y       z     vdW  Elec       q    Type
REMARK                         _______ _______ _______ _____ _____    ______ ____
ROOT
ATOM      1  C   LIG    1       -4.715   3.830   0.067  0.00  0.00    +0.229 A 
ATOM      2  N   LIG    1       -4.853   5.136   0.081  0.00  0.00    -0.312 N 
ATOM      3  H   LIG    1       -4.082   5.814   0.084  0.00  0.00    +0.170 HD
ATOM      4  C   LIG    1       -6.161   5.446   0.089  0.00  0.00    +0.180 A 
ATOM      5  C   LIG    1       -6.877   4.253   0.090  0.00  0.00    +0.228 A 
ATOM      6  N   LIG    1       -5.960   3.248   0.076  0.00  0.00    -0.293 N 
ATOM      7  H   LIG    1       -6.155   2.268   0.073  0.00  0.00    +0.172 HD
ENDROOT
BRANCH   1   9
ATOM      8  N   LIG    1       -2.422   3.817   0.045  0.00  0.00    -0.146 NA
ATOM      9  N   LIG    1       -3.533   3.162   0.052  0.00  0.00    -0.112 NA
BRANCH   8  13
ATOM     10  C   LIG    1        1.178   1.782   0.000  0.00  0.00    +0.000 A 
ATOM     11  C   LIG    1       -0.013   1.076   0.008  0.00  0.00    +0.002 A 
ATOM     12  C   LIG    1       -1.217   1.747   0.017  0.00  0.00    +0.029 A 
ATOM     13  C   LIG    1       -1.234   3.145   0.030  0.00  0.00    +0.086 A 
ATOM     14  C   LIG    1       -0.027   3.852   0.022  0.00  0.00    +0.029 A 
ATOM     15  C   LIG    1        1.169   3.166   0.007  0.00  0.00    +0.002 A 
ENDBRANCH   8  13
ENDBRANCH   1   9
BRANCH   4  16
ATOM     16  C   LIG    1       -6.717   6.765   0.101  0.00  0.00    +0.123 C 
ATOM     17  N   LIG    1       -7.158   7.812   0.110  0.00  0.00    -0.189 NA
ENDBRANCH   4  16
BRANCH   5  18
ATOM     18  O   LIG    1       -8.223   4.119   0.102  0.00  0.00    -0.492 OA
ATOM     19  H   LIG    1       -8.606   4.075   0.989  0.00  0.00    +0.294 HD
ENDBRANCH   5  18
TORSDOF 4
