REMARK  Name = ZINC05828966
REMARK                            x       y       z     vdW  Elec       q    Type
REMARK                         _______ _______ _______ _____ _____    ______ ____
ROOT
ATOM      1  C   LIG    1       -1.212   1.637   0.017  0.00  0.00    +0.123 C 
ATOM      2  N   LIG    1       -2.332   0.970   0.018  0.00  0.00    -0.382 N 
ATOM      3  H   LIG    1       -3.292   1.507   0.026  0.00  0.00    +0.158 HD
ATOM      4  H   LIG    1       -2.317  -0.130   0.012  0.00  0.00    +0.158 HD
ENDROOT
BRANCH   1   5
ATOM      5  N   LIG    1       -0.011   0.966   0.007  0.00  0.00    -0.340 N 
ATOM      6  H   LIG    1        0.934   1.529   0.006  0.00  0.00    +0.144 HD
ATOM      7  H   LIG    1        0.004  -0.134   0.001  0.00  0.00    +0.144 HD
ENDBRANCH   1   5
BRANCH   1   8
ATOM      8  S   LIG    1       -1.236   3.399   0.026  0.00  0.00    -0.091 S 
BRANCH   8   9
ATOM      9  C   LIG    1       -3.022   3.689   0.036  0.00  0.00    +0.110 C 
BRANCH   9  10
ATOM     10  C   LIG    1       -3.294   5.195   0.046  0.00  0.00    +0.224 C 
ATOM     11  F   LIG    1       -4.675   5.419   0.054  0.00  0.00    -0.248 F 
ENDBRANCH   9  10
ENDBRANCH   8   9
ENDBRANCH   1   8
TORSDOF 4
