REMARK  Name = ZINC05163062
REMARK                            x       y       z     vdW  Elec       q    Type
REMARK                         _______ _______ _______ _____ _____    ______ ____
ROOT
ATOM      1  C   LIG    1        5.927  -0.900  -2.290  0.00  0.00    +0.254 C 
ATOM      2  C   LIG    1        5.108  -1.388  -3.512  0.00  0.00    +0.196 C 
ATOM      3  C   LIG    1        3.810  -0.555  -3.387  0.00  0.00    +0.185 C 
ATOM      4  C   LIG    1        4.213   0.643  -2.505  0.00  0.00    +0.237 C 
ATOM      5  O   LIG    1        5.615   0.508  -2.217  0.00  0.00    -0.339 OA
ENDROOT
BRANCH   1  11
ATOM      6  C   LIG    1        8.693  -4.383  -1.688  0.00  0.00    +0.225 A 
ATOM      7  N   LIG    1        9.954  -4.168  -2.017  0.00  0.00    -0.219 NA
ATOM      8  C   LIG    1       10.350  -2.995  -2.500  0.00  0.00    +0.147 A 
ATOM      9  C   LIG    1        9.395  -1.974  -2.642  0.00  0.00    +0.147 A 
ATOM     10  C   LIG    1        8.067  -2.251  -2.275  0.00  0.00    +0.167 A 
ATOM     11  N   LIG    1        7.360  -1.100  -2.516  0.00  0.00    -0.285 N 
ATOM     12  C   LIG    1        8.237  -0.175  -2.999  0.00  0.00    +0.203 A 
ATOM     13  N   LIG    1        9.431  -0.690  -3.072  0.00  0.00    -0.231 NA
ATOM     14  N   LIG    1        7.765  -3.458  -1.808  0.00  0.00    -0.216 NA
BRANCH   8  15
ATOM     15  N   LIG    1       11.674  -2.779  -2.840  0.00  0.00    -0.341 N 
ATOM     16  H   LIG    1       12.323  -3.492  -2.737  0.00  0.00    +0.144 HD
ATOM     17  H   LIG    1       11.733  -2.536  -3.808  0.00  0.00    +0.144 HD
ENDBRANCH   8  15
ENDBRANCH   1  11
BRANCH   4  18
ATOM     18  C   LIG    1        3.422   0.625  -1.223  0.00  0.00    +0.245 C 
ATOM     19  N   LIG    1        2.086   0.796  -1.253  0.00  0.00    -0.310 N 
ATOM     20  H   LIG    1        1.633   0.931  -2.100  0.00  0.00    +0.149 HD
ATOM     21  O   LIG    1        3.988   0.457  -0.163  0.00  0.00    -0.273 OA
BRANCH  19  22
ATOM     22  C   LIG    1        1.317   0.779  -0.006  0.00  0.00    +0.073 C 
ATOM     23  C   LIG    1       -0.019   1.526   0.010  0.00  0.00    +0.024 C 
ATOM     24  C   LIG    1        0.002  -0.004   0.002  0.00  0.00    +0.024 C 
ENDBRANCH  19  22
ENDBRANCH   4  18
BRANCH   2  25
ATOM     25  O   LIG    1        5.788  -1.093  -4.734  0.00  0.00    -0.385 OA
ATOM     26  H   LIG    1        5.277  -1.298  -5.528  0.00  0.00    +0.210 HD
ENDBRANCH   2  25
BRANCH   3  27
ATOM     27  O   LIG    1        3.377  -0.106  -4.673  0.00  0.00    -0.386 OA
ATOM     28  H   LIG    1        2.600   0.469  -4.648  0.00  0.00    +0.210 HD
ENDBRANCH   3  27
TORSDOF 6
