REMARK  Name = ZINC05525683
REMARK                            x       y       z     vdW  Elec       q    Type
REMARK                         _______ _______ _______ _____ _____    ______ ____
ROOT
ATOM      1  C   LIG    1       -0.018   1.465   0.010  0.00  0.00    -0.096 C 
ATOM      2  N   LIG    1        0.002  -0.004   0.002  0.00  0.00    +0.379 N 
ATOM      3  H   LIG    1       -0.938  -0.370  -0.009  0.00  0.00    -0.082 HD
ATOM      4  C   LIG    1        0.772  -0.507  -1.165  0.00  0.00    -0.070 C 
ATOM      5  C   LIG    1        1.190  -1.939  -0.767  0.00  0.00    +0.011 C 
ATOM      6  C   LIG    1        1.173  -1.947   0.775  0.00  0.00    +0.049 C 
ATOM      7  C   LIG    1        0.746  -0.520   1.180  0.00  0.00    -0.067 C 
ENDROOT
BRANCH   5   8
ATOM      8  C   LIG    1        2.575  -2.241  -1.279  0.00  0.00    -0.045 A 
ATOM      9  C   LIG    1        3.643  -1.453  -0.890  0.00  0.00    +0.004 A 
ATOM     10  C   LIG    1        4.913  -1.730  -1.360  0.00  0.00    +0.000 A 
ATOM     11  C   LIG    1        5.116  -2.795  -2.217  0.00  0.00    +0.000 A 
ATOM     12  C   LIG    1        4.049  -3.583  -2.605  0.00  0.00    +0.000 A 
ATOM     13  C   LIG    1        2.779  -3.309  -2.132  0.00  0.00    +0.004 A 
ENDBRANCH   5   8
BRANCH   6  14
ATOM     14  C   LIG    1        0.176  -2.958   1.282  0.00  0.00    +0.165 C 
ATOM     15  O   LIG    1       -0.763  -3.284   0.588  0.00  0.00    -0.292 OA
BRANCH  14  16
ATOM     16  C   LIG    1        0.343  -3.549   2.619  0.00  0.00    +0.018 A 
ATOM     17  C   LIG    1        1.422  -3.171   3.425  0.00  0.00    +0.011 A 
ATOM     18  C   LIG    1        1.571  -3.729   4.678  0.00  0.00    +0.001 A 
ATOM     19  C   LIG    1        0.656  -4.661   5.137  0.00  0.00    +0.000 A 
ATOM     20  C   LIG    1       -0.414  -5.040   4.345  0.00  0.00    +0.001 A 
ATOM     21  C   LIG    1       -0.580  -4.487   3.093  0.00  0.00    +0.011 A 
ENDBRANCH  14  16
ENDBRANCH   6  14
TORSDOF 3
