REMARK  Name = ZINC05626309
REMARK                            x       y       z     vdW  Elec       q    Type
REMARK                         _______ _______ _______ _____ _____    ______ ____
ROOT
ATOM      1  N   LIG    1        1.237  -2.078  -0.021  0.00  0.00    -0.265 N 
ATOM      2  H   LIG    1        2.085  -2.549  -0.032  0.00  0.00    +0.170 HD
ENDROOT
BRANCH   1   8
ATOM      3  C   LIG    1       -0.017   1.377   0.010  0.00  0.00    +0.002 A 
ATOM      4  C   LIG    1        1.170   2.087   0.002  0.00  0.00    +0.002 A 
ATOM      5  C   LIG    1        2.380   1.417  -0.013  0.00  0.00    +0.022 A 
ATOM      6  C   LIG    1        2.406   0.035  -0.021  0.00  0.00    +0.063 A 
ATOM      7 CL   LIG    1        3.925  -0.805  -0.040  0.00  0.00    -0.082 Cl
ATOM      8  C   LIG    1        1.215  -0.681  -0.013  0.00  0.00    +0.063 A 
ATOM      9  C   LIG    1        0.002  -0.004   0.002  0.00  0.00    +0.026 A 
ENDBRANCH   1   8
BRANCH   1  10
ATOM     10  N   LIG    1        0.035  -2.798  -0.014  0.00  0.00    -0.261 N 
ATOM     11  H   LIG    1       -0.812  -2.326  -0.003  0.00  0.00    +0.170 HD
BRANCH  10  12
ATOM     12  C   LIG    1        0.057  -4.166  -0.022  0.00  0.00    +0.130 C 
ATOM     13  C   LIG    1        1.144  -4.987  -0.031  0.00  0.00    +0.162 C 
ATOM     14  N   LIG    1        0.713  -6.254  -0.036  0.00  0.00    -0.163 NA
ATOM     15  N   LIG    1       -0.565  -6.346  -0.031  0.00  0.00    -0.075 NA
ATOM     16  C   LIG    1       -1.117  -5.113  -0.016  0.00  0.00    +0.302 C 
ATOM     17  O   LIG    1       -2.292  -4.831  -0.003  0.00  0.00    -0.265 OA
ENDBRANCH  10  12
ENDBRANCH   1  10
TORSDOF 3
