REMARK  Name = ZINC05682076
REMARK                            x       y       z     vdW  Elec       q    Type
REMARK                         _______ _______ _______ _____ _____    ______ ____
ROOT
ATOM      1  C   LIG    1        4.265  -0.717  -4.831  0.00  0.00    -0.048 C 
ATOM      2  C   LIG    1        3.039  -0.248  -4.897  0.00  0.00    -0.041 C 
ATOM      3  C   LIG    1        2.244   0.142  -3.684  0.00  0.00    -0.050 C 
ATOM      4  N   LIG    1        2.841  -0.466  -2.481  0.00  0.00    +0.386 N 
ATOM      5  H   LIG    1        2.734  -1.486  -2.531  0.00  0.00    -0.081 HD
ATOM      6  C   LIG    1        4.280  -0.135  -2.419  0.00  0.00    -0.073 C 
ATOM      7  C   LIG    1        4.988  -0.917  -3.528  0.00  0.00    +0.017 C 
ENDROOT
BRANCH   1  11
ATOM      8  C   LIG    1        6.264  -1.711  -8.444  0.00  0.00    +0.000 A 
ATOM      9  C   LIG    1        5.923  -0.396  -8.185  0.00  0.00    +0.001 A 
ATOM     10  C   LIG    1        5.274  -0.066  -7.013  0.00  0.00    +0.008 A 
ATOM     11  C   LIG    1        4.961  -1.063  -6.088  0.00  0.00    -0.022 A 
ATOM     12  C   LIG    1        5.314  -2.387  -6.353  0.00  0.00    +0.008 A 
ATOM     13  C   LIG    1        5.957  -2.704  -7.531  0.00  0.00    +0.001 A 
ENDBRANCH   1  11
BRANCH   4  14
ATOM     14  C   LIG    1        2.154   0.032  -1.268  0.00  0.00    -0.039 C 
ATOM     15  C   LIG    1        2.133   1.562  -1.259  0.00  0.00    -0.013 C 
ATOM     16  C   LIG    1        1.417   2.055  -0.000  0.00  0.00    -0.001 C 
ATOM     17  C   LIG    1       -0.019   1.526   0.010  0.00  0.00    +0.002 C 
ATOM     18  C   LIG    1        0.002  -0.004   0.002  0.00  0.00    +0.030 C 
ATOM     19  C   LIG    1        0.718  -0.497  -1.257  0.00  0.00    +0.101 C 
BRANCH  19  20
ATOM     20  O   LIG    1        0.738  -1.926  -1.265  0.00  0.00    -0.393 OA
ATOM     21  H   LIG    1       -0.140  -2.332  -1.258  0.00  0.00    +0.210 HD
ENDBRANCH  19  20
ENDBRANCH   4  14
TORSDOF 3
