REMARK  Name = ZINC05707379
REMARK                            x       y       z     vdW  Elec       q    Type
REMARK                         _______ _______ _______ _____ _____    ______ ____
ROOT
ATOM      1  C   LIG    1       -1.369  -0.486  -0.052  0.00  0.00    +0.168 C 
ENDROOT
BRANCH   1   3
ATOM      2  C   LIG    1       -0.022   1.618  -0.038  0.00  0.00    +0.048 C 
ATOM      3  C   LIG    1        0.048   0.090  -0.077  0.00  0.00    +0.108 C 
BRANCH   3   4
ATOM      4  C   LIG    1        0.815  -0.408   1.121  0.00  0.00    +0.009 C 
ATOM      5  C   LIG    1        1.910  -1.108   0.953  0.00  0.00    +0.016 C 
BRANCH   5   6
ATOM      6  C   LIG    1        2.676  -1.607   2.151  0.00  0.00    +0.203 C 
ATOM      7  C   LIG    1        2.753  -3.134   2.111  0.00  0.00    +0.076 C 
ATOM      8  C   LIG    1        3.736  -3.635   3.133  0.00  0.00    -0.016 C 
ATOM      9  C   LIG    1        4.685  -2.848   3.628  0.00  0.00    +0.087 C 
ATOM     10  C   LIG    1        4.780  -1.448   3.177  0.00  0.00    +0.332 C 
ATOM     11  O   LIG    1        5.522  -0.657   3.727  0.00  0.00    -0.246 OA
ATOM     12  O   LIG    1        4.008  -1.072   2.126  0.00  0.00    -0.454 OA
ENDBRANCH   5   6
ENDBRANCH   3   4
BRANCH   3  13
ATOM     13  O   LIG    1        0.711  -0.326  -1.273  0.00  0.00    -0.382 OA
ATOM     14  H   LIG    1        0.791  -1.285  -1.365  0.00  0.00    +0.211 HD
ENDBRANCH   3  13
ENDBRANCH   1   3
BRANCH   1  15
ATOM     15  C   LIG    1       -2.147   0.020  -1.268  0.00  0.00    +0.071 C 
BRANCH  15  16
ATOM     16  C   LIG    1       -3.599  -0.454  -1.178  0.00  0.00    +0.140 C 
BRANCH  16  17
ATOM     17  C   LIG    1       -4.335  -0.061  -2.433  0.00  0.00    +0.004 C 
ATOM     18  C   LIG    1       -4.821  -1.001  -3.243  0.00  0.00    -0.002 C 
BRANCH  18  19
ATOM     19  C   LIG    1       -4.764  -2.410  -2.846  0.00  0.00    -0.000 C 
ATOM     20  C   LIG    1       -5.155  -3.370  -3.709  0.00  0.00    -0.000 C 
BRANCH  20  21
ATOM     21  C   LIG    1       -5.636  -3.004  -5.043  0.00  0.00    -0.002 C 
ATOM     22  C   LIG    1       -6.023  -3.952  -5.896  0.00  0.00    +0.001 C 
BRANCH  22  23
ATOM     23  C   LIG    1       -6.518  -3.575  -7.269  0.00  0.00    +0.183 C 
BRANCH  23  24
ATOM     24  O   LIG    1       -5.924  -4.436  -8.242  0.00  0.00    -0.391 OA
ATOM     25  H   LIG    1       -6.198  -4.250  -9.151  0.00  0.00    +0.210 HD
ENDBRANCH  23  24
ENDBRANCH  22  23
ENDBRANCH  20  21
ENDBRANCH  18  19
ENDBRANCH  16  17
BRANCH  16  26
ATOM     26  O   LIG    1       -4.228   0.152  -0.047  0.00  0.00    -0.388 OA
ATOM     27  H   LIG    1       -4.245   1.118  -0.077  0.00  0.00    +0.210 HD
ENDBRANCH  16  26
ENDBRANCH  15  16
ENDBRANCH   1  15
BRANCH   1  28
ATOM     28  O   LIG    1       -1.303  -1.913  -0.088  0.00  0.00    -0.280 OA
BRANCH  28  29
ATOM     29  P   LIG    1       -1.905  -2.849   1.076  0.00  0.00    +0.473 P 
ATOM     30  O   LIG    1       -1.288  -2.429   2.454  0.00  0.00    -0.228 OA
BRANCH  29  31
ATOM     31  O   LIG    1       -3.462  -2.682   1.127  0.00  0.00    -0.303 OA
ATOM     32  H   LIG    1       -3.682  -1.755   1.311  0.00  0.00    +0.222 HD
ENDBRANCH  29  31
BRANCH  29  33
ATOM     33  O   LIG    1       -1.549  -4.345   0.779  0.00  0.00    -0.303 OA
ATOM     34  H   LIG    1       -0.585  -4.449   0.747  0.00  0.00    +0.222 HD
ENDBRANCH  29  33
ENDBRANCH  28  29
ENDBRANCH   1  28
TORSDOF 16
