REMARK  Name = ZINC05766293
REMARK                            x       y       z     vdW  Elec       q    Type
REMARK                         _______ _______ _______ _____ _____    ______ ____
ROOT
ATOM      1  C   LIG    1        1.432   1.927  -0.001  0.00  0.00    +0.061 C 
ATOM      2  C   LIG    1        2.077   1.506  -1.324  0.00  0.00    +0.050 C 
ATOM      3  C   LIG    1        1.802   0.045  -1.580  0.00  0.00    -0.001 A 
ATOM      4  C   LIG    1        2.586  -0.627  -2.505  0.00  0.00    +0.011 A 
ATOM      5  C   LIG    1        2.361  -1.962  -2.774  0.00  0.00    +0.049 A 
ATOM      6  C   LIG    1        1.345  -2.640  -2.116  0.00  0.00    +0.162 A 
ATOM      7  C   LIG    1        0.559  -1.972  -1.188  0.00  0.00    +0.201 A 
ATOM      8  C   LIG    1        0.789  -0.624  -0.917  0.00  0.00    +0.169 A 
ATOM      9  O   LIG    1        0.002  -0.004   0.002  0.00  0.00    -0.487 OA
ATOM     10  C   LIG    1       -0.017   1.424   0.010  0.00  0.00    +0.237 C 
ENDROOT
BRANCH   1  15
ATOM     11  C   LIG    1        1.497   7.689   0.446  0.00  0.00    +0.044 C 
ATOM     12  C   LIG    1        1.480   6.186   0.330  0.00  0.00    -0.050 A 
ATOM     13  C   LIG    1        2.106   5.411   1.288  0.00  0.00    +0.003 A 
ATOM     14  C   LIG    1        2.090   4.033   1.181  0.00  0.00    +0.004 A 
ATOM     15  C   LIG    1        1.448   3.430   0.116  0.00  0.00    -0.041 A 
ATOM     16  C   LIG    1        0.827   4.205  -0.846  0.00  0.00    +0.004 A 
ATOM     17  C   LIG    1        0.838   5.583  -0.736  0.00  0.00    +0.003 A 
ENDBRANCH   1  15
BRANCH   6  18
ATOM     18  O   LIG    1        1.119  -3.954  -2.381  0.00  0.00    -0.503 OA
ATOM     19  H   LIG    1        1.619  -4.561  -1.817  0.00  0.00    +0.292 HD
ENDBRANCH   6  18
BRANCH   7  20
ATOM     20  O   LIG    1       -0.439  -2.634  -0.540  0.00  0.00    -0.501 OA
ATOM     21  H   LIG    1       -1.292  -2.600  -0.993  0.00  0.00    +0.292 HD
ENDBRANCH   7  20
TORSDOF 3
