REMARK  Name = ZINC05579377
REMARK                            x       y       z     vdW  Elec       q    Type
REMARK                         _______ _______ _______ _____ _____    ______ ____
ROOT
ATOM      1  C   LIG    1       -0.049   1.954  -0.765  0.00  0.00    +0.020 C 
ATOM      2  C   LIG    1       -0.197   0.471  -0.422  0.00  0.00    +0.080 C 
ENDROOT
BRANCH   2   3
ATOM      3  C   LIG    1        0.648  -0.349  -1.363  0.00  0.00    -0.013 C 
ATOM      4  C   LIG    1        0.096  -1.341  -2.063  0.00  0.00    -0.054 C 
ATOM      5  C   LIG    1       -1.340  -1.729  -1.817  0.00  0.00    +0.043 C 
BRANCH   4   6
ATOM      6  C   LIG    1        0.883  -2.053  -3.070  0.00  0.00    +0.008 C 
ATOM      7  C   LIG    1        0.324  -3.058  -3.780  0.00  0.00    +0.069 C 
BRANCH   7   8
ATOM      8  C   LIG    1        1.111  -3.769  -4.787  0.00  0.00    +0.259 C 
ATOM      9  N   LIG    1        0.553  -4.771  -5.495  0.00  0.00    -0.194 N 
ATOM     10  H   LIG    1       -0.371  -5.021  -5.336  0.00  0.00    +0.183 HD
ATOM     11  O   LIG    1        2.270  -3.456  -4.986  0.00  0.00    -0.269 OA
BRANCH   9  12
ATOM     12  O   LIG    1        1.315  -5.460  -6.469  0.00  0.00    -0.295 OA
ATOM     13  H   LIG    1        0.830  -6.161  -6.924  0.00  0.00    +0.241 HD
ENDBRANCH   9  12
ENDBRANCH   7   8
ENDBRANCH   4   6
ENDBRANCH   2   3
BRANCH   2  14
ATOM     14  C   LIG    1        0.257   0.235   0.996  0.00  0.00    +0.170 C 
ATOM     15  O   LIG    1        1.417  -0.036   1.224  0.00  0.00    -0.291 OA
BRANCH  14  16
ATOM     16  C   LIG    1       -0.705   0.334   2.100  0.00  0.00    +0.018 A 
ATOM     17  C   LIG    1       -2.046   0.641   1.838  0.00  0.00    +0.013 A 
ATOM     18  C   LIG    1       -2.938   0.732   2.869  0.00  0.00    +0.024 A 
ATOM     19  C   LIG    1       -2.515   0.519   4.179  0.00  0.00    +0.029 A 
ATOM     20  C   LIG    1       -1.182   0.213   4.444  0.00  0.00    +0.024 A 
ATOM     21  C   LIG    1       -0.285   0.115   3.419  0.00  0.00    +0.013 A 
BRANCH  19  22
ATOM     22  N   LIG    1       -3.425   0.613   5.224  0.00  0.00    -0.336 N 
ATOM     23  C   LIG    1       -2.982   0.389   6.603  0.00  0.00    +0.129 C 
ATOM     24  C   LIG    1       -4.827   0.935   4.948  0.00  0.00    +0.129 C 
ENDBRANCH  19  22
ENDBRANCH  14  16
ENDBRANCH   2  14
TORSDOF 7
