REMARK  Name = ZINC05672750
REMARK                            x       y       z     vdW  Elec       q    Type
REMARK                         _______ _______ _______ _____ _____    ______ ____
ROOT
ATOM      1  N   UNK A  1        2.702  -1.782   1.873  0.00  0.00    -0.311 N 
ATOM      2  H   UNK A  1        2.378  -2.436   1.234  0.00  0.00    +0.149 HD
ENDROOT
BRANCH   1   3
ATOM      3  C   UNK A  0        2.482  -1.961   3.191  0.00  0.00    +0.135 C 
ATOM      4  S   UNK A  0        3.053  -0.807   4.319  0.00  0.00    -0.019 S 
BRANCH   3   5
ATOM      5  N   UNK A  0        1.812  -3.049   3.620  0.00  0.00    -0.297 N 
ATOM      6  H   UNK A  0        1.435  -3.671   2.978  0.00  0.00    +0.154 HD
BRANCH   5   7
ATOM      7  C   UNK A  0        1.661  -3.281   4.991  0.00  0.00    +0.033 A 
ATOM      8  C   UNK A  0        1.284  -2.244   5.835  0.00  0.00    +0.025 A 
ATOM      9  C   UNK A  0        1.135  -2.477   7.188  0.00  0.00    +0.030 A 
ATOM     10  C   UNK A  0        1.361  -3.740   7.703  0.00  0.00    +0.105 A 
ATOM     11  C   UNK A  0        1.736  -4.775   6.866  0.00  0.00    +0.030 A 
ATOM     12  C   UNK A  0        1.881  -4.550   5.511  0.00  0.00    +0.025 A 
BRANCH  10  13
ATOM     13  S   UNK A  0        1.170  -4.032   9.430  0.00  0.00    +0.056 S 
ATOM     14  O   UNK A  0        1.344  -2.778  10.076  0.00  0.00    -0.153 OA
ATOM     15  O   UNK A  0        1.969  -5.166   9.741  0.00  0.00    -0.153 OA
BRANCH  13  16
ATOM     16  N   UNK A  0       -0.404  -4.479   9.681  0.00  0.00    -0.204 NA
ATOM     17  H   UNK A  0       -1.103  -4.142   9.098  0.00  0.00    +0.144 HD
ATOM     18  H   UNK A  0       -0.628  -5.078  10.410  0.00  0.00    +0.144 HD
ENDBRANCH  13  16
ENDBRANCH  10  13
ENDBRANCH   5   7
ENDBRANCH   3   5
ENDBRANCH   1   3
BRANCH   1  19
ATOM     19  C   UNK A  1        3.430  -0.599   1.406  0.00  0.00    +0.214 C 
BRANCH  19  20
ATOM     20  C   UNK A  1        4.912  -0.864   1.471  0.00  0.00    +0.328 C 
ATOM     21  O   UNK A  1        5.702   0.049   1.301  0.00  0.00    -0.249 OA
BRANCH  20  22
ATOM     22  O   UNK A  1        5.321  -1.991   1.692  0.00  0.00    -0.479 OA
ATOM     23  H   UNK A  1        4.714  -2.693   1.823  0.00  0.00    +0.295 HD
ENDBRANCH  20  22
ENDBRANCH  19  20
BRANCH  19  24
ATOM     24  C   UNK A  1        3.029  -0.291  -0.038  0.00  0.00    +0.176 C 
BRANCH  24  28
ATOM     25  C   UNK A  1       -1.172   0.460  -0.222  0.00  0.00    +0.000 A 
ATOM     26  C   UNK A  1       -0.281   1.517  -0.206  0.00  0.00    +0.000 A 
ATOM     27  C   UNK A  1        1.079   1.274  -0.146  0.00  0.00    +0.006 A 
ATOM     28  C   UNK A  1        1.547  -0.026  -0.102  0.00  0.00    -0.017 A 
ATOM     29  C   UNK A  1        0.656  -1.083  -0.117  0.00  0.00    +0.006 A 
ATOM     30  C   UNK A  1       -0.703  -0.840  -0.179  0.00  0.00    +0.000 A 
ENDBRANCH  24  28
BRANCH  24  31
ATOM     31  O   UNK A  1        3.350  -1.407  -0.870  0.00  0.00    -0.385 OA
ATOM     32  H   UNK A  1        2.903  -2.227  -0.619  0.00  0.00    +0.210 HD
ENDBRANCH  24  31
ENDBRANCH  19  24
ENDBRANCH   1  19
TORSDOF 11
