REMARK  Name = ZINC05447539
REMARK                            x       y       z     vdW  Elec       q    Type
REMARK                         _______ _______ _______ _____ _____    ______ ____
ROOT
ATOM      1  C   LIG    1       -1.412  -0.526   0.013  0.00  0.00    -0.041 A 
ATOM      2  C   LIG    1       -2.184  -0.145   1.109  0.00  0.00    +0.008 A 
ATOM      3  C   LIG    1       -3.493  -0.458   1.398  0.00  0.00    +0.049 A 
ATOM      4  C   LIG    1       -4.389  -1.242   0.663  0.00  0.00    +0.162 A 
ATOM      5  C   LIG    1       -4.173  -1.897  -0.543  0.00  0.00    +0.206 A 
ATOM      6  C   LIG    1       -2.992  -1.929  -1.318  0.00  0.00    +0.224 A 
ATOM      7  O   LIG    1       -3.050  -2.582  -2.352  0.00  0.00    -0.284 OA
ATOM      8  C   LIG    1       -1.761  -1.302  -1.055  0.00  0.00    +0.058 A 
ENDROOT
BRANCH   1  10
ATOM      9  C   LIG    1       -0.019   1.526   0.010  0.00  0.00    +0.012 C 
ATOM     10  C   LIG    1        0.002  -0.004   0.002  0.00  0.00    +0.013 C 
ATOM     11  C   LIG    1        0.742  -0.511   1.242  0.00  0.00    +0.012 C 
ENDBRANCH   1  10
BRANCH   4  12
ATOM     12  O   LIG    1       -5.628  -1.380   1.196  0.00  0.00    -0.503 OA
ATOM     13  H   LIG    1       -5.838  -0.963   2.009  0.00  0.00    +0.292 HD
ENDBRANCH   4  12
BRANCH   5  14
ATOM     14  O   LIG    1       -5.226  -2.593  -1.038  0.00  0.00    -0.501 OA
ATOM     15  H   LIG    1       -6.038  -2.610  -0.569  0.00  0.00    +0.292 HD
ENDBRANCH   5  14
TORSDOF 3
