REMARK  Name = ZINC04824612
REMARK                            x       y       z     vdW  Elec       q    Type
REMARK                         _______ _______ _______ _____ _____    ______ ____
ROOT
ATOM      1  C   LIG    1       -0.067   4.200  -0.571  0.00  0.00    +0.001 A 
ATOM      2  C   LIG    1       -1.244   3.479  -0.666  0.00  0.00    +0.001 A 
ATOM      3  C   LIG    1       -1.224   2.096  -0.633  0.00  0.00    +0.012 A 
ATOM      4  C   LIG    1       -0.010   1.423  -0.517  0.00  0.00    +0.033 A 
ATOM      5  C   LIG    1        1.186   2.156  -0.422  0.00  0.00    +0.033 A 
ATOM      6  C   LIG    1        2.478   1.450  -0.292  0.00  0.00    +0.196 C 
ATOM      7  C   LIG    1        2.510  -0.019  -0.264  0.00  0.00    +0.056 A 
ATOM      8  C   LIG    1        3.727  -0.700  -0.143  0.00  0.00    +0.045 A 
ATOM      9  C   LIG    1        3.743  -2.098  -0.117  0.00  0.00    +0.055 A 
ATOM     10  C   LIG    1        2.582  -2.808  -0.210  0.00  0.00    +0.140 A 
ATOM     11  C   LIG    1        1.353  -2.153  -0.332  0.00  0.00    +0.064 A 
ATOM     12  C   LIG    1        1.309  -0.755  -0.360  0.00  0.00    +0.057 A 
ATOM     13  O   LIG    1        3.513   2.084  -0.209  0.00  0.00    -0.287 OA
ATOM     14  C   LIG    1        0.023  -0.054  -0.489  0.00  0.00    +0.196 C 
ATOM     15  O   LIG    1       -1.012  -0.688  -0.571  0.00  0.00    -0.287 OA
ATOM     16  C   LIG    1        1.146   3.548  -0.450  0.00  0.00    +0.012 A 
ENDROOT
BRANCH  10  17
ATOM     17  S   LIG    1        2.632  -4.569  -0.175  0.00  0.00    +0.111 S 
ATOM     18  O   LIG    1        1.621  -5.022  -1.064  0.00  0.00    -0.142 OA
ATOM     19  O   LIG    1        2.667  -4.947   1.195  0.00  0.00    -0.142 OA
BRANCH  17  20
ATOM     20  O   LIG    1        3.964  -4.993  -0.777  0.00  0.00    -0.250 OA
ATOM     21  H   LIG    1        4.687  -4.703  -0.200  0.00  0.00    +0.245 HD
ENDBRANCH  17  20
ENDBRANCH  10  17
BRANCH  11  22
ATOM     22  N   LIG    1        0.181  -2.887  -0.426  0.00  0.00    -0.356 N 
ATOM     23  H   LIG    1        0.129  -3.771  -0.029  0.00  0.00    +0.142 HD
ATOM     24  H   LIG    1       -0.587  -2.517  -0.889  0.00  0.00    +0.142 HD
ENDBRANCH  11  22
BRANCH   8  25
ATOM     25  N   LIG    1        4.913   0.011  -0.047  0.00  0.00    -0.314 N 
ATOM     26  H   LIG    1        5.471   0.130  -0.832  0.00  0.00    +0.152 HD
BRANCH  25  27
ATOM     27  C   LIG    1        5.305   0.555   1.180  0.00  0.00    +0.031 A 
ATOM     28  C   LIG    1        4.568   0.287   2.327  0.00  0.00    +0.025 A 
ATOM     29  C   LIG    1        4.958   0.821   3.539  0.00  0.00    +0.024 A 
ATOM     30  C   LIG    1        6.082   1.634   3.610  0.00  0.00    +0.025 A 
ATOM     31  C   LIG    1        6.816   1.906   2.463  0.00  0.00    +0.024 A 
ATOM     32  C   LIG    1        6.429   1.369   1.252  0.00  0.00    +0.025 A 
BRANCH  30  33
ATOM     33  N   LIG    1        6.474   2.179   4.838  0.00  0.00    -0.358 N 
ATOM     34  H   LIG    1        5.961   1.989   5.639  0.00  0.00    +0.142 HD
ATOM     35  H   LIG    1        7.259   2.747   4.887  0.00  0.00    +0.142 HD
ENDBRANCH  30  33
ENDBRANCH  25  27
ENDBRANCH   8  25
TORSDOF 6
