REMARK  Name = ZINC05003033
REMARK                            x       y       z     vdW  Elec       q    Type
REMARK                         _______ _______ _______ _____ _____    ______ ____
ROOT
ATOM      1  C   LIG    1        2.336  -5.974  -3.572  0.00  0.00    +0.078 C 
ATOM      2  C   LIG    1        2.639  -6.584  -4.738  0.00  0.00    +0.021 C 
ATOM      3  C   LIG    1        3.156  -5.763  -5.891  0.00  0.00    +0.061 C 
ATOM      4  N   LIG    1        2.484  -7.932  -4.890  0.00  0.00    -0.273 N 
ATOM      5  H   LIG    1        2.714  -8.326  -5.746  0.00  0.00    +0.156 HD
ATOM      6  C   LIG    1        2.030  -8.741  -3.923  0.00  0.00    +0.304 C 
ATOM      7  N   LIG    1        1.687  -8.279  -2.705  0.00  0.00    -0.288 N 
ATOM      8  H   LIG    1        1.360  -8.883  -2.019  0.00  0.00    +0.151 HD
ATOM      9  O   LIG    1        1.926  -9.930  -4.153  0.00  0.00    -0.252 OA
ATOM     10  C   LIG    1        1.824  -6.838  -2.437  0.00  0.00    +0.143 C 
ENDROOT
BRANCH  10  11
ATOM     11  C   LIG    1        0.470  -6.315  -2.030  0.00  0.00    -0.022 A 
ATOM     12  C   LIG    1       -0.651  -6.653  -2.765  0.00  0.00    +0.008 A 
ATOM     13  C   LIG    1       -1.892  -6.173  -2.392  0.00  0.00    +0.033 A 
ATOM     14  C   LIG    1       -2.013  -5.357  -1.283  0.00  0.00    +0.122 A 
ATOM     15  C   LIG    1       -0.892  -5.020  -0.547  0.00  0.00    +0.033 A 
ATOM     16  C   LIG    1        0.349  -5.503  -0.918  0.00  0.00    +0.008 A 
BRANCH  14  17
ATOM     17  N   LIG    1       -3.343  -4.843  -0.884  0.00  0.00    +0.006 N 
ATOM     18  O   LIG    1       -4.323  -5.137  -1.528  0.00  0.00    -0.130 OA
BRANCH  17  19
ATOM     19  O   LIG    1       -3.448  -4.128   0.086  0.00  0.00    -0.396 OA
ATOM     20  H   LIG    1       -2.689  -3.900   0.585  0.00  0.00    +0.329 HD
ENDBRANCH  17  19
ENDBRANCH  14  17
ENDBRANCH  10  11
BRANCH   1  21
ATOM     21  C   LIG    1        2.497  -4.578  -3.413  0.00  0.00    +0.339 C 
ATOM     22  O   LIG    1        3.020  -3.922  -4.295  0.00  0.00    -0.245 OA
BRANCH  21  23
ATOM     23  O   LIG    1        2.071  -3.974  -2.285  0.00  0.00    -0.461 OA
BRANCH  23  24
ATOM     24  C   LIG    1        2.265  -2.561  -2.192  0.00  0.00    +0.232 C 
BRANCH  24  25
ATOM     25  C   LIG    1        1.723  -2.058  -0.853  0.00  0.00    +0.041 C 
BRANCH  25  26
ATOM     26  C   LIG    1        1.931  -0.546  -0.753  0.00  0.00    +0.003 C 
BRANCH  26  28
ATOM     27  C   LIG    1        1.598   1.470   0.685  0.00  0.00    +0.004 C 
ATOM     28  C   LIG    1        1.389  -0.043   0.586  0.00  0.00    -0.003 C 
ENDBRANCH  26  28
ENDBRANCH  25  26
ENDBRANCH  24  25
ENDBRANCH  23  24
ENDBRANCH  21  23
ENDBRANCH   1  21
TORSDOF 9
