REMARK  Name = ZINC05510194
REMARK                            x       y       z     vdW  Elec       q    Type
REMARK                         _______ _______ _______ _____ _____    ______ ____
ROOT
ATOM      1  C   LIG    1       -0.014   1.204   0.009  0.00  0.00    +0.198 C 
ATOM      2  O   LIG    1        0.002  -0.004   0.002  0.00  0.00    -0.289 OA
ENDROOT
BRANCH   1   3
ATOM      3  C   LIG    1        1.263   1.964   0.001  0.00  0.00    +0.198 C 
ATOM      4  O   LIG    1        1.246   3.172   0.007  0.00  0.00    -0.289 OA
BRANCH   3   5
ATOM      5  C   LIG    1        2.578   1.229  -0.016  0.00  0.00    +0.083 C 
BRANCH   5   6
ATOM      6  C   LIG    1        3.727   2.239  -0.021  0.00  0.00    +0.008 C 
BRANCH   6   7
ATOM      7  C   LIG    1        5.062   1.492  -0.038  0.00  0.00    -0.003 C 
ATOM      8  C   LIG    1        6.212   2.502  -0.044  0.00  0.00    +0.004 C 
ENDBRANCH   6   7
ENDBRANCH   5   6
ENDBRANCH   3   5
ENDBRANCH   1   3
BRANCH   1   9
ATOM      9  C   LIG    1       -1.329   1.939   0.019  0.00  0.00    +0.083 C 
BRANCH   9  10
ATOM     10  C   LIG    1       -2.479   0.929   0.019  0.00  0.00    +0.008 C 
BRANCH  10  12
ATOM     11  C   LIG    1       -4.963   0.666   0.029  0.00  0.00    +0.004 C 
ATOM     12  C   LIG    1       -3.814   1.676   0.029  0.00  0.00    -0.003 C 
ENDBRANCH  10  12
ENDBRANCH   9  10
ENDBRANCH   1   9
TORSDOF 7
