REMARK  Name = ZINC04913607
REMARK                            x       y       z     vdW  Elec       q    Type
REMARK                         _______ _______ _______ _____ _____    ______ ____
ROOT
ATOM      1  C   LIG    1       -1.117  -4.204   1.058  0.00  0.00    +0.128 A 
ATOM      2  C   LIG    1       -1.405  -4.847  -0.135  0.00  0.00    +0.046 A 
ATOM      3  C   LIG    1       -1.283  -6.220  -0.229  0.00  0.00    +0.004 A 
ATOM      4  C   LIG    1       -0.872  -6.961   0.866  0.00  0.00    +0.001 A 
ATOM      5  C   LIG    1       -0.582  -6.334   2.060  0.00  0.00    +0.012 A 
ATOM      6  C   LIG    1       -0.697  -4.949   2.164  0.00  0.00    +0.024 A 
ENDROOT
BRANCH   6   7
ATOM      7  C   LIG    1       -0.380  -4.269   3.443  0.00  0.00    -0.014 A 
ATOM      8  C   LIG    1        0.544  -3.226   3.471  0.00  0.00    +0.008 A 
ATOM      9  C   LIG    1        0.834  -2.596   4.664  0.00  0.00    +0.001 A 
ATOM     10  C   LIG    1        0.211  -2.999   5.832  0.00  0.00    +0.000 A 
ATOM     11  C   LIG    1       -0.706  -4.035   5.810  0.00  0.00    +0.001 A 
ATOM     12  C   LIG    1       -1.009  -4.668   4.622  0.00  0.00    +0.008 A 
ENDBRANCH   6   7
BRANCH   1  13
ATOM     13  O   LIG    1       -1.238  -2.854   1.152  0.00  0.00    -0.493 OA
BRANCH  13  14
ATOM     14  C   LIG    1       -1.777  -2.171   0.018  0.00  0.00    +0.210 C 
BRANCH  14  15
ATOM     15  C   LIG    1       -1.950  -0.688   0.352  0.00  0.00    -0.038 C 
BRANCH  15  17
ATOM     16  C   LIG    1       -2.994   0.867   1.850  0.00  0.00    -0.096 C 
ATOM     17  N   LIG    1       -2.929  -0.541   1.437  0.00  0.00    +0.378 N 
ATOM     18  H   LIG    1       -2.648  -1.109   2.222  0.00  0.00    -0.082 HD
ATOM     19  C   LIG    1       -4.251  -0.975   0.966  0.00  0.00    -0.096 C 
ENDBRANCH  15  17
ENDBRANCH  14  15
ENDBRANCH  13  14
ENDBRANCH   1  13
TORSDOF 5
