REMARK  Name = ZINC05766291
REMARK                            x       y       z     vdW  Elec       q    Type
REMARK                         _______ _______ _______ _____ _____    ______ ____
ROOT
ATOM      1  C   LIG    1        1.432   1.927  -0.001  0.00  0.00    +0.061 C 
ATOM      2  C   LIG    1        2.077   1.506  -1.324  0.00  0.00    +0.050 C 
ATOM      3  C   LIG    1        1.802   0.045  -1.580  0.00  0.00    -0.001 A 
ATOM      4  C   LIG    1        2.586  -0.627  -2.505  0.00  0.00    +0.011 A 
ATOM      5  C   LIG    1        2.361  -1.962  -2.774  0.00  0.00    +0.049 A 
ATOM      6  C   LIG    1        1.345  -2.640  -2.116  0.00  0.00    +0.162 A 
ATOM      7  C   LIG    1        0.559  -1.972  -1.188  0.00  0.00    +0.201 A 
ATOM      8  C   LIG    1        0.789  -0.624  -0.917  0.00  0.00    +0.169 A 
ATOM      9  O   LIG    1        0.002  -0.004   0.002  0.00  0.00    -0.487 OA
ATOM     10  C   LIG    1       -0.017   1.424   0.010  0.00  0.00    +0.237 C 
ENDROOT
BRANCH   1  14
ATOM     11  C   LIG    1        1.479   6.188   0.330  0.00  0.00    +0.120 A 
ATOM     12  C   LIG    1        2.108   5.409   1.291  0.00  0.00    +0.046 A 
ATOM     13  C   LIG    1        2.091   4.032   1.182  0.00  0.00    +0.007 A 
ATOM     14  C   LIG    1        1.448   3.430   0.116  0.00  0.00    -0.041 A 
ATOM     15  C   LIG    1        0.826   4.204  -0.847  0.00  0.00    +0.007 A 
ATOM     16  C   LIG    1        0.835   5.581  -0.739  0.00  0.00    +0.046 A 
BRANCH  11  18
ATOM     17  C   LIG    1        0.828   8.281  -0.591  0.00  0.00    +0.277 C 
ATOM     18  O   LIG    1        1.495   7.543   0.435  0.00  0.00    -0.495 OA
ENDBRANCH  11  18
ENDBRANCH   1  14
BRANCH   6  19
ATOM     19  O   LIG    1        1.119  -3.954  -2.381  0.00  0.00    -0.503 OA
ATOM     20  H   LIG    1        1.619  -4.561  -1.817  0.00  0.00    +0.292 HD
ENDBRANCH   6  19
BRANCH   7  21
ATOM     21  O   LIG    1       -0.439  -2.634  -0.540  0.00  0.00    -0.501 OA
ATOM     22  H   LIG    1       -1.292  -2.600  -0.993  0.00  0.00    +0.292 HD
ENDBRANCH   7  21
TORSDOF 4
