REMARK  Name = ZINC05561290
REMARK                            x       y       z     vdW  Elec       q    Type
REMARK                         _______ _______ _______ _____ _____    ______ ____
ROOT
ATOM      1  C   LIG    1        2.160   1.366   1.239  0.00  0.00    +0.061 C 
ATOM      2  C   LIG    1        3.424   2.228   1.112  0.00  0.00    +0.020 C 
ATOM      3  C   LIG    1        3.481   3.196   2.284  0.00  0.00    -0.009 C 
ATOM      4  C   LIG    1        2.198   4.013   2.294  0.00  0.00    -0.022 C 
ATOM      5  C   LIG    1        1.101   3.264   2.408  0.00  0.00    +0.008 C 
ATOM      6  C   LIG    1        4.696   4.104   2.292  0.00  0.00    -0.054 C 
ATOM      7  N   LIG    1        5.889   3.218   2.285  0.00  0.00    +0.381 N 
ATOM      8  H   LIG    1        5.786   2.516   1.543  0.00  0.00    -0.082 HD
ATOM      9  C   LIG    1        7.114   4.014   2.029  0.00  0.00    -0.096 C 
ATOM     10  C   LIG    1        5.989   2.538   3.587  0.00  0.00    -0.078 C 
ATOM     11  C   LIG    1        4.778   1.620   3.770  0.00  0.00    -0.003 C 
ATOM     12  C   LIG    1        4.811   5.011   3.517  0.00  0.00    +0.021 C 
ATOM     13  C   LIG    1        3.874   4.679   4.628  0.00  0.00    -0.041 A 
ATOM     14  C   LIG    1        3.249   3.447   4.617  0.00  0.00    +0.012 A 
ATOM     15  C   LIG    1        2.163   3.087   5.391  0.00  0.00    +0.166 A 
ATOM     16  O   LIG    1        1.599   1.958   4.925  0.00  0.00    -0.481 OA
ATOM     17  C   LIG    1        2.244   1.502   3.721  0.00  0.00    +0.221 C 
ATOM     18  C   LIG    1        1.839   3.922   6.470  0.00  0.00    +0.159 A 
ATOM     19  C   LIG    1        2.558   5.110   6.586  0.00  0.00    +0.049 A 
ATOM     20  C   LIG    1        3.531   5.506   5.681  0.00  0.00    +0.007 A 
ATOM     21  C   LIG    1        3.490   2.381   3.590  0.00  0.00    +0.045 C 
ATOM     22  C   LIG    1        1.363   1.768   2.491  0.00  0.00    +0.130 C 
ENDROOT
BRANCH   1  23
ATOM     23  C   LIG    1        1.286   1.562  -0.002  0.00  0.00    +0.069 C 
ATOM     24  C   LIG    1        2.113   1.279  -1.258  0.00  0.00    +0.041 C 
BRANCH  23  25
ATOM     25  O   LIG    1        0.808   2.908  -0.040  0.00  0.00    -0.388 OA
ATOM     26  H   LIG    1        0.086   3.086   0.579  0.00  0.00    +0.210 HD
ENDBRANCH  23  25
BRANCH  23  27
ATOM     27  C   LIG    1        0.098   0.599   0.054  0.00  0.00    +0.034 C 
BRANCH  27  29
ATOM     28  C   LIG    1       -1.873  -0.283  -1.202  0.00  0.00    +0.004 C 
ATOM     29  C   LIG    1       -0.685   0.679  -1.258  0.00  0.00    -0.001 C 
ENDBRANCH  27  29
ENDBRANCH  23  27
ENDBRANCH   1  23
BRANCH  18  30
ATOM     30  O   LIG    1        0.870   3.588   7.363  0.00  0.00    -0.503 OA
ATOM     31  H   LIG    1        1.190   3.079   8.120  0.00  0.00    +0.292 HD
ENDBRANCH  18  30
BRANCH  22  32
ATOM     32  O   LIG    1        0.142   1.031   2.573  0.00  0.00    -0.368 OA
ATOM     33  C   LIG    1       -0.655   1.351   3.715  0.00  0.00    +0.195 C 
ENDBRANCH  22  32
TORSDOF 6
