REMARK  Name = ZINC05430812
REMARK                            x       y       z     vdW  Elec       q    Type
REMARK                         _______ _______ _______ _____ _____    ______ ____
ROOT
ATOM      1  C   LIG    1       -1.045  -0.278   3.356  0.00  0.00    +0.040 A 
ATOM      2  C   LIG    1       -2.430  -0.316   3.219  0.00  0.00    +0.127 A 
ATOM      3  C   LIG    1       -3.184  -1.253   3.909  0.00  0.00    +0.093 A 
ATOM      4  C   LIG    1       -2.563  -2.166   4.747  0.00  0.00    +0.146 A 
ATOM      5  C   LIG    1       -1.161  -2.133   4.891  0.00  0.00    +0.101 A 
ATOM      6  C   LIG    1       -0.526  -3.064   5.746  0.00  0.00    +0.142 A 
ATOM      7  C   LIG    1       -1.329  -4.000   6.430  0.00  0.00    +0.067 A 
ATOM      8  C   LIG    1       -0.743  -4.947   7.293  0.00  0.00    +0.016 A 
ATOM      9  C   LIG    1       -1.526  -5.845   7.949  0.00  0.00    +0.171 A 
ATOM     10  C   LIG    1       -2.927  -5.832   7.768  0.00  0.00    +0.224 A 
ATOM     11  C   LIG    1       -3.518  -4.897   6.914  0.00  0.00    +0.101 A 
ATOM     12  O   LIG    1       -3.688  -6.715   8.414  0.00  0.00    -0.284 OA
ATOM     13  C   LIG    1       -2.730  -3.981   6.243  0.00  0.00    +0.143 A 
ATOM     14  O   LIG    1       -3.300  -3.076   5.419  0.00  0.00    -0.454 OA
ATOM     15  C   LIG    1       -0.405  -1.181   4.181  0.00  0.00    +0.138 A 
ENDROOT
BRANCH   2  16
ATOM     16  O   LIG    1       -3.048   0.574   2.402  0.00  0.00    -0.506 OA
ATOM     17  H   LIG    1       -3.145   0.268   1.490  0.00  0.00    +0.292 HD
ENDBRANCH   2  16
BRANCH   6  18
ATOM     18  O   LIG    1        0.814  -3.058   5.902  0.00  0.00    -0.505 OA
ATOM     19  H   LIG    1        1.336  -2.430   5.441  0.00  0.00    +0.292 HD
ENDBRANCH   6  18
BRANCH   9  20
ATOM     20  O   LIG    1       -0.958  -6.759   8.782  0.00  0.00    -0.491 OA
ATOM     21  C   LIG    1       -1.051  -8.132   8.398  0.00  0.00    +0.277 C 
ENDBRANCH   9  20
BRANCH  15  22
ATOM     22  O   LIG    1        0.945  -1.147   4.310  0.00  0.00    -0.506 OA
ATOM     23  H   LIG    1        1.258  -0.576   5.024  0.00  0.00    +0.292 HD
ENDBRANCH  15  22
BRANCH   1  24
ATOM     24  C   LIG    1       -0.243   0.748   2.598  0.00  0.00    +0.069 C 
BRANCH  24  28
ATOM     25  C   LIG    1       -0.851   2.166   0.239  0.00  0.00    +0.038 C 
ATOM     26  C   LIG    1       -0.172   0.823   0.159  0.00  0.00    -0.079 C 
ATOM     27  C   LIG    1        0.136   0.214  -1.185  0.00  0.00    +0.038 C 
ATOM     28  C   LIG    1        0.151   0.186   1.256  0.00  0.00    -0.023 C 
ENDBRANCH  24  28
ENDBRANCH   1  24
BRANCH   8  29
ATOM     29  C   LIG    1        0.751  -4.965   7.489  0.00  0.00    +0.067 C 
BRANCH  29  30
ATOM     30  C   LIG    1        1.136  -3.930   8.514  0.00  0.00    -0.023 C 
ATOM     31  C   LIG    1        1.752  -4.293   9.612  0.00  0.00    -0.079 C 
ATOM     32  C   LIG    1        2.216  -3.249  10.596  0.00  0.00    +0.038 C 
ATOM     33  C   LIG    1        1.998  -5.753   9.891  0.00  0.00    +0.038 C 
ENDBRANCH  29  30
ENDBRANCH   8  29
TORSDOF 8
