REMARK  Name = ZINC05752381
REMARK                            x       y       z     vdW  Elec       q    Type
REMARK                         _______ _______ _______ _____ _____    ______ ____
ROOT
ATOM      1  C   LIG    1       -0.033   5.393  -0.463  0.00  0.00    +0.002 A 
ATOM      2  C   LIG    1        1.078   6.062  -0.984  0.00  0.00    +0.012 A 
ATOM      3  C   LIG    1        1.106   7.441  -1.006  0.00  0.00    +0.027 A 
ATOM      4  C   LIG    1        0.036   8.165  -0.501  0.00  0.00    +0.076 A 
ATOM      5  C   LIG    1       -1.074   7.503   0.026  0.00  0.00    +0.143 A 
ATOM      6  O   LIG    1       -2.114   8.229   0.519  0.00  0.00    -0.481 OA
ATOM      7  C   LIG    1       -1.791   9.481   1.130  0.00  0.00    +0.325 C 
ATOM      8  C   LIG    1       -0.830  10.240   0.251  0.00  0.00    +0.255 C 
ATOM      9  O   LIG    1       -0.851  11.453   0.232  0.00  0.00    -0.272 OA
ATOM     10  N   LIG    1        0.055   9.565  -0.514  0.00  0.00    -0.280 N 
ATOM     11  H   LIG    1        0.783  10.100  -1.143  0.00  0.00    +0.155 HD
ATOM     12  C   LIG    1       -1.111   6.123   0.046  0.00  0.00    +0.057 A 
ENDROOT
BRANCH   1  21
ATOM     13  C   LIG    1       -2.230   4.088  -1.641  0.00  0.00    +0.014 C 
ATOM     14  C   LIG    1       -1.356   3.205  -0.749  0.00  0.00    +0.046 C 
ATOM     15  C   LIG    1       -1.059   1.888  -1.469  0.00  0.00    +0.107 C 
ATOM     16  C   LIG    1        0.044   1.162  -0.739  0.00  0.00    +0.233 C 
ATOM     17  N   LIG    1        1.037   1.867  -0.164  0.00  0.00    -0.207 N 
ATOM     18  H   LIG    1        1.872   1.333   0.315  0.00  0.00    +0.177 HD
ATOM     19  N   LIG    1        1.014   3.264  -0.171  0.00  0.00    -0.184 NA
ATOM     20  O   LIG    1        0.034  -0.049  -0.666  0.00  0.00    -0.274 OA
ATOM     21  C   LIG    1       -0.066   3.919  -0.446  0.00  0.00    +0.070 C 
ENDBRANCH   1  21
TORSDOF 1
