REMARK  Name = ZINC04910686
REMARK                            x       y       z     vdW  Elec       q    Type
REMARK                         _______ _______ _______ _____ _____    ______ ____
ROOT
ATOM      1  C   LIG    1        2.254  -4.441  -0.044  0.00  0.00    +0.002 A 
ATOM      2  C   LIG    1        3.266  -3.492  -0.049  0.00  0.00    +0.002 A 
ATOM      3  C   LIG    1        2.962  -2.147  -0.038  0.00  0.00    +0.028 A 
ATOM      4  C   LIG    1        1.636  -1.733  -0.023  0.00  0.00    +0.075 A 
ATOM      5  C   LIG    1        0.607  -2.689  -0.018  0.00  0.00    +0.090 A 
ATOM      6  N   LIG    1       -0.696  -2.307  -0.004  0.00  0.00    -0.227 NA
ATOM      7  C   LIG    1       -1.036  -1.038   0.006  0.00  0.00    +0.165 A 
ATOM      8  C   LIG    1        0.002  -0.004   0.002  0.00  0.00    +0.201 A 
ATOM      9  N   LIG    1       -0.016   1.312   0.009  0.00  0.00    -0.126 NA
ATOM     10  N   LIG    1        1.193   1.755   0.000  0.00  0.00    -0.137 NA
ATOM     11  C   LIG    1        2.040   0.755  -0.013  0.00  0.00    +0.230 A 
ATOM     12  N   LIG    1        1.322  -0.385  -0.013  0.00  0.00    -0.277 N 
ATOM     13  C   LIG    1        0.934  -4.051  -0.029  0.00  0.00    +0.030 A 
ENDROOT
BRANCH   7  14
ATOM     14  N   LIG    1       -2.370  -0.679   0.021  0.00  0.00    -0.323 N 
ATOM     15  H   LIG    1       -2.620   0.258   0.029  0.00  0.00    +0.148 HD
BRANCH  14  16
ATOM     16  C   LIG    1       -3.407  -1.714   0.025  0.00  0.00    +0.072 C 
ATOM     17  C   LIG    1       -3.743  -2.132  -1.421  0.00  0.00    +0.022 C 
ATOM     18  C   LIG    1       -5.273  -2.375  -1.400  0.00  0.00    +0.002 C 
ATOM     19  C   LIG    1       -5.785  -1.255  -0.461  0.00  0.00    +0.002 C 
ATOM     20  C   LIG    1       -4.705  -1.157   0.636  0.00  0.00    +0.022 C 
ENDBRANCH  14  16
ENDBRANCH   7  14
TORSDOF 2
