REMARK  Name = ZINC05489319
REMARK                            x       y       z     vdW  Elec       q    Type
REMARK                         _______ _______ _______ _____ _____    ______ ____
ROOT
ATOM      1  C   LIG    1       -2.445  -0.575   0.023  0.00  0.00    +0.044 C 
ATOM      2  C   LIG    1       -0.993  -0.978   0.007  0.00  0.00    -0.039 A 
ATOM      3  C   LIG    1       -0.646  -2.312  -0.003  0.00  0.00    +0.004 A 
ATOM      4  C   LIG    1        0.688  -2.686  -0.018  0.00  0.00    +0.005 A 
ATOM      5  C   LIG    1        1.684  -1.732  -0.023  0.00  0.00    -0.026 A 
ATOM      6  C   LIG    1        3.131  -2.154  -0.039  0.00  0.00    +0.046 C 
ATOM      7  C   LIG    1        1.354  -0.381  -0.013  0.00  0.00    +0.053 A 
ATOM      8  N   LIG    1        2.129   0.767  -0.014  0.00  0.00    -0.337 N 
ATOM      9  H   LIG    1        3.226   0.690  -0.025  0.00  0.00    +0.167 HD
ATOM     10  C   LIG    1        1.330   1.883  -0.001  0.00  0.00    +0.162 A 
ATOM     11  N   LIG    1        1.589   3.187   0.004  0.00  0.00    -0.201 NA
ATOM     12  C   LIG    1        0.581   4.050   0.018  0.00  0.00    +0.212 A 
ATOM     13  N   LIG    1       -0.681   3.634   0.028  0.00  0.00    -0.122 NA
ATOM     14  N   LIG    1       -0.979   2.380   0.019  0.00  0.00    -0.143 NA
ATOM     15  C   LIG    1       -0.018   1.469   0.010  0.00  0.00    +0.138 A 
ATOM     16  C   LIG    1        0.002  -0.004   0.002  0.00  0.00    +0.032 A 
ENDROOT
BRANCH  12  17
ATOM     17  S   LIG    1        0.922   5.778   0.023  0.00  0.00    -0.076 S 
BRANCH  17  18
ATOM     18  C   LIG    1       -0.765   6.432   0.042  0.00  0.00    +0.157 C 
BRANCH  18  19
ATOM     19  C   LIG    1       -0.721   7.938   0.049  0.00  0.00    +0.173 C 
ATOM     20  O   LIG    1        0.347   8.513   0.042  0.00  0.00    -0.291 OA
BRANCH  19  21
ATOM     21  C   LIG    1       -1.972   8.710   0.065  0.00  0.00    +0.018 A 
ATOM     22  C   LIG    1       -3.205   8.050   0.068  0.00  0.00    +0.014 A 
ATOM     23  C   LIG    1       -4.374   8.779   0.088  0.00  0.00    +0.039 A 
ATOM     24  C   LIG    1       -4.329  10.166   0.095  0.00  0.00    +0.123 A 
ATOM     25  F   LIG    1       -5.479  10.876   0.110  0.00  0.00    -0.205 F 
ATOM     26  C   LIG    1       -3.109  10.827   0.087  0.00  0.00    +0.039 A 
ATOM     27  C   LIG    1       -1.934  10.109   0.072  0.00  0.00    +0.014 A 
ENDBRANCH  19  21
ENDBRANCH  18  19
ENDBRANCH  17  18
ENDBRANCH  12  17
TORSDOF 4
