REMARK  Name = ZINC04937432
REMARK                            x       y       z     vdW  Elec       q    Type
REMARK                         _______ _______ _______ _____ _____    ______ ____
ROOT
ATOM      1  S   LIG    1        2.704  -2.667   4.506  0.00  0.00    +0.060 S 
ATOM      2  O   LIG    1        2.621  -4.065   4.261  0.00  0.00    -0.153 OA
ATOM      3  O   LIG    1        2.199  -2.071   5.693  0.00  0.00    -0.153 OA
ENDROOT
BRANCH   1   8
ATOM      4  C   LIG    1        0.626  -0.619   1.042  0.00  0.00    +0.140 A 
ATOM      5  C   LIG    1        1.202   0.138   2.051  0.00  0.00    +0.069 A 
ATOM      6  C   LIG    1        1.836  -0.489   3.108  0.00  0.00    +0.071 A 
ATOM      7 CL   LIG    1        2.558   0.457   4.372  0.00  0.00    -0.081 Cl
ATOM      8  C   LIG    1        1.895  -1.871   3.159  0.00  0.00    +0.125 A 
ATOM      9  C   LIG    1        1.322  -2.627   2.154  0.00  0.00    +0.053 A 
ATOM     10  C   LIG    1        0.682  -2.004   1.098  0.00  0.00    +0.084 A 
ATOM     11 CL   LIG    1       -0.044  -2.955  -0.161  0.00  0.00    -0.080 Cl
BRANCH   4  13
ATOM     12  C   LIG    1       -0.017   1.425   0.010  0.00  0.00    +0.277 C 
ATOM     13  O   LIG    1        0.002  -0.004   0.002  0.00  0.00    -0.494 OA
ENDBRANCH   4  13
ENDBRANCH   1   8
BRANCH   1  14
ATOM     14  N   LIG    1        4.308  -2.266   4.421  0.00  0.00    -0.190 NA
ATOM     15  H   LIG    1        4.971  -2.953   4.248  0.00  0.00    +0.148 HD
BRANCH  14  16
ATOM     16  C   LIG    1        4.726  -0.874   4.606  0.00  0.00    +0.107 C 
BRANCH  16  17
ATOM     17  C   LIG    1        6.235  -0.823   4.853  0.00  0.00    +0.038 C 
BRANCH  17  18
ATOM     18  C   LIG    1        6.671   0.630   5.047  0.00  0.00    +0.124 C 
BRANCH  18  19
ATOM     19  N   LIG    1        8.117   0.679   5.283  0.00  0.00    -0.338 N 
ATOM     20  C   LIG    1        8.744   0.608   6.498  0.00  0.00    +0.104 A 
ATOM     21  C   LIG    1       10.066   0.689   6.259  0.00  0.00    +0.101 A 
ATOM     22  N   LIG    1       10.242   0.807   4.934  0.00  0.00    -0.352 N 
ATOM     23  H   LIG    1       11.099   0.884   4.486  0.00  0.00    +0.166 HD
ATOM     24  C   LIG    1        9.079   0.796   4.343  0.00  0.00    +0.173 A 
ENDBRANCH  18  19
ENDBRANCH  17  18
ENDBRANCH  16  17
ENDBRANCH  14  16
ENDBRANCH   1  14
TORSDOF 7
