REMARK  Name = ZINC05370091
REMARK                            x       y       z     vdW  Elec       q    Type
REMARK                         _______ _______ _______ _____ _____    ______ ____
ROOT
ATOM      1  C   LIG    1        2.545   2.083   1.165  0.00  0.00    -0.008 C 
ATOM      2  C   LIG    1        1.801   2.176  -0.162  0.00  0.00    -0.009 C 
ATOM      3  N   LIG    1        2.561   1.598  -1.299  0.00  0.00    +0.389 N 
ATOM      4  H   LIG    1        2.194   1.996  -2.171  0.00  0.00    -0.084 HD
ATOM      5  H   LIG    1        3.549   1.856  -1.194  0.00  0.00    -0.084 HD
ATOM      6  C   LIG    1        2.467   0.115  -1.380  0.00  0.00    -0.049 C 
ATOM      7  C   LIG    1        2.942  -0.277  -2.794  0.00  0.00    -0.008 C 
ATOM      8  C   LIG    1        3.374  -0.584  -0.369  0.00  0.00    -0.008 C 
ATOM      9  C   LIG    1        1.026  -0.378  -1.217  0.00  0.00    +0.150 C 
ATOM     10  O   LIG    1        0.475   0.162  -0.014  0.00  0.00    -0.348 OA
ATOM     11  C   LIG    1        0.394   1.590  -0.031  0.00  0.00    +0.181 C 
ENDROOT
BRANCH  11  12
ATOM     12  C   LIG    1       -0.231   2.069   1.254  0.00  0.00    +0.011 A 
ATOM     13  C   LIG    1       -0.967   3.240   1.270  0.00  0.00    +0.009 A 
ATOM     14  C   LIG    1       -1.544   3.677   2.447  0.00  0.00    +0.002 A 
ATOM     15  C   LIG    1       -1.377   2.950   3.611  0.00  0.00    +0.020 A 
ATOM     16  C   LIG    1       -0.637   1.782   3.596  0.00  0.00    +0.041 A 
ATOM     17 CL   LIG    1       -0.427   0.868   5.058  0.00  0.00    -0.084 Cl
ATOM     18  C   LIG    1       -0.063   1.341   2.417  0.00  0.00    +0.028 A 
ENDBRANCH  11  12
BRANCH  11  19
ATOM     19  O   LIG    1       -0.408   2.015  -1.134  0.00  0.00    -0.362 OA
ATOM     20  H   LIG    1       -1.315   1.680  -1.113  0.00  0.00    +0.213 HD
ENDBRANCH  11  19
TORSDOF 2
