REMARK  Name = ZINC05008844
REMARK                            x       y       z     vdW  Elec       q    Type
REMARK                         _______ _______ _______ _____ _____    ______ ____
ROOT
ATOM      1  N   LIG    1       -0.084   4.174  -0.146  0.00  0.00    -0.190 NA
ATOM      2  C   LIG    1       -0.117   5.470  -0.220  0.00  0.00    +0.141 C 
ENDROOT
BRANCH   2   3
ATOM      3  C   LIG    1       -1.405   6.181  -0.127  0.00  0.00    +0.037 A 
ATOM      4  C   LIG    1       -2.601   5.462  -0.071  0.00  0.00    +0.028 A 
ATOM      5  C   LIG    1       -3.804   6.133   0.016  0.00  0.00    +0.019 A 
ATOM      6 BR   LIG    1       -5.423   5.159   0.092  0.00  0.00    -0.050 Br
ATOM      7  C   LIG    1       -3.829   7.518   0.048  0.00  0.00    +0.019 A 
ATOM      8  C   LIG    1       -2.651   8.240  -0.007  0.00  0.00    +0.047 A 
ATOM      9  C   LIG    1       -1.436   7.581  -0.089  0.00  0.00    +0.130 A 
BRANCH   9  10
ATOM     10  O   LIG    1       -0.278   8.290  -0.137  0.00  0.00    -0.480 OA
BRANCH  10  11
ATOM     11  C   LIG    1       -0.382   9.710  -0.017  0.00  0.00    +0.349 C 
BRANCH  11  12
ATOM     12  C   LIG    1        0.986  10.328  -0.162  0.00  0.00    +0.343 C 
ATOM     13  O   LIG    1        1.935   9.635  -0.442  0.00  0.00    -0.247 OA
BRANCH  12  14
ATOM     14  O   LIG    1        1.149  11.648   0.021  0.00  0.00    -0.478 OA
ATOM     15  H   LIG    1        0.413  12.185   0.239  0.00  0.00    +0.295 HD
ENDBRANCH  12  14
ENDBRANCH  11  12
ENDBRANCH  10  11
ENDBRANCH   9  10
ENDBRANCH   2   3
BRANCH   1  16
ATOM     16  N   LIG    1        1.147   3.505  -0.128  0.00  0.00    -0.236 N 
ATOM     17  H   LIG    1        1.974   4.011  -0.097  0.00  0.00    +0.174 HD
BRANCH  16  26
ATOM     18  C   LIG    1        0.036  -0.004  -0.112  0.00  0.00    +0.003 A 
ATOM     19  C   LIG    1        1.212  -0.685  -0.205  0.00  0.00    +0.010 A 
ATOM     20  C   LIG    1        2.425   0.019  -0.277  0.00  0.00    +0.002 A 
ATOM     21  C   LIG    1        3.658  -0.655  -0.375  0.00  0.00    +0.011 A 
ATOM     22  C   LIG    1        4.798   0.093  -0.443  0.00  0.00    +0.020 A 
ATOM     23  C   LIG    1        4.720   1.484  -0.413  0.00  0.00    +0.111 A 
ATOM     24  N   LIG    1        3.570   2.107  -0.321  0.00  0.00    -0.253 NA
ATOM     25  C   LIG    1        2.419   1.435  -0.252  0.00  0.00    +0.093 A 
ATOM     26  C   LIG    1        1.183   2.114  -0.154  0.00  0.00    +0.074 A 
ATOM     27  C   LIG    1        0.013   1.386  -0.086  0.00  0.00    +0.027 A 
ENDBRANCH  16  26
ENDBRANCH   1  16
TORSDOF 7
