REMARK  Name = ZINC05462674
REMARK                            x       y       z     vdW  Elec       q    Type
REMARK                         _______ _______ _______ _____ _____    ______ ____
ROOT
ATOM      1  C   LIG    1       -0.019   1.526   0.010  0.00  0.00    +0.019 C 
ATOM      2  C   LIG    1        0.002  -0.004   0.002  0.00  0.00    +0.098 C 
ATOM      3  C   LIG    1       -1.434  -0.547   0.040  0.00  0.00    +0.181 C 
ATOM      4  C   LIG    1       -2.204  -0.038  -1.180  0.00  0.00    +0.052 C 
ATOM      5  O   LIG    1       -2.078  -0.097   1.232  0.00  0.00    -0.488 OA
ATOM      6  C   LIG    1       -1.468  -0.316   2.423  0.00  0.00    +0.136 A 
ATOM      7  C   LIG    1       -2.213  -0.330   3.566  0.00  0.00    +0.056 A 
ATOM      8  C   LIG    1       -1.603  -0.546   4.812  0.00  0.00    +0.004 A 
ATOM      9  C   LIG    1       -0.203  -0.752   4.891  0.00  0.00    +0.067 A 
ATOM     10  C   LIG    1        0.565  -0.740   3.712  0.00  0.00    +0.142 A 
ATOM     11  C   LIG    1        0.403  -0.965   6.146  0.00  0.00    +0.132 A 
ATOM     12  C   LIG    1       -0.366  -0.974   7.289  0.00  0.00    +0.092 A 
ATOM     13  C   LIG    1       -1.743  -0.775   7.223  0.00  0.00    +0.129 A 
ATOM     14  C   LIG    1       -2.371  -0.561   5.999  0.00  0.00    +0.036 A 
ATOM     15  C   LIG    1       -0.069  -0.525   2.487  0.00  0.00    +0.101 A 
ATOM     16  C   LIG    1        0.711  -0.518   1.242  0.00  0.00    +0.176 C 
ATOM     17  O   LIG    1        1.861  -0.904   1.205  0.00  0.00    -0.291 OA
ENDROOT
BRANCH  14  18
ATOM     18  C   LIG    1       -3.833  -0.351   5.941  0.00  0.00    +0.036 A 
ATOM     19  C   LIG    1       -4.368   0.955   6.031  0.00  0.00    +0.004 A 
ATOM     20  C   LIG    1       -3.523   2.066   6.183  0.00  0.00    +0.056 A 
ATOM     21  C   LIG    1       -4.044   3.324   6.269  0.00  0.00    +0.136 A 
ATOM     22  C   LIG    1       -5.445   3.518   6.201  0.00  0.00    +0.101 A 
ATOM     23  C   LIG    1       -5.979   4.882   6.283  0.00  0.00    +0.176 C 
ATOM     24  C   LIG    1       -5.012   5.966   6.721  0.00  0.00    +0.098 C 
ATOM     25  C   LIG    1       -4.843   5.931   8.242  0.00  0.00    +0.019 C 
ATOM     26  C   LIG    1       -3.667   5.678   6.038  0.00  0.00    +0.181 C 
ATOM     27  C   LIG    1       -2.641   6.730   6.465  0.00  0.00    +0.052 C 
ATOM     28  O   LIG    1       -7.137   5.131   6.014  0.00  0.00    -0.291 OA
ATOM     29  C   LIG    1       -6.309   2.431   6.054  0.00  0.00    +0.142 A 
ATOM     30  O   LIG    1       -3.209   4.383   6.423  0.00  0.00    -0.488 OA
ATOM     31  C   LIG    1       -5.772   1.134   5.969  0.00  0.00    +0.067 A 
ATOM     32  C   LIG    1       -6.615   0.012   5.823  0.00  0.00    +0.132 A 
ATOM     33  C   LIG    1       -6.070  -1.251   5.739  0.00  0.00    +0.092 A 
ATOM     34  C   LIG    1       -4.691  -1.438   5.791  0.00  0.00    +0.129 A 
BRANCH  29  35
ATOM     35  O   LIG    1       -7.648   2.624   5.995  0.00  0.00    -0.505 OA
ATOM     36  H   LIG    1       -7.986   2.759   5.099  0.00  0.00    +0.292 HD
ENDBRANCH  29  35
BRANCH  32  37
ATOM     37  O   LIG    1       -7.961   0.176   5.765  0.00  0.00    -0.506 OA
ATOM     38  H   LIG    1       -8.304   0.303   4.870  0.00  0.00    +0.292 HD
ENDBRANCH  32  37
BRANCH  34  39
ATOM     39  O   LIG    1       -4.178  -2.692   5.699  0.00  0.00    -0.506 OA
ATOM     40  H   LIG    1       -4.077  -3.139   6.551  0.00  0.00    +0.292 HD
ENDBRANCH  34  39
ENDBRANCH  14  18
BRANCH  10  41
ATOM     41  O   LIG    1        1.904  -0.936   3.765  0.00  0.00    -0.505 OA
ATOM     42  H   LIG    1        2.169  -1.863   3.692  0.00  0.00    +0.292 HD
ENDBRANCH  10  41
BRANCH  11  43
ATOM     43  O   LIG    1        1.744  -1.160   6.229  0.00  0.00    -0.506 OA
ATOM     44  H   LIG    1        2.254  -0.347   6.342  0.00  0.00    +0.292 HD
ENDBRANCH  11  43
BRANCH  13  45
ATOM     45  O   LIG    1       -2.480  -0.789   8.364  0.00  0.00    -0.506 OA
ATOM     46  H   LIG    1       -2.572   0.077   8.784  0.00  0.00    +0.292 HD
ENDBRANCH  13  45
TORSDOF 7
