REMARK  Name = ZINC05071680
REMARK                            x       y       z     vdW  Elec       q    Type
REMARK                         _______ _______ _______ _____ _____    ______ ____
ROOT
ATOM      1  C   LIG    1        1.078   1.227   0.163  0.00  0.00    +0.000 A 
ATOM      2  C   LIG    1        0.794   2.583   0.376  0.00  0.00    +0.012 A 
ATOM      3  C   LIG    1       -0.499   3.019   0.427  0.00  0.00    +0.028 A 
ATOM      4  C   LIG    1       -1.547   2.120   0.267  0.00  0.00    +0.067 A 
ATOM      5  C   LIG    1       -1.281   0.756   0.046  0.00  0.00    +0.090 A 
ATOM      6  N   LIG    1       -2.477   0.128  -0.066  0.00  0.00    -0.228 NA
ATOM      7  C   LIG    1       -3.446   1.001   0.060  0.00  0.00    +0.139 A 
ATOM      8  N   LIG    1       -2.922   2.249   0.268  0.00  0.00    -0.338 N 
ATOM      9  H   LIG    1       -3.382   3.236   0.420  0.00  0.00    +0.167 HD
ATOM     10  C   LIG    1        0.042   0.312  -0.000  0.00  0.00    +0.039 A 
ENDROOT
BRANCH   1  19
ATOM     11  C   LIG    1        2.777   1.854   2.317  0.00  0.00    +0.014 C 
ATOM     12  C   LIG    1        3.488   1.365   1.054  0.00  0.00    +0.046 C 
ATOM     13  C   LIG    1        4.527   0.307   1.433  0.00  0.00    +0.107 C 
ATOM     14  C   LIG    1        4.996  -0.396   0.183  0.00  0.00    +0.233 C 
ATOM     15  N   LIG    1        4.126  -0.623  -0.819  0.00  0.00    -0.207 N 
ATOM     16  H   LIG    1        4.453  -1.193  -1.701  0.00  0.00    +0.177 HD
ATOM     17  N   LIG    1        2.817  -0.141  -0.744  0.00  0.00    -0.184 NA
ATOM     18  O   LIG    1        6.151  -0.754   0.082  0.00  0.00    -0.274 OA
ATOM     19  C   LIG    1        2.479   0.769   0.109  0.00  0.00    +0.070 C 
ENDBRANCH   1  19
BRANCH   7  20
ATOM     20  C   LIG    1       -4.889   0.687  -0.011  0.00  0.00    +0.018 A 
ATOM     21  C   LIG    1       -5.835   1.702   0.144  0.00  0.00    +0.015 A 
ATOM     22  C   LIG    1       -7.179   1.405   0.073  0.00  0.00    +0.046 A 
ATOM     23  C   LIG    1       -7.592   0.097  -0.144  0.00  0.00    +0.120 A 
ATOM     24  C   LIG    1       -6.654  -0.916  -0.293  0.00  0.00    +0.046 A 
ATOM     25  C   LIG    1       -5.309  -0.627  -0.228  0.00  0.00    +0.015 A 
BRANCH  23  26
ATOM     26  O   LIG    1       -8.918  -0.192  -0.209  0.00  0.00    -0.495 OA
ATOM     27  C   LIG    1       -9.828   0.897  -0.046  0.00  0.00    +0.277 C 
ENDBRANCH  23  26
ENDBRANCH   7  20
TORSDOF 3
