REMARK  Name = ZINC05835088
REMARK                            x       y       z     vdW  Elec       q    Type
REMARK                         _______ _______ _______ _____ _____    ______ ____
ROOT
ATOM      1  C   LIG    1        2.714  -4.241  -0.047  0.00  0.00    +0.107 C 
ENDROOT
BRANCH   1   8
ATOM      2  C   LIG    1        2.570   1.314   2.801  0.00  0.00    +0.001 A 
ATOM      3  C   LIG    1        3.060   2.023   1.714  0.00  0.00    +0.004 A 
ATOM      4  C   LIG    1        3.373   1.377   0.537  0.00  0.00    +0.047 A 
ATOM      5  C   LIG    1        3.199   0.003   0.432  0.00  0.00    +0.143 A 
ATOM      6  C   LIG    1        2.703  -0.713   1.532  0.00  0.00    +0.065 A 
ATOM      7  C   LIG    1        2.526  -2.173   1.398  0.00  0.00    +0.200 A 
ATOM      8  C   LIG    1        2.869  -2.757   0.161  0.00  0.00    +0.092 A 
ATOM      9  C   LIG    1        3.342  -1.972  -0.843  0.00  0.00    +0.292 A 
ATOM     10  O   LIG    1        2.099  -2.848   2.321  0.00  0.00    -0.287 OA
ATOM     11  O   LIG    1        3.499  -0.649  -0.711  0.00  0.00    -0.425 OA
ATOM     12  C   LIG    1        2.390  -0.050   2.717  0.00  0.00    +0.015 A 
BRANCH   9  13
ATOM     13  O   LIG    1        3.665  -2.549  -2.019  0.00  0.00    -0.480 OA
ATOM     14  H   LIG    1        3.562  -3.473  -2.132  0.00  0.00    +0.295 HD
ENDBRANCH   9  13
ENDBRANCH   1   8
BRANCH   1  15
ATOM     15  C   LIG    1        1.760  -4.492  -1.186  0.00  0.00    +0.092 A 
ATOM     16  C   LIG    1        0.487  -3.885  -1.192  0.00  0.00    +0.200 A 
ATOM     17  C   LIG    1       -0.397  -4.174  -2.340  0.00  0.00    +0.065 A 
ATOM     18  C   LIG    1       -1.671  -3.619  -2.432  0.00  0.00    +0.015 A 
ATOM     19  C   LIG    1       -2.465  -3.914  -3.519  0.00  0.00    +0.001 A 
ATOM     20  C   LIG    1       -1.999  -4.759  -4.516  0.00  0.00    +0.004 A 
ATOM     21  C   LIG    1       -0.740  -5.315  -4.436  0.00  0.00    +0.047 A 
ATOM     22  C   LIG    1        0.075  -5.029  -3.348  0.00  0.00    +0.143 A 
ATOM     23  O   LIG    1        1.312  -5.561  -3.249  0.00  0.00    -0.425 OA
ATOM     24  O   LIG    1        0.131  -3.149  -0.287  0.00  0.00    -0.287 OA
ATOM     25  C   LIG    1        2.123  -5.301  -2.216  0.00  0.00    +0.292 A 
BRANCH  25  26
ATOM     26  O   LIG    1        3.347  -5.868  -2.194  0.00  0.00    -0.480 OA
ATOM     27  H   LIG    1        3.534  -6.429  -2.959  0.00  0.00    +0.295 HD
ENDBRANCH  25  26
ENDBRANCH   1  15
BRANCH   1  28
ATOM     28  C   LIG    1        2.172  -4.870   1.211  0.00  0.00    +0.002 A 
ATOM     29  C   LIG    1        2.836  -5.537   2.186  0.00  0.00    +0.012 A 
ATOM     30  C   LIG    1        2.124  -6.034   3.262  0.00  0.00    +0.008 A 
ATOM     31  C   LIG    1        0.784  -5.839   3.310  0.00  0.00    +0.045 A 
ATOM     32  S   LIG    1        0.490  -4.924   1.806  0.00  0.00    -0.101 S 
ENDBRANCH   1  28
TORSDOF 5
