REMARK  Name = ZINC04942475
REMARK                            x       y       z     vdW  Elec       q    Type
REMARK                         _______ _______ _______ _____ _____    ______ ____
ROOT
ATOM      1  C   LIG    1        0.025   0.045   2.504  0.00  0.00    +0.137 C 
ATOM      2  C   LIG    1       -1.416   0.357   2.954  0.00  0.00    +0.087 C 
ATOM      3  C   LIG    1       -1.552  -0.372   4.272  0.00  0.00    +0.072 C 
ATOM      4  N   LIG    1       -0.448  -0.977   4.545  0.00  0.00    -0.181 NA
ATOM      5  N   LIG    1        0.551  -0.805   3.584  0.00  0.00    -0.185 N 
ATOM      6  C   LIG    1        1.791  -1.331   3.635  0.00  0.00    +0.232 C 
ATOM      7  C   LIG    1        2.199  -2.188   4.806  0.00  0.00    +0.111 C 
ATOM      8  O   LIG    1        2.579  -1.114   2.739  0.00  0.00    -0.274 OA
ENDROOT
BRANCH   1  15
ATOM      9  C   LIG    1       -0.018   1.503   0.010  0.00  0.00    +0.044 C 
ATOM     10  C   LIG    1        0.002  -0.004   0.002  0.00  0.00    -0.045 A 
ATOM     11  C   LIG    1        0.006  -0.689  -1.199  0.00  0.00    +0.004 A 
ATOM     12  C   LIG    1        0.025  -2.071  -1.207  0.00  0.00    +0.000 A 
ATOM     13  C   LIG    1        0.040  -2.768  -0.013  0.00  0.00    +0.000 A 
ATOM     14  C   LIG    1        0.037  -2.084   1.188  0.00  0.00    +0.006 A 
ATOM     15  C   LIG    1        0.023  -0.702   1.195  0.00  0.00    -0.022 A 
ENDBRANCH   1  15
BRANCH   3  16
ATOM     16  C   LIG    1       -2.761  -0.386   5.114  0.00  0.00    +0.039 A 
ATOM     17  C   LIG    1       -3.906   0.305   4.712  0.00  0.00    +0.013 A 
ATOM     18  C   LIG    1       -5.034   0.287   5.505  0.00  0.00    +0.001 A 
ATOM     19  C   LIG    1       -5.037  -0.414   6.699  0.00  0.00    +0.004 A 
ATOM     20  C   LIG    1       -3.911  -1.103   7.108  0.00  0.00    +0.046 A 
ATOM     21  C   LIG    1       -2.771  -1.099   6.321  0.00  0.00    +0.126 A 
BRANCH  21  22
ATOM     22  O   LIG    1       -1.665  -1.780   6.719  0.00  0.00    -0.506 OA
ATOM     23  H   LIG    1       -1.057  -1.259   7.261  0.00  0.00    +0.292 HD
ENDBRANCH  21  22
ENDBRANCH   3  16
TORSDOF 3
