MODEL 1
REMARK VINA RESULT:      -5.6      0.000      0.000
REMARK  Name = ZINC00000361
REMARK                            x       y       z     vdW  Elec       q    Type
REMARK                         _______ _______ _______ _____ _____    ______ ____
ROOT
ATOM      1  C   LIG    1       21.910  31.138  55.341  0.00  0.00    -0.034 A 
ATOM      2  C   LIG    1       22.781  30.661  54.378  0.00  0.00    +0.005 A 
ATOM      3  C   LIG    1       24.109  31.035  54.401  0.00  0.00    +0.009 A 
ATOM      4  C   LIG    1       24.574  31.887  55.400  0.00  0.00    -0.018 A 
ATOM      5  C   LIG    1       23.692  32.361  56.370  0.00  0.00    +0.009 A 
ATOM      6  C   LIG    1       22.365  31.984  56.336  0.00  0.00    +0.005 A 
ENDROOT
BRANCH   4   7
ATOM      7  C   LIG    1       26.002  32.289  55.433  0.00  0.00    -0.018 A 
ATOM      8  C   LIG    1       27.000  31.342  55.213  0.00  0.00    +0.008 A 
ATOM      9  C   LIG    1       28.326  31.724  55.239  0.00  0.00    +0.001 A 
ATOM     10  C   LIG    1       28.666  33.041  55.493  0.00  0.00    +0.000 A 
ATOM     11  C   LIG    1       27.679  33.984  55.716  0.00  0.00    +0.001 A 
ATOM     12  C   LIG    1       26.350  33.614  55.687  0.00  0.00    +0.008 A 
ENDBRANCH   4   7
BRANCH   1  14
ATOM     13  C   LIG    1       19.678  31.537  56.347  0.00  0.00    +0.024 C 
ATOM     14  C   LIG    1       20.458  30.729  55.309  0.00  0.00    +0.124 C 
BRANCH  14  15
ATOM     15  C   LIG    1       20.343  29.260  55.625  0.00  0.00    +0.312 C 
ATOM     16  O   LIG    1       20.731  28.839  56.688  0.00  0.00    -0.250 OA
BRANCH  15  17
ATOM     17  O   LIG    1       19.803  28.422  54.726  0.00  0.00    -0.480 OA
ATOM     18  H   LIG    1       20.176  27.572  54.596  0.00  0.00    +0.295 HD
ENDBRANCH  15  17
ENDBRANCH  14  15
ENDBRANCH   1  14
TORSDOF 4
ENDMDL
MODEL 2
REMARK VINA RESULT:      -5.5      1.308      1.631
REMARK  Name = ZINC00000361
REMARK                            x       y       z     vdW  Elec       q    Type
REMARK                         _______ _______ _______ _____ _____    ______ ____
ROOT
ATOM      1  C   LIG    1       22.530  29.986  56.518  0.00  0.00    -0.034 A 
ATOM      2  C   LIG    1       23.715  29.305  56.306  0.00  0.00    +0.005 A 
ATOM      3  C   LIG    1       24.878  30.002  56.045  0.00  0.00    +0.009 A 
ATOM      4  C   LIG    1       24.857  31.395  56.004  0.00  0.00    -0.018 A 
ATOM      5  C   LIG    1       23.661  32.076  56.222  0.00  0.00    +0.009 A 
ATOM      6  C   LIG    1       22.504  31.368  56.478  0.00  0.00    +0.005 A 
ENDROOT
BRANCH   4   7
ATOM      7  C   LIG    1       26.104  32.151  55.728  0.00  0.00    -0.018 A 
ATOM      8  C   LIG    1       27.276  31.471  55.400  0.00  0.00    +0.008 A 
ATOM      9  C   LIG    1       28.431  32.180  55.139  0.00  0.00    +0.001 A 
ATOM     10  C   LIG    1       28.430  33.561  55.215  0.00  0.00    +0.000 A 
ATOM     11  C   LIG    1       27.272  34.241  55.545  0.00  0.00    +0.001 A 
ATOM     12  C   LIG    1       26.110  33.542  55.802  0.00  0.00    +0.008 A 
ENDBRANCH   4   7
BRANCH   1  14
ATOM     13  C   LIG    1       21.582  27.725  56.892  0.00  0.00    +0.024 C 
ATOM     14  C   LIG    1       21.263  29.218  56.798  0.00  0.00    +0.124 C 
BRANCH  14  15
ATOM     15  C   LIG    1       20.277  29.452  55.682  0.00  0.00    +0.312 C 
ATOM     16  O   LIG    1       19.231  30.012  55.908  0.00  0.00    -0.250 OA
BRANCH  15  17
ATOM     17  O   LIG    1       20.565  29.043  54.436  0.00  0.00    -0.480 OA
ATOM     18  H   LIG    1       20.052  29.347  53.713  0.00  0.00    +0.295 HD
ENDBRANCH  15  17
ENDBRANCH  14  15
ENDBRANCH   1  14
TORSDOF 4
ENDMDL
MODEL 3
REMARK VINA RESULT:      -5.4      3.216      6.610
REMARK  Name = ZINC00000361
REMARK                            x       y       z     vdW  Elec       q    Type
REMARK                         _______ _______ _______ _____ _____    ______ ____
ROOT
ATOM      1  C   LIG    1       25.709  31.821  55.085  0.00  0.00    -0.034 A 
ATOM      2  C   LIG    1       24.832  31.539  54.054  0.00  0.00    +0.005 A 
ATOM      3  C   LIG    1       23.765  30.689  54.266  0.00  0.00    +0.009 A 
ATOM      4  C   LIG    1       23.568  30.122  55.523  0.00  0.00    -0.018 A 
ATOM      5  C   LIG    1       24.453  30.413  56.559  0.00  0.00    +0.009 A 
ATOM      6  C   LIG    1       25.519  31.261  56.335  0.00  0.00    +0.005 A 
ENDROOT
BRANCH   4   7
ATOM      7  C   LIG    1       22.420  29.212  55.758  0.00  0.00    -0.018 A 
ATOM      8  C   LIG    1       21.254  29.348  55.008  0.00  0.00    +0.008 A 
ATOM      9  C   LIG    1       20.192  28.495  55.227  0.00  0.00    +0.001 A 
ATOM     10  C   LIG    1       20.279  27.513  56.198  0.00  0.00    +0.000 A 
ATOM     11  C   LIG    1       21.432  27.376  56.949  0.00  0.00    +0.001 A 
ATOM     12  C   LIG    1       22.502  28.221  56.734  0.00  0.00    +0.008 A 
ENDBRANCH   4   7
BRANCH   1  14
ATOM     13  C   LIG    1       28.182  31.958  54.953  0.00  0.00    +0.024 C 
ATOM     14  C   LIG    1       26.876  32.746  54.846  0.00  0.00    +0.124 C 
BRANCH  14  15
ATOM     15  C   LIG    1       26.866  33.844  55.878  0.00  0.00    +0.312 C 
ATOM     16  O   LIG    1       27.724  33.883  56.727  0.00  0.00    -0.250 OA
BRANCH  15  17
ATOM     17  O   LIG    1       25.907  34.783  55.850  0.00  0.00    -0.480 OA
ATOM     18  H   LIG    1       25.674  35.239  56.635  0.00  0.00    +0.295 HD
ENDBRANCH  15  17
ENDBRANCH  14  15
ENDBRANCH   1  14
TORSDOF 4
ENDMDL
MODEL 4
REMARK VINA RESULT:      -5.0      3.786      5.817
REMARK  Name = ZINC00000361
REMARK                            x       y       z     vdW  Elec       q    Type
REMARK                         _______ _______ _______ _____ _____    ______ ____
ROOT
ATOM      1  C   LIG    1       22.215  31.939  55.999  0.00  0.00    -0.034 A 
ATOM      2  C   LIG    1       20.978  32.363  55.547  0.00  0.00    +0.005 A 
ATOM      3  C   LIG    1       20.522  33.627  55.864  0.00  0.00    +0.009 A 
ATOM      4  C   LIG    1       21.312  34.478  56.633  0.00  0.00    -0.018 A 
ATOM      5  C   LIG    1       22.559  34.047  57.082  0.00  0.00    +0.009 A 
ATOM      6  C   LIG    1       23.004  32.780  56.763  0.00  0.00    +0.005 A 
ENDROOT
BRANCH   4   7
ATOM      7  C   LIG    1       20.829  35.839  56.972  0.00  0.00    -0.018 A 
ATOM      8  C   LIG    1       21.740  36.870  57.193  0.00  0.00    +0.008 A 
ATOM      9  C   LIG    1       21.283  38.135  57.503  0.00  0.00    +0.001 A 
ATOM     10  C   LIG    1       19.925  38.378  57.607  0.00  0.00    +0.000 A 
ATOM     11  C   LIG    1       19.017  37.358  57.394  0.00  0.00    +0.001 A 
ATOM     12  C   LIG    1       19.462  36.090  57.078  0.00  0.00    +0.008 A 
ENDBRANCH   4   7
BRANCH   1  14
ATOM     13  C   LIG    1       24.088  30.337  56.273  0.00  0.00    +0.024 C 
ATOM     14  C   LIG    1       22.707  30.556  55.653  0.00  0.00    +0.124 C 
BRANCH  14  15
ATOM     15  C   LIG    1       22.799  30.415  54.156  0.00  0.00    +0.312 C 
ATOM     16  O   LIG    1       23.653  31.013  53.545  0.00  0.00    -0.250 OA
BRANCH  15  17
ATOM     17  O   LIG    1       21.938  29.620  53.502  0.00  0.00    -0.480 OA
ATOM     18  H   LIG    1       21.267  29.168  53.975  0.00  0.00    +0.295 HD
ENDBRANCH  15  17
ENDBRANCH  14  15
ENDBRANCH   1  14
TORSDOF 4
ENDMDL
MODEL 5
REMARK VINA RESULT:      -5.0      3.170      6.503
REMARK  Name = ZINC00000361
REMARK                            x       y       z     vdW  Elec       q    Type
REMARK                         _______ _______ _______ _____ _____    ______ ____
ROOT
ATOM      1  C   LIG    1       25.623  31.980  56.090  0.00  0.00    -0.034 A 
ATOM      2  C   LIG    1       25.683  30.604  55.972  0.00  0.00    +0.005 A 
ATOM      3  C   LIG    1       24.520  29.862  55.920  0.00  0.00    +0.009 A 
ATOM      4  C   LIG    1       23.284  30.502  55.976  0.00  0.00    -0.018 A 
ATOM      5  C   LIG    1       23.230  31.890  56.090  0.00  0.00    +0.009 A 
ATOM      6  C   LIG    1       24.399  32.622  56.146  0.00  0.00    +0.005 A 
ENDROOT
BRANCH   4   7
ATOM      7  C   LIG    1       22.031  29.711  55.915  0.00  0.00    -0.018 A 
ATOM      8  C   LIG    1       22.037  28.363  56.270  0.00  0.00    +0.008 A 
ATOM      9  C   LIG    1       20.867  27.634  56.217  0.00  0.00    +0.001 A 
ATOM     10  C   LIG    1       19.692  28.235  55.801  0.00  0.00    +0.000 A 
ATOM     11  C   LIG    1       19.681  29.570  55.442  0.00  0.00    +0.001 A 
ATOM     12  C   LIG    1       20.845  30.310  55.497  0.00  0.00    +0.008 A 
ENDBRANCH   4   7
BRANCH   1  14
ATOM     13  C   LIG    1       26.565  34.274  56.032  0.00  0.00    +0.024 C 
ATOM     14  C   LIG    1       26.896  32.785  56.152  0.00  0.00    +0.124 C 
BRANCH  14  15
ATOM     15  C   LIG    1       27.803  32.379  55.018  0.00  0.00    +0.312 C 
ATOM     16  O   LIG    1       28.879  31.883  55.253  0.00  0.00    -0.250 OA
BRANCH  15  17
ATOM     17  O   LIG    1       27.411  32.563  53.747  0.00  0.00    -0.480 OA
ATOM     18  H   LIG    1       26.700  33.142  53.556  0.00  0.00    +0.295 HD
ENDBRANCH  15  17
ENDBRANCH  14  15
ENDBRANCH   1  14
TORSDOF 4
ENDMDL
