REMARK VINA RESULT:      -6.2      1.797      2.845
REMARK  Name = ZINC00001087
REMARK                            x       y       z     vdW  Elec       q    Type
REMARK                         _______ _______ _______ _____ _____    ______ ____
ROOT
ATOM      1  C   LIG    1       21.264  29.231  55.787  0.00  0.00    +0.188 C 
ATOM      2  C   LIG    1       20.407  30.447  56.035  0.00  0.00    +0.008 A 
ATOM      3  C   LIG    1       21.034  31.681  56.259  0.00  0.00    +0.035 A 
ATOM      4  C   LIG    1       20.278  32.812  56.481  0.00  0.00    +0.071 A 
ATOM      5  N   LIG    1       18.914  32.730  56.476  0.00  0.00    -0.302 N 
ATOM      6  C   LIG    1       18.362  34.066  56.732  0.00  0.00    +0.162 C 
ATOM      7  C   LIG    1       19.541  34.992  56.898  0.00  0.00    +0.000 A 
ATOM      8  C   LIG    1       19.638  36.325  57.147  0.00  0.00    +0.017 A 
ATOM      9  C   LIG    1       20.926  36.890  57.243  0.00  0.00    +0.001 A 
ATOM     10  C   LIG    1       21.104  38.258  57.498  0.00  0.00    +0.010 A 
ATOM     11  C   LIG    1       22.364  38.769  57.583  0.00  0.00    +0.001 A 
ATOM     12  C   LIG    1       23.480  37.951  57.420  0.00  0.00    +0.002 A 
ATOM     13  C   LIG    1       23.344  36.620  57.171  0.00  0.00    +0.028 A 
ATOM     14  C   LIG    1       22.059  36.054  57.077  0.00  0.00    +0.072 A 
ATOM     15  N   LIG    1       21.901  34.753  56.834  0.00  0.00    -0.245 NA
ATOM     16  C   LIG    1       18.301  31.551  56.259  0.00  0.00    +0.259 A 
ATOM     17  O   LIG    1       17.081  31.499  56.249  0.00  0.00    -0.267 OA
ATOM     18  C   LIG    1       20.698  34.209  56.741  0.00  0.00    +0.093 A 
ATOM     19  C   LIG    1       19.049  30.376  56.042  0.00  0.00    +0.061 A 
ATOM     20  C   LIG    1       18.311  29.078  55.845  0.00  0.00    +0.273 C 
ATOM     21  O   LIG    1       19.170  28.086  55.283  0.00  0.00    -0.457 OA
ATOM     22  C   LIG    1       20.392  27.998  55.856  0.00  0.00    +0.344 C 
ATOM     23  O   LIG    1       20.768  26.985  56.395  0.00  0.00    -0.247 OA
ENDROOT
BRANCH   1  25
ATOM     24  C   LIG    1       23.285  28.668  54.429  0.00  0.00    +0.007 C 
ATOM     25  C   LIG    1       21.905  29.329  54.401  0.00  0.00    +0.048 C 
ENDBRANCH   1  25
BRANCH   1  26
ATOM     26  O   LIG    1       22.286  29.151  56.783  0.00  0.00    -0.373 OA
ATOM     27  H   LIG    1       22.344  29.933  57.350  0.00  0.00    +0.211 HD
ENDBRANCH   1  26
TORSDOF 2
