REMARK VINA RESULT:      -6.6      0.000      0.000
REMARK  Name = ZINC00001087
REMARK                            x       y       z     vdW  Elec       q    Type
REMARK                         _______ _______ _______ _____ _____    ______ ____
ROOT
ATOM      1  C   LIG    1       23.937  30.561  55.545  0.00  0.00    +0.188 C 
ATOM      2  C   LIG    1       22.480  30.923  55.683  0.00  0.00    +0.008 A 
ATOM      3  C   LIG    1       22.141  32.232  56.053  0.00  0.00    +0.035 A 
ATOM      4  C   LIG    1       20.818  32.596  56.180  0.00  0.00    +0.071 A 
ATOM      5  N   LIG    1       19.835  31.680  55.937  0.00  0.00    -0.302 N 
ATOM      6  C   LIG    1       18.531  32.325  56.139  0.00  0.00    +0.162 C 
ATOM      7  C   LIG    1       18.816  33.751  56.537  0.00  0.00    +0.000 A 
ATOM      8  C   LIG    1       18.008  34.801  56.844  0.00  0.00    +0.017 A 
ATOM      9  C   LIG    1       18.615  36.029  57.181  0.00  0.00    +0.001 A 
ATOM     10  C   LIG    1       17.846  37.155  57.509  0.00  0.00    +0.010 A 
ATOM     11  C   LIG    1       18.468  38.325  57.827  0.00  0.00    +0.001 A 
ATOM     12  C   LIG    1       19.858  38.419  57.831  0.00  0.00    +0.002 A 
ATOM     13  C   LIG    1       20.634  37.346  57.518  0.00  0.00    +0.028 A 
ATOM     14  C   LIG    1       20.030  36.119  57.184  0.00  0.00    +0.072 A 
ATOM     15  N   LIG    1       20.770  35.055  56.873  0.00  0.00    -0.245 NA
ATOM     16  C   LIG    1       20.147  30.420  55.577  0.00  0.00    +0.259 A 
ATOM     17  O   LIG    1       19.254  29.618  55.355  0.00  0.00    -0.267 OA
ATOM     18  C   LIG    1       20.214  33.896  56.556  0.00  0.00    +0.093 A 
ATOM     19  C   LIG    1       21.493  30.017  55.454  0.00  0.00    +0.061 A 
ATOM     20  C   LIG    1       21.783  28.585  55.088  0.00  0.00    +0.273 C 
ATOM     21  O   LIG    1       23.134  28.438  54.649  0.00  0.00    -0.457 OA
ATOM     22  C   LIG    1       24.056  29.058  55.421  0.00  0.00    +0.344 C 
ATOM     23  O   LIG    1       24.930  28.443  55.982  0.00  0.00    -0.247 OA
ENDROOT
BRANCH   1  25
ATOM     24  C   LIG    1       25.749  32.048  54.678  0.00  0.00    +0.007 C 
ATOM     25  C   LIG    1       24.516  31.226  54.295  0.00  0.00    +0.048 C 
ENDBRANCH   1  25
BRANCH   1  26
ATOM     26  O   LIG    1       24.654  31.004  56.699  0.00  0.00    -0.373 OA
ATOM     27  H   LIG    1       24.494  30.469  57.490  0.00  0.00    +0.211 HD
ENDBRANCH   1  26
TORSDOF 2
