REMARK VINA RESULT:      -6.2      1.666      2.232
REMARK  Name = ZINC00001087
REMARK                            x       y       z     vdW  Elec       q    Type
REMARK                         _______ _______ _______ _____ _____    ______ ____
ROOT
ATOM      1  C   LIG    1       24.486  30.944  55.971  0.00  0.00    +0.188 C 
ATOM      2  C   LIG    1       23.233  31.781  56.000  0.00  0.00    +0.008 A 
ATOM      3  C   LIG    1       23.247  32.995  56.700  0.00  0.00    +0.035 A 
ATOM      4  C   LIG    1       22.119  33.786  56.739  0.00  0.00    +0.071 A 
ATOM      5  N   LIG    1       20.987  33.387  56.087  0.00  0.00    -0.302 N 
ATOM      6  C   LIG    1       19.947  34.405  56.286  0.00  0.00    +0.162 C 
ATOM      7  C   LIG    1       20.563  35.486  57.138  0.00  0.00    +0.000 A 
ATOM      8  C   LIG    1       20.081  36.658  57.631  0.00  0.00    +0.017 A 
ATOM      9  C   LIG    1       20.945  37.455  58.411  0.00  0.00    +0.001 A 
ATOM     10  C   LIG    1       20.517  38.676  58.953  0.00  0.00    +0.010 A 
ATOM     11  C   LIG    1       21.380  39.420  59.700  0.00  0.00    +0.001 A 
ATOM     12  C   LIG    1       22.683  38.984  59.934  0.00  0.00    +0.002 A 
ATOM     13  C   LIG    1       23.130  37.805  59.424  0.00  0.00    +0.028 A 
ATOM     14  C   LIG    1       22.269  37.007  58.647  0.00  0.00    +0.072 A 
ATOM     15  N   LIG    1       22.685  35.848  58.136  0.00  0.00    -0.245 NA
ATOM     16  C   LIG    1       20.961  32.224  55.409  0.00  0.00    +0.259 A 
ATOM     17  O   LIG    1       19.942  31.889  54.825  0.00  0.00    -0.267 OA
ATOM     18  C   LIG    1       21.886  35.091  57.402  0.00  0.00    +0.093 A 
ATOM     19  C   LIG    1       22.096  31.389  55.364  0.00  0.00    +0.061 A 
ATOM     20  C   LIG    1       21.998  30.081  54.625  0.00  0.00    +0.273 C 
ATOM     21  O   LIG    1       23.297  29.548  54.362  0.00  0.00    -0.457 OA
ATOM     22  C   LIG    1       24.149  29.580  55.411  0.00  0.00    +0.344 C 
ATOM     23  O   LIG    1       24.619  28.570  55.878  0.00  0.00    -0.247 OA
ENDROOT
BRANCH   1  25
ATOM     24  C   LIG    1       26.678  32.145  55.950  0.00  0.00    +0.007 C 
ATOM     25  C   LIG    1       25.533  31.618  55.082  0.00  0.00    +0.048 C 
ENDBRANCH   1  25
BRANCH   1  26
ATOM     26  O   LIG    1       25.002  30.803  57.296  0.00  0.00    -0.373 OA
ATOM     27  H   LIG    1       25.391  31.614  57.654  0.00  0.00    +0.211 HD
ENDBRANCH   1  26
TORSDOF 2
