REMARK VINA RESULT:      -6.4      3.420      5.907
REMARK  Name = ZINC00001087
REMARK                            x       y       z     vdW  Elec       q    Type
REMARK                         _______ _______ _______ _____ _____    ______ ____
ROOT
ATOM      1  C   LIG    1       22.256  30.115  54.874  0.00  0.00    +0.188 C 
ATOM      2  C   LIG    1       21.082  30.746  55.580  0.00  0.00    +0.008 A 
ATOM      3  C   LIG    1       19.835  30.110  55.518  0.00  0.00    +0.035 A 
ATOM      4  C   LIG    1       18.745  30.658  56.159  0.00  0.00    +0.071 A 
ATOM      5  N   LIG    1       18.884  31.821  56.862  0.00  0.00    -0.302 N 
ATOM      6  C   LIG    1       17.582  32.178  57.442  0.00  0.00    +0.162 C 
ATOM      7  C   LIG    1       16.615  31.101  57.019  0.00  0.00    +0.000 A 
ATOM      8  C   LIG    1       15.291  30.907  57.256  0.00  0.00    +0.017 A 
ATOM      9  C   LIG    1       14.676  29.767  56.697  0.00  0.00    +0.001 A 
ATOM     10  C   LIG    1       13.314  29.502  56.899  0.00  0.00    +0.010 A 
ATOM     11  C   LIG    1       12.755  28.390  56.345  0.00  0.00    +0.001 A 
ATOM     12  C   LIG    1       13.519  27.511  55.580  0.00  0.00    +0.002 A 
ATOM     13  C   LIG    1       14.843  27.738  55.363  0.00  0.00    +0.028 A 
ATOM     14  C   LIG    1       15.457  28.877  55.918  0.00  0.00    +0.072 A 
ATOM     15  N   LIG    1       16.753  29.120  55.721  0.00  0.00    -0.245 NA
ATOM     16  C   LIG    1       20.078  32.440  56.932  0.00  0.00    +0.259 A 
ATOM     17  O   LIG    1       20.184  33.474  57.573  0.00  0.00    -0.267 OA
ATOM     18  C   LIG    1       17.343  30.185  56.239  0.00  0.00    +0.093 A 
ATOM     19  C   LIG    1       21.206  31.909  56.274  0.00  0.00    +0.061 A 
ATOM     20  C   LIG    1       22.506  32.665  56.353  0.00  0.00    +0.273 C 
ATOM     21  O   LIG    1       23.601  31.833  55.967  0.00  0.00    -0.457 OA
ATOM     22  C   LIG    1       23.397  31.107  54.844  0.00  0.00    +0.344 C 
ATOM     23  O   LIG    1       24.093  31.243  53.866  0.00  0.00    -0.247 OA
ENDROOT
BRANCH   1  25
ATOM     24  C   LIG    1       23.606  28.017  54.733  0.00  0.00    +0.007 C 
ATOM     25  C   LIG    1       22.691  28.856  55.627  0.00  0.00    +0.048 C 
ENDBRANCH   1  25
BRANCH   1  26
ATOM     26  O   LIG    1       21.885  29.771  53.538  0.00  0.00    -0.373 OA
ATOM     27  H   LIG    1       21.833  28.818  53.378  0.00  0.00    +0.211 HD
ENDBRANCH   1  26
TORSDOF 2
