REMARK VINA RESULT:      -6.4      2.612      6.590
REMARK  Name = ZINC00001087
REMARK                            x       y       z     vdW  Elec       q    Type
REMARK                         _______ _______ _______ _____ _____    ______ ____
ROOT
ATOM      1  C   LIG    1       18.698  32.082  56.624  0.00  0.00    +0.188 C 
ATOM      2  C   LIG    1       19.897  31.196  56.396  0.00  0.00    +0.008 A 
ATOM      3  C   LIG    1       21.164  31.787  56.296  0.00  0.00    +0.035 A 
ATOM      4  C   LIG    1       22.280  31.004  56.095  0.00  0.00    +0.071 A 
ATOM      5  N   LIG    1       22.150  29.647  56.000  0.00  0.00    -0.302 N 
ATOM      6  C   LIG    1       23.481  29.061  55.792  0.00  0.00    +0.162 C 
ATOM      7  C   LIG    1       24.456  30.210  55.769  0.00  0.00    +0.000 A 
ATOM      8  C   LIG    1       25.805  30.271  55.613  0.00  0.00    +0.017 A 
ATOM      9  C   LIG    1       26.421  31.540  55.643  0.00  0.00    +0.001 A 
ATOM     10  C   LIG    1       27.808  31.680  55.490  0.00  0.00    +0.010 A 
ATOM     11  C   LIG    1       28.368  32.921  55.526  0.00  0.00    +0.001 A 
ATOM     12  C   LIG    1       27.580  34.055  55.714  0.00  0.00    +0.002 A 
ATOM     13  C   LIG    1       26.232  33.956  55.866  0.00  0.00    +0.028 A 
ATOM     14  C   LIG    1       25.616  32.691  55.834  0.00  0.00    +0.072 A 
ATOM     15  N   LIG    1       24.296  32.568  55.981  0.00  0.00    -0.245 NA
ATOM     16  C   LIG    1       20.938  29.067  56.098  0.00  0.00    +0.259 A 
ATOM     17  O   LIG    1       20.843  27.853  56.019  0.00  0.00    -0.267 OA
ATOM     18  C   LIG    1       23.706  31.384  55.955  0.00  0.00    +0.093 A 
ATOM     19  C   LIG    1       19.779  29.846  56.289  0.00  0.00    +0.061 A 
ATOM     20  C   LIG    1       18.446  29.148  56.351  0.00  0.00    +0.273 C 
ATOM     21  O   LIG    1       17.449  30.006  56.906  0.00  0.00    -0.457 OA
ATOM     22  C   LIG    1       17.443  31.266  56.416  0.00  0.00    +0.344 C 
ATOM     23  O   LIG    1       16.482  31.718  55.840  0.00  0.00    -0.247 OA
ENDROOT
BRANCH   1  25
ATOM     24  C   LIG    1       18.795  34.153  58.021  0.00  0.00    +0.007 C 
ATOM     25  C   LIG    1       18.726  32.624  58.055  0.00  0.00    +0.048 C 
ENDBRANCH   1  25
BRANCH   1  26
ATOM     26  O   LIG    1       18.721  33.171  55.699  0.00  0.00    -0.373 OA
ATOM     27  H   LIG    1       19.383  33.847  55.904  0.00  0.00    +0.211 HD
ENDBRANCH   1  26
TORSDOF 2
