REMARK VINA RESULT:      -5.6      2.497      3.067
REMARK  Name = ZINC00000310
REMARK                            x       y       z     vdW  Elec       q    Type
REMARK                         _______ _______ _______ _____ _____    ______ ____
ROOT
ATOM      1  C   LIG    1       23.029  28.560  62.307  0.00  0.00    -0.096 C 
ATOM      2  N   LIG    1       22.787  29.594  61.279  0.00  0.00    +0.378 N 
ATOM      3  H   LIG    1       23.392  30.401  61.470  0.00  0.00    -0.082 HD
ATOM      4  C   LIG    1       23.111  29.060  59.939  0.00  0.00    -0.065 C 
ATOM      5  C   LIG    1       22.968  30.182  58.909  0.00  0.00    +0.080 C 
ATOM      6  C   LIG    1       21.526  30.699  58.923  0.00  0.00    +0.097 C 
ATOM      7  C   LIG    1       21.180  31.182  60.335  0.00  0.00    +0.022 C 
ATOM      8  C   LIG    1       21.375  30.030  61.324  0.00  0.00    -0.076 C 
ENDROOT
BRANCH   6   9
ATOM      9  C   LIG    1       21.393  31.845  57.954  0.00  0.00    -0.015 A 
ATOM     10  C   LIG    1       20.619  31.702  56.817  0.00  0.00    +0.009 A 
ATOM     11  C   LIG    1       20.492  32.754  55.929  0.00  0.00    +0.039 A 
ATOM     12  C   LIG    1       21.146  33.949  56.175  0.00  0.00    +0.123 A 
ATOM     13  F   LIG    1       21.026  34.976  55.307  0.00  0.00    -0.205 F 
ATOM     14  C   LIG    1       21.924  34.090  57.313  0.00  0.00    +0.039 A 
ATOM     15  C   LIG    1       22.046  33.038  58.200  0.00  0.00    +0.009 A 
ENDBRANCH   6   9
BRANCH   5  16
ATOM     16  C   LIG    1       23.298  29.651  57.537  0.00  0.00    +0.167 C 
ATOM     17  O   LIG    1       22.891  28.561  57.195  0.00  0.00    -0.292 OA
BRANCH  16  18
ATOM     18  C   LIG    1       24.111  30.456  56.615  0.00  0.00    +0.018 A 
ATOM     19  C   LIG    1       23.817  30.470  55.247  0.00  0.00    +0.014 A 
ATOM     20  C   LIG    1       24.579  31.232  54.389  0.00  0.00    +0.039 A 
ATOM     21  C   LIG    1       25.643  31.976  54.877  0.00  0.00    +0.123 A 
ATOM     22  F   LIG    1       26.391  32.717  54.030  0.00  0.00    -0.205 F 
ATOM     23  C   LIG    1       25.944  31.962  56.232  0.00  0.00    +0.039 A 
ATOM     24  C   LIG    1       25.186  31.209  57.101  0.00  0.00    +0.014 A 
ENDBRANCH  16  18
ENDBRANCH   5  16
BRANCH   6  25
ATOM     25  O   LIG    1       20.636  29.647  58.546  0.00  0.00    -0.383 OA
ATOM     26  H   LIG    1       20.328  29.700  57.631  0.00  0.00    +0.211 HD
ENDBRANCH   6  25
TORSDOF 4
