REMARK VINA RESULT:      -5.8      2.061      4.954
REMARK  Name = ZINC00000310
REMARK                            x       y       z     vdW  Elec       q    Type
REMARK                         _______ _______ _______ _____ _____    ______ ____
ROOT
ATOM      1  C   LIG    1       17.625  28.217  55.489  0.00  0.00    -0.096 C 
ATOM      2  N   LIG    1       18.947  28.874  55.438  0.00  0.00    +0.378 N 
ATOM      3  H   LIG    1       19.012  29.425  54.573  0.00  0.00    -0.082 HD
ATOM      4  C   LIG    1       19.106  29.781  56.594  0.00  0.00    -0.065 C 
ATOM      5  C   LIG    1       20.429  30.537  56.454  0.00  0.00    +0.080 C 
ATOM      6  C   LIG    1       21.585  29.533  56.424  0.00  0.00    +0.097 C 
ATOM      7  C   LIG    1       21.368  28.554  55.265  0.00  0.00    +0.022 C 
ATOM      8  C   LIG    1       20.018  27.855  55.440  0.00  0.00    -0.076 C 
ENDROOT
BRANCH   6   9
ATOM      9  C   LIG    1       22.886  30.266  56.226  0.00  0.00    -0.015 A 
ATOM     10  C   LIG    1       23.193  30.807  54.991  0.00  0.00    +0.009 A 
ATOM     11  C   LIG    1       24.384  31.484  54.809  0.00  0.00    +0.039 A 
ATOM     12  C   LIG    1       25.273  31.614  55.862  0.00  0.00    +0.123 A 
ATOM     13  F   LIG    1       26.439  32.272  55.685  0.00  0.00    -0.205 F 
ATOM     14  C   LIG    1       24.966  31.069  57.097  0.00  0.00    +0.039 A 
ATOM     15  C   LIG    1       23.773  30.395  57.277  0.00  0.00    +0.009 A 
ENDBRANCH   6   9
BRANCH   5  16
ATOM     16  C   LIG    1       20.603  31.468  57.627  0.00  0.00    +0.167 C 
ATOM     17  O   LIG    1       20.419  31.064  58.755  0.00  0.00    -0.292 OA
BRANCH  16  18
ATOM     18  C   LIG    1       20.998  32.866  57.402  0.00  0.00    +0.018 A 
ATOM     19  C   LIG    1       21.586  33.606  58.434  0.00  0.00    +0.014 A 
ATOM     20  C   LIG    1       21.960  34.913  58.214  0.00  0.00    +0.039 A 
ATOM     21  C   LIG    1       21.744  35.501  56.976  0.00  0.00    +0.123 A 
ATOM     22  F   LIG    1       22.107  36.785  56.769  0.00  0.00    -0.205 F 
ATOM     23  C   LIG    1       21.155  34.775  55.950  0.00  0.00    +0.039 A 
ATOM     24  C   LIG    1       20.782  33.465  56.156  0.00  0.00    +0.014 A 
ENDBRANCH  16  18
ENDBRANCH   5  16
BRANCH   6  25
ATOM     25  O   LIG    1       21.624  28.812  57.657  0.00  0.00    -0.383 OA
ATOM     26  H   LIG    1       20.943  29.076  58.290  0.00  0.00    +0.211 HD
ENDBRANCH   6  25
TORSDOF 4
