REMARK VINA RESULT:      -5.6      3.097      6.026
REMARK  Name = ZINC00000310
REMARK                            x       y       z     vdW  Elec       q    Type
REMARK                         _______ _______ _______ _____ _____    ______ ____
ROOT
ATOM      1  C   LIG    1       25.565  31.115  55.874  0.00  0.00    -0.096 C 
ATOM      2  N   LIG    1       24.166  30.756  56.184  0.00  0.00    +0.378 N 
ATOM      3  H   LIG    1       23.983  30.955  57.174  0.00  0.00    -0.082 HD
ATOM      4  C   LIG    1       23.242  31.561  55.356  0.00  0.00    -0.065 C 
ATOM      5  C   LIG    1       21.804  31.258  55.779  0.00  0.00    +0.080 C 
ATOM      6  C   LIG    1       21.518  29.767  55.570  0.00  0.00    +0.097 C 
ATOM      7  C   LIG    1       22.529  28.945  56.376  0.00  0.00    +0.022 C 
ATOM      8  C   LIG    1       23.947  29.315  55.935  0.00  0.00    -0.076 C 
ENDROOT
BRANCH   6   9
ATOM      9  C   LIG    1       20.123  29.450  56.042  0.00  0.00    -0.015 A 
ATOM     10  C   LIG    1       19.727  29.808  57.317  0.00  0.00    +0.009 A 
ATOM     11  C   LIG    1       18.445  29.522  57.749  0.00  0.00    +0.039 A 
ATOM     12  C   LIG    1       17.561  28.869  56.906  0.00  0.00    +0.123 A 
ATOM     13  F   LIG    1       16.310  28.585  57.328  0.00  0.00    -0.205 F 
ATOM     14  C   LIG    1       17.961  28.508  55.630  0.00  0.00    +0.039 A 
ATOM     15  C   LIG    1       19.241  28.799  55.200  0.00  0.00    +0.009 A 
ENDBRANCH   6   9
BRANCH   5  16
ATOM     16  C   LIG    1       20.851  32.074  54.944  0.00  0.00    +0.167 C 
ATOM     17  O   LIG    1       20.816  31.923  53.741  0.00  0.00    -0.292 OA
BRANCH  16  18
ATOM     18  C   LIG    1       19.962  33.052  55.589  0.00  0.00    +0.018 A 
ATOM     19  C   LIG    1       20.498  34.179  56.222  0.00  0.00    +0.014 A 
ATOM     20  C   LIG    1       19.659  35.094  56.818  0.00  0.00    +0.039 A 
ATOM     21  C   LIG    1       18.286  34.895  56.802  0.00  0.00    +0.123 A 
ATOM     22  F   LIG    1       17.469  35.794  57.393  0.00  0.00    -0.205 F 
ATOM     23  C   LIG    1       17.749  33.777  56.180  0.00  0.00    +0.039 A 
ATOM     24  C   LIG    1       18.577  32.857  55.575  0.00  0.00    +0.014 A 
ENDBRANCH  16  18
ENDBRANCH   5  16
BRANCH   6  25
ATOM     25  O   LIG    1       21.640  29.447  54.183  0.00  0.00    -0.383 OA
ATOM     26  H   LIG    1       20.796  29.413  53.711  0.00  0.00    +0.211 HD
ENDBRANCH   6  25
TORSDOF 4
