REMARK VINA RESULT:      -6.2      0.000      0.000
REMARK  Name = ZINC00000310
REMARK                            x       y       z     vdW  Elec       q    Type
REMARK                         _______ _______ _______ _____ _____    ______ ____
ROOT
ATOM      1  C   LIG    1       22.708  26.863  57.100  0.00  0.00    -0.096 C 
ATOM      2  N   LIG    1       22.568  28.333  57.155  0.00  0.00    +0.378 N 
ATOM      3  H   LIG    1       23.011  28.677  58.014  0.00  0.00    -0.082 HD
ATOM      4  C   LIG    1       23.240  28.948  55.991  0.00  0.00    -0.065 C 
ATOM      5  C   LIG    1       23.185  30.470  56.133  0.00  0.00    +0.080 C 
ATOM      6  C   LIG    1       21.722  30.921  56.181  0.00  0.00    +0.097 C 
ATOM      7  C   LIG    1       21.019  30.219  57.347  0.00  0.00    +0.022 C 
ATOM      8  C   LIG    1       21.137  28.703  57.169  0.00  0.00    -0.076 C 
ENDROOT
BRANCH   6   9
ATOM      9  C   LIG    1       21.660  32.413  56.382  0.00  0.00    -0.015 A 
ATOM     10  C   LIG    1       22.337  32.997  57.437  0.00  0.00    +0.009 A 
ATOM     11  C   LIG    1       22.285  34.366  57.619  0.00  0.00    +0.039 A 
ATOM     12  C   LIG    1       21.548  35.152  56.749  0.00  0.00    +0.123 A 
ATOM     13  F   LIG    1       21.493  36.489  56.929  0.00  0.00    -0.205 F 
ATOM     14  C   LIG    1       20.868  34.565  55.695  0.00  0.00    +0.039 A 
ATOM     15  C   LIG    1       20.924  33.197  55.513  0.00  0.00    +0.009 A 
ENDBRANCH   6   9
BRANCH   5  16
ATOM     16  C   LIG    1       23.870  31.111  54.953  0.00  0.00    +0.167 C 
ATOM     17  O   LIG    1       23.330  31.117  53.868  0.00  0.00    -0.292 OA
BRANCH  16  18
ATOM     18  C   LIG    1       25.193  31.730  55.119  0.00  0.00    +0.018 A 
ATOM     19  C   LIG    1       25.997  31.981  54.003  0.00  0.00    +0.014 A 
ATOM     20  C   LIG    1       27.234  32.568  54.166  0.00  0.00    +0.039 A 
ATOM     21  C   LIG    1       27.685  32.899  55.434  0.00  0.00    +0.123 A 
ATOM     22  F   LIG    1       28.900  33.469  55.588  0.00  0.00    -0.205 F 
ATOM     23  C   LIG    1       26.895  32.648  56.547  0.00  0.00    +0.039 A 
ATOM     24  C   LIG    1       25.655  32.067  56.397  0.00  0.00    +0.014 A 
ENDBRANCH  16  18
ENDBRANCH   5  16
BRANCH   6  25
ATOM     25  O   LIG    1       21.075  30.575  54.955  0.00  0.00    -0.383 OA
ATOM     26  H   LIG    1       20.235  30.111  55.070  0.00  0.00    +0.211 HD
ENDBRANCH   6  25
TORSDOF 4
