REMARK VINA RESULT:      -5.7      1.514      2.236
REMARK  Name = ZINC00000310
REMARK                            x       y       z     vdW  Elec       q    Type
REMARK                         _______ _______ _______ _____ _____    ______ ____
ROOT
ATOM      1  C   LIG    1       20.171  25.756  57.576  0.00  0.00    -0.096 C 
ATOM      2  N   LIG    1       20.373  27.218  57.502  0.00  0.00    +0.378 N 
ATOM      3  H   LIG    1       20.785  27.542  58.384  0.00  0.00    -0.082 HD
ATOM      4  C   LIG    1       21.296  27.544  56.394  0.00  0.00    -0.065 C 
ATOM      5  C   LIG    1       21.582  29.047  56.413  0.00  0.00    +0.080 C 
ATOM      6  C   LIG    1       20.268  29.814  56.233  0.00  0.00    +0.097 C 
ATOM      7  C   LIG    1       19.295  29.410  57.345  0.00  0.00    +0.022 C 
ATOM      8  C   LIG    1       19.075  27.896  57.298  0.00  0.00    -0.076 C 
ENDROOT
BRANCH   6   9
ATOM      9  C   LIG    1       20.534  31.295  56.311  0.00  0.00    -0.015 A 
ATOM     10  C   LIG    1       20.977  31.856  57.494  0.00  0.00    +0.009 A 
ATOM     11  C   LIG    1       21.226  33.214  57.566  0.00  0.00    +0.039 A 
ATOM     12  C   LIG    1       21.023  34.014  56.454  0.00  0.00    +0.123 A 
ATOM     13  F   LIG    1       21.262  35.341  56.524  0.00  0.00    -0.205 F 
ATOM     14  C   LIG    1       20.575  33.451  55.270  0.00  0.00    +0.039 A 
ATOM     15  C   LIG    1       20.331  32.093  55.201  0.00  0.00    +0.009 A 
ENDBRANCH   6   9
BRANCH   5  16
ATOM     16  C   LIG    1       22.525  29.394  55.290  0.00  0.00    +0.167 C 
ATOM     17  O   LIG    1       22.347  28.931  54.183  0.00  0.00    -0.292 OA
BRANCH  16  18
ATOM     18  C   LIG    1       23.659  30.296  55.536  0.00  0.00    +0.018 A 
ATOM     19  C   LIG    1       24.217  30.392  56.815  0.00  0.00    +0.014 A 
ATOM     20  C   LIG    1       25.284  31.235  57.037  0.00  0.00    +0.039 A 
ATOM     21  C   LIG    1       25.799  31.995  55.998  0.00  0.00    +0.123 A 
ATOM     22  F   LIG    1       26.842  32.823  56.223  0.00  0.00    -0.205 F 
ATOM     23  C   LIG    1       25.248  31.908  54.727  0.00  0.00    +0.039 A 
ATOM     24  C   LIG    1       24.184  31.066  54.491  0.00  0.00    +0.014 A 
ENDBRANCH  16  18
ENDBRANCH   5  16
BRANCH   6  25
ATOM     25  O   LIG    1       19.699  29.496  54.961  0.00  0.00    -0.383 OA
ATOM     26  H   LIG    1       20.116  28.743  54.520  0.00  0.00    +0.211 HD
ENDBRANCH   6  25
TORSDOF 4
