MODEL 1
REMARK VINA RESULT:      -5.4      0.000      0.000
REMARK  Name = ZINC00000857
REMARK                            x       y       z     vdW  Elec       q    Type
REMARK                         _______ _______ _______ _____ _____    ______ ____
ROOT
ATOM      1  C   LIG    1       23.535  30.308  55.371  0.00  0.00    -0.036 C 
ATOM      2  N   LIG    1       23.574  28.906  54.931  0.00  0.00    +0.384 N 
ATOM      3  H   LIG    1       23.190  28.837  53.982  0.00  0.00    -0.085 HD
ATOM      4  H   LIG    1       24.547  28.577  54.932  0.00  0.00    -0.085 HD
ATOM      5  C   LIG    1       22.774  28.070  55.847  0.00  0.00    -0.077 C 
ATOM      6  C   LIG    1       21.294  28.383  55.621  0.00  0.00    +0.016 C 
ATOM      7  C   LIG    1       21.069  29.872  55.673  0.00  0.00    -0.044 A 
ATOM      8  C   LIG    1       19.773  30.336  55.846  0.00  0.00    +0.053 A 
ATOM      9  C   LIG    1       19.519  31.695  55.899  0.00  0.00    +0.158 A 
ATOM     10  C   LIG    1       20.569  32.599  55.769  0.00  0.00    +0.158 A 
ATOM     11  C   LIG    1       21.859  32.130  55.600  0.00  0.00    +0.051 A 
ATOM     12  C   LIG    1       22.111  30.766  55.552  0.00  0.00    -0.054 A 
ENDROOT
BRANCH   9  13
ATOM     13  O   LIG    1       18.247  32.146  56.073  0.00  0.00    -0.503 OA
ATOM     14  H   LIG    1       18.189  33.089  56.278  0.00  0.00    +0.292 HD
ENDBRANCH   9  13
BRANCH  10  15
ATOM     15  O   LIG    1       20.328  33.937  55.814  0.00  0.00    -0.503 OA
ATOM     16  H   LIG    1       20.031  34.311  54.973  0.00  0.00    +0.292 HD
ENDBRANCH  10  15
BRANCH   1  17
ATOM     17  C   LIG    1       24.216  31.183  54.318  0.00  0.00    +0.024 C 
BRANCH  17  23
ATOM     18  C   LIG    1       25.625  31.866  56.270  0.00  0.00    +0.007 A 
ATOM     19  C   LIG    1       26.775  32.413  56.805  0.00  0.00    +0.045 A 
ATOM     20  C   LIG    1       27.769  32.892  55.964  0.00  0.00    +0.117 A 
ATOM     21  C   LIG    1       27.608  32.815  54.589  0.00  0.00    +0.045 A 
ATOM     22  C   LIG    1       26.458  32.263  54.058  0.00  0.00    +0.007 A 
ATOM     23  C   LIG    1       25.469  31.786  54.898  0.00  0.00    -0.048 A 
BRANCH  20  24
ATOM     24  O   LIG    1       28.899  33.436  56.488  0.00  0.00    -0.507 OA
ATOM     25  H   LIG    1       29.060  33.197  57.412  0.00  0.00    +0.292 HD
ENDBRANCH  20  24
ENDBRANCH  17  23
ENDBRANCH   1  17
TORSDOF 5
ENDMDL
MODEL 2
REMARK VINA RESULT:      -5.4      2.283      6.759
REMARK  Name = ZINC00000857
REMARK                            x       y       z     vdW  Elec       q    Type
REMARK                         _______ _______ _______ _____ _____    ______ ____
ROOT
ATOM      1  C   LIG    1       21.975  28.644  55.779  0.00  0.00    -0.036 C 
ATOM      2  N   LIG    1       22.764  27.421  55.982  0.00  0.00    +0.384 N 
ATOM      3  H   LIG    1       23.121  27.403  56.944  0.00  0.00    -0.085 HD
ATOM      4  H   LIG    1       22.167  26.601  55.822  0.00  0.00    -0.085 HD
ATOM      5  C   LIG    1       23.898  27.393  55.039  0.00  0.00    -0.077 C 
ATOM      6  C   LIG    1       24.917  28.448  55.472  0.00  0.00    +0.016 C 
ATOM      7  C   LIG    1       24.229  29.772  55.684  0.00  0.00    -0.044 A 
ATOM      8  C   LIG    1       25.008  30.919  55.731  0.00  0.00    +0.053 A 
ATOM      9  C   LIG    1       24.420  32.156  55.924  0.00  0.00    +0.158 A 
ATOM     10  C   LIG    1       23.040  32.247  56.080  0.00  0.00    +0.158 A 
ATOM     11  C   LIG    1       22.268  31.100  56.029  0.00  0.00    +0.051 A 
ATOM     12  C   LIG    1       22.861  29.861  55.831  0.00  0.00    -0.054 A 
ENDROOT
BRANCH   9  13
ATOM     13  O   LIG    1       25.187  33.278  55.965  0.00  0.00    -0.503 OA
ATOM     14  H   LIG    1       25.138  33.818  55.164  0.00  0.00    +0.292 HD
ENDBRANCH   9  13
BRANCH  10  15
ATOM     15  O   LIG    1       22.453  33.458  56.276  0.00  0.00    -0.503 OA
ATOM     16  H   LIG    1       22.399  33.723  57.205  0.00  0.00    +0.292 HD
ENDBRANCH  10  15
BRANCH   1  17
ATOM     17  C   LIG    1       20.915  28.744  56.877  0.00  0.00    +0.024 C 
BRANCH  17  23
ATOM     18  C   LIG    1       19.227  27.627  55.405  0.00  0.00    +0.007 A 
ATOM     19  C   LIG    1       17.968  27.550  54.843  0.00  0.00    +0.045 A 
ATOM     20  C   LIG    1       17.021  28.524  55.130  0.00  0.00    +0.117 A 
ATOM     21  C   LIG    1       17.342  29.569  55.984  0.00  0.00    +0.045 A 
ATOM     22  C   LIG    1       18.601  29.639  56.548  0.00  0.00    +0.007 A 
ATOM     23  C   LIG    1       19.542  28.667  56.260  0.00  0.00    -0.048 A 
BRANCH  20  24
ATOM     24  O   LIG    1       15.783  28.454  54.575  0.00  0.00    -0.507 OA
ATOM     25  H   LIG    1       15.697  28.937  53.741  0.00  0.00    +0.292 HD
ENDBRANCH  20  24
ENDBRANCH  17  23
ENDBRANCH   1  17
TORSDOF 5
ENDMDL
MODEL 3
REMARK VINA RESULT:      -5.4      2.888      3.227
REMARK  Name = ZINC00000857
REMARK                            x       y       z     vdW  Elec       q    Type
REMARK                         _______ _______ _______ _____ _____    ______ ____
ROOT
ATOM      1  C   LIG    1       23.690  30.800  55.760  0.00  0.00    -0.036 C 
ATOM      2  N   LIG    1       22.731  30.672  54.654  0.00  0.00    +0.384 N 
ATOM      3  H   LIG    1       21.899  31.239  54.858  0.00  0.00    -0.085 HD
ATOM      4  H   LIG    1       23.167  31.005  53.786  0.00  0.00    -0.085 HD
ATOM      5  C   LIG    1       22.335  29.260  54.493  0.00  0.00    -0.077 C 
ATOM      6  C   LIG    1       21.443  28.869  55.672  0.00  0.00    +0.016 C 
ATOM      7  C   LIG    1       22.104  29.256  56.970  0.00  0.00    -0.044 A 
ATOM      8  C   LIG    1       21.638  28.682  58.144  0.00  0.00    +0.053 A 
ATOM      9  C   LIG    1       22.215  29.008  59.358  0.00  0.00    +0.158 A 
ATOM     10  C   LIG    1       23.262  29.924  59.400  0.00  0.00    +0.158 A 
ATOM     11  C   LIG    1       23.724  30.491  58.227  0.00  0.00    +0.051 A 
ATOM     12  C   LIG    1       23.146  30.157  57.010  0.00  0.00    -0.054 A 
ENDROOT
BRANCH   9  13
ATOM     13  O   LIG    1       21.758  28.439  60.506  0.00  0.00    -0.503 OA
ATOM     14  H   LIG    1       21.994  28.927  61.307  0.00  0.00    +0.292 HD
ENDBRANCH   9  13
BRANCH  10  15
ATOM     15  O   LIG    1       23.832  30.256  60.590  0.00  0.00    -0.503 OA
ATOM     16  H   LIG    1       24.449  29.593  60.929  0.00  0.00    +0.292 HD
ENDBRANCH  10  15
BRANCH   1  17
ATOM     17  C   LIG    1       23.952  32.283  56.028  0.00  0.00    +0.024 C 
BRANCH  17  23
ATOM     18  C   LIG    1       25.877  33.879  55.944  0.00  0.00    +0.007 A 
ATOM     19  C   LIG    1       27.219  34.154  55.767  0.00  0.00    +0.045 A 
ATOM     20  C   LIG    1       28.102  33.128  55.461  0.00  0.00    +0.117 A 
ATOM     21  C   LIG    1       27.634  31.828  55.339  0.00  0.00    +0.045 A 
ATOM     22  C   LIG    1       26.292  31.557  55.522  0.00  0.00    +0.007 A 
ATOM     23  C   LIG    1       25.415  32.581  55.827  0.00  0.00    -0.048 A 
BRANCH  20  24
ATOM     24  O   LIG    1       29.421  33.397  55.281  0.00  0.00    -0.507 OA
ATOM     25  H   LIG    1       29.859  33.764  56.061  0.00  0.00    +0.292 HD
ENDBRANCH  20  24
ENDBRANCH  17  23
ENDBRANCH   1  17
TORSDOF 5
ENDMDL
MODEL 4
REMARK VINA RESULT:      -5.2      2.409      3.293
REMARK  Name = ZINC00000857
REMARK                            x       y       z     vdW  Elec       q    Type
REMARK                         _______ _______ _______ _____ _____    ______ ____
ROOT
ATOM      1  C   LIG    1       22.879  32.056  55.750  0.00  0.00    -0.036 C 
ATOM      2  N   LIG    1       22.032  33.199  56.119  0.00  0.00    +0.384 N 
ATOM      3  H   LIG    1       21.705  33.082  57.085  0.00  0.00    -0.085 HD
ATOM      4  H   LIG    1       22.578  34.065  56.044  0.00  0.00    -0.085 HD
ATOM      5  C   LIG    1       20.870  33.274  55.214  0.00  0.00    -0.077 C 
ATOM      6  C   LIG    1       19.923  32.119  55.542  0.00  0.00    +0.016 C 
ATOM      7  C   LIG    1       20.687  30.820  55.576  0.00  0.00    -0.044 A 
ATOM      8  C   LIG    1       19.973  29.633  55.503  0.00  0.00    +0.053 A 
ATOM      9  C   LIG    1       20.633  28.418  55.531  0.00  0.00    +0.158 A 
ATOM     10  C   LIG    1       22.020  28.388  55.641  0.00  0.00    +0.158 A 
ATOM     11  C   LIG    1       22.727  29.575  55.710  0.00  0.00    +0.051 A 
ATOM     12  C   LIG    1       22.061  30.793  55.677  0.00  0.00    -0.054 A 
ENDROOT
BRANCH   9  13
ATOM     13  O   LIG    1       19.929  27.256  55.456  0.00  0.00    -0.503 OA
ATOM     14  H   LIG    1       18.985  27.356  55.645  0.00  0.00    +0.292 HD
ENDBRANCH   9  13
BRANCH  10  15
ATOM     15  O   LIG    1       22.677  27.198  55.676  0.00  0.00    -0.503 OA
ATOM     16  H   LIG    1       22.491  26.623  54.921  0.00  0.00    +0.292 HD
ENDBRANCH  10  15
BRANCH   1  17
ATOM     17  C   LIG    1       23.977  31.887  56.802  0.00  0.00    +0.024 C 
BRANCH  17  23
ATOM     18  C   LIG    1       25.555  33.776  56.351  0.00  0.00    +0.007 A 
ATOM     19  C   LIG    1       26.749  34.271  55.864  0.00  0.00    +0.045 A 
ATOM     20  C   LIG    1       27.666  33.411  55.277  0.00  0.00    +0.117 A 
ATOM     21  C   LIG    1       27.383  32.056  55.186  0.00  0.00    +0.045 A 
ATOM     22  C   LIG    1       26.190  31.565  55.679  0.00  0.00    +0.007 A 
ATOM     23  C   LIG    1       25.277  32.424  56.263  0.00  0.00    -0.048 A 
BRANCH  20  24
ATOM     24  O   LIG    1       28.839  33.895  54.792  0.00  0.00    -0.507 OA
ATOM     25  H   LIG    1       29.267  33.317  54.145  0.00  0.00    +0.292 HD
ENDBRANCH  20  24
ENDBRANCH  17  23
ENDBRANCH   1  17
TORSDOF 5
ENDMDL
MODEL 5
REMARK VINA RESULT:      -5.2      3.927      5.322
REMARK  Name = ZINC00000857
REMARK                            x       y       z     vdW  Elec       q    Type
REMARK                         _______ _______ _______ _____ _____    ______ ____
ROOT
ATOM      1  C   LIG    1       22.019  32.711  56.706  0.00  0.00    -0.036 C 
ATOM      2  N   LIG    1       21.649  33.933  55.978  0.00  0.00    +0.384 N 
ATOM      3  H   LIG    1       22.319  34.678  56.202  0.00  0.00    -0.085 HD
ATOM      4  H   LIG    1       21.670  33.746  54.968  0.00  0.00    -0.085 HD
ATOM      5  C   LIG    1       20.292  34.359  56.369  0.00  0.00    -0.077 C 
ATOM      6  C   LIG    1       20.346  34.902  57.797  0.00  0.00    +0.016 C 
ATOM      7  C   LIG    1       21.045  33.915  58.697  0.00  0.00    -0.044 A 
ATOM      8  C   LIG    1       20.888  34.048  60.069  0.00  0.00    +0.053 A 
ATOM      9  C   LIG    1       21.510  33.164  60.932  0.00  0.00    +0.158 A 
ATOM     10  C   LIG    1       22.306  32.143  60.420  0.00  0.00    +0.158 A 
ATOM     11  C   LIG    1       22.456  32.014  59.051  0.00  0.00    +0.051 A 
ATOM     12  C   LIG    1       21.826  32.899  58.188  0.00  0.00    -0.054 A 
ENDROOT
BRANCH   9  13
ATOM     13  O   LIG    1       21.351  33.296  62.277  0.00  0.00    -0.503 OA
ATOM     14  H   LIG    1       20.820  32.595  62.680  0.00  0.00    +0.292 HD
ENDBRANCH   9  13
BRANCH  10  15
ATOM     15  O   LIG    1       22.927  31.274  61.261  0.00  0.00    -0.503 OA
ATOM     16  H   LIG    1       23.711  30.853  60.883  0.00  0.00    +0.292 HD
ENDBRANCH  10  15
BRANCH   1  17
ATOM     17  C   LIG    1       23.487  32.385  56.425  0.00  0.00    +0.024 C 
BRANCH  17  23
ATOM     18  C   LIG    1       22.870  30.741  54.642  0.00  0.00    +0.007 A 
ATOM     19  C   LIG    1       22.965  29.494  54.055  0.00  0.00    +0.045 A 
ATOM     20  C   LIG    1       23.774  28.521  54.624  0.00  0.00    +0.117 A 
ATOM     21  C   LIG    1       24.489  28.805  55.778  0.00  0.00    +0.045 A 
ATOM     22  C   LIG    1       24.394  30.055  56.359  0.00  0.00    +0.007 A 
ATOM     23  C   LIG    1       23.588  31.022  55.790  0.00  0.00    -0.048 A 
BRANCH  20  24
ATOM     24  O   LIG    1       23.866  27.292  54.051  0.00  0.00    -0.507 OA
ATOM     25  H   LIG    1       24.463  27.255  53.292  0.00  0.00    +0.292 HD
ENDBRANCH  20  24
ENDBRANCH  17  23
ENDBRANCH   1  17
TORSDOF 5
ENDMDL
