REMARK VINA RESULT:      -4.1      3.304      3.815
REMARK  Name = ZINC00000999
REMARK                            x       y       z     vdW  Elec       q    Type
REMARK                         _______ _______ _______ _____ _____    ______ ____
ROOT
ATOM      1  C   LIG    1       20.812  34.101  57.200  0.00  0.00    +0.155 C 
ATOM      2  N   LIG    1       21.652  32.977  57.622  0.00  0.00    -0.280 N 
ATOM      3  C   LIG    1       22.295  32.199  56.673  0.00  0.00    +0.168 A 
ATOM      4  C   LIG    1       23.086  31.140  57.099  0.00  0.00    +0.151 A 
ATOM      5  N   LIG    1       23.593  30.552  55.957  0.00  0.00    -0.323 N 
ATOM      6  C   LIG    1       23.109  31.248  54.909  0.00  0.00    +0.202 A 
ATOM      7  C   LIG    1       23.212  30.887  58.483  0.00  0.00    +0.282 A 
ATOM      8  N   LIG    1       22.561  31.682  59.358  0.00  0.00    -0.262 N 
ATOM      9  C   LIG    1       22.688  31.426  60.795  0.00  0.00    +0.157 C 
ATOM     10  O   LIG    1       23.901  29.965  58.881  0.00  0.00    -0.265 OA
ATOM     11  N   LIG    1       22.345  32.218  55.339  0.00  0.00    -0.218 NA
ATOM     12  C   LIG    1       21.803  32.707  58.933  0.00  0.00    +0.333 A 
ATOM     13  O   LIG    1       21.236  33.404  59.752  0.00  0.00    -0.246 OA
ENDROOT
BRANCH   5  14
ATOM     14  C   LIG    1       24.485  29.392  55.897  0.00  0.00    +0.139 C 
BRANCH  14  15
ATOM     15  C   LIG    1       23.684  28.153  55.492  0.00  0.00    +0.130 C 
ATOM     16 CL   LIG    1       24.814  26.864  54.931  0.00  0.00    -0.124 Cl
ENDBRANCH  14  15
ENDBRANCH   5  14
TORSDOF 2
