REMARK VINA RESULT:      -4.3      2.551      4.550
REMARK  Name = ZINC00000999
REMARK                            x       y       z     vdW  Elec       q    Type
REMARK                         _______ _______ _______ _____ _____    ______ ____
ROOT
ATOM      1  C   LIG    1       21.707  30.009  54.098  0.00  0.00    +0.155 C 
ATOM      2  N   LIG    1       22.547  30.194  55.283  0.00  0.00    -0.280 N 
ATOM      3  C   LIG    1       22.161  29.647  56.497  0.00  0.00    +0.168 A 
ATOM      4  C   LIG    1       22.975  29.836  57.606  0.00  0.00    +0.151 A 
ATOM      5  N   LIG    1       22.352  29.193  58.657  0.00  0.00    -0.323 N 
ATOM      6  C   LIG    1       21.218  28.652  58.170  0.00  0.00    +0.202 A 
ATOM      7  C   LIG    1       24.169  30.578  57.466  0.00  0.00    +0.282 A 
ATOM      8  N   LIG    1       24.491  31.084  56.258  0.00  0.00    -0.262 N 
ATOM      9  C   LIG    1       25.728  31.854  56.104  0.00  0.00    +0.157 C 
ATOM     10  O   LIG    1       24.899  30.756  58.424  0.00  0.00    -0.265 OA
ATOM     11  N   LIG    1       21.112  28.924  56.895  0.00  0.00    -0.218 NA
ATOM     12  C   LIG    1       23.697  30.889  55.191  0.00  0.00    +0.333 A 
ATOM     13  O   LIG    1       24.022  31.357  54.116  0.00  0.00    -0.246 OA
ENDROOT
BRANCH   5  14
ATOM     14  C   LIG    1       22.833  29.113  60.039  0.00  0.00    +0.139 C 
BRANCH  14  15
ATOM     15  C   LIG    1       21.990  30.031  60.926  0.00  0.00    +0.130 C 
ATOM     16 CL   LIG    1       22.637  31.711  60.838  0.00  0.00    -0.124 Cl
ENDBRANCH  14  15
ENDBRANCH   5  14
TORSDOF 2
