REMARK VINA RESULT:      -4.4      2.527      3.242
REMARK  Name = ZINC00000999
REMARK                            x       y       z     vdW  Elec       q    Type
REMARK                         _______ _______ _______ _____ _____    ______ ____
ROOT
ATOM      1  C   LIG    1       19.531  27.625  55.865  0.00  0.00    +0.155 C 
ATOM      2  N   LIG    1       20.114  28.950  55.632  0.00  0.00    -0.280 N 
ATOM      3  C   LIG    1       21.413  29.061  55.164  0.00  0.00    +0.168 A 
ATOM      4  C   LIG    1       21.942  30.328  54.951  0.00  0.00    +0.151 A 
ATOM      5  N   LIG    1       23.230  30.137  54.491  0.00  0.00    -0.323 N 
ATOM      6  C   LIG    1       23.436  28.805  54.441  0.00  0.00    +0.202 A 
ATOM      7  C   LIG    1       21.143  31.462  55.218  0.00  0.00    +0.282 A 
ATOM      8  N   LIG    1       19.885  31.287  55.673  0.00  0.00    -0.262 N 
ATOM      9  C   LIG    1       19.051  32.458  55.952  0.00  0.00    +0.157 C 
ATOM     10  O   LIG    1       21.585  32.582  55.038  0.00  0.00    -0.265 OA
ATOM     11  N   LIG    1       22.360  28.177  54.839  0.00  0.00    -0.218 NA
ATOM     12  C   LIG    1       19.383  30.056  55.869  0.00  0.00    +0.333 A 
ATOM     13  O   LIG    1       18.243  29.938  56.275  0.00  0.00    -0.246 OA
ENDROOT
BRANCH   5  14
ATOM     14  C   LIG    1       24.189  31.182  54.127  0.00  0.00    +0.139 C 
BRANCH  14  15
ATOM     15  C   LIG    1       25.022  31.559  55.354  0.00  0.00    +0.130 C 
ATOM     16 CL   LIG    1       26.428  32.564  54.840  0.00  0.00    -0.124 Cl
ENDBRANCH  14  15
ENDBRANCH   5  14
TORSDOF 2
