REMARK VINA RESULT:      -4.7      0.000      0.000
REMARK  Name = ZINC00000999
REMARK                            x       y       z     vdW  Elec       q    Type
REMARK                         _______ _______ _______ _____ _____    ______ ____
ROOT
ATOM      1  C   LIG    1       20.972  28.929  54.935  0.00  0.00    +0.155 C 
ATOM      2  N   LIG    1       22.044  29.448  55.789  0.00  0.00    -0.280 N 
ATOM      3  C   LIG    1       23.074  30.189  55.232  0.00  0.00    +0.168 A 
ATOM      4  C   LIG    1       24.078  30.671  56.062  0.00  0.00    +0.151 A 
ATOM      5  N   LIG    1       24.954  31.361  55.249  0.00  0.00    -0.323 N 
ATOM      6  C   LIG    1       24.471  31.280  53.993  0.00  0.00    +0.202 A 
ATOM      7  C   LIG    1       24.021  30.391  57.445  0.00  0.00    +0.282 A 
ATOM      8  N   LIG    1       22.991  29.664  57.927  0.00  0.00    -0.262 N 
ATOM      9  C   LIG    1       22.925  29.370  59.361  0.00  0.00    +0.157 C 
ATOM     10  O   LIG    1       24.889  30.803  58.193  0.00  0.00    -0.265 OA
ATOM     11  N   LIG    1       23.362  30.588  53.990  0.00  0.00    -0.218 NA
ATOM     12  C   LIG    1       22.023  29.209  57.114  0.00  0.00    +0.333 A 
ATOM     13  O   LIG    1       21.108  28.561  57.585  0.00  0.00    -0.246 OA
ENDROOT
BRANCH   5  14
ATOM     14  C   LIG    1       26.176  32.051  55.671  0.00  0.00    +0.139 C 
BRANCH  14  15
ATOM     15  C   LIG    1       26.854  32.677  54.451  0.00  0.00    +0.130 C 
ATOM     16 CL   LIG    1       27.419  34.339  54.864  0.00  0.00    -0.124 Cl
ENDBRANCH  14  15
ENDBRANCH   5  14
TORSDOF 2
