REMARK VINA RESULT:      -4.2      3.519      4.678
REMARK  Name = ZINC00000999
REMARK                            x       y       z     vdW  Elec       q    Type
REMARK                         _______ _______ _______ _____ _____    ______ ____
ROOT
ATOM      1  C   LIG    1       17.311  30.864  56.625  0.00  0.00    +0.155 C 
ATOM      2  N   LIG    1       18.679  31.132  56.175  0.00  0.00    -0.280 N 
ATOM      3  C   LIG    1       19.488  30.086  55.760  0.00  0.00    +0.168 A 
ATOM      4  C   LIG    1       20.781  30.365  55.338  0.00  0.00    +0.151 A 
ATOM      5  N   LIG    1       21.345  29.154  54.989  0.00  0.00    -0.323 N 
ATOM      6  C   LIG    1       20.408  28.209  55.203  0.00  0.00    +0.202 A 
ATOM      7  C   LIG    1       21.233  31.704  55.344  0.00  0.00    +0.282 A 
ATOM      8  N   LIG    1       20.397  32.678  55.758  0.00  0.00    -0.262 N 
ATOM      9  C   LIG    1       20.859  34.068  55.767  0.00  0.00    +0.157 C 
ATOM     10  O   LIG    1       22.362  31.974  54.977  0.00  0.00    -0.265 OA
ATOM     11  N   LIG    1       19.315  28.765  55.658  0.00  0.00    -0.218 NA
ATOM     12  C   LIG    1       19.146  32.395  56.159  0.00  0.00    +0.333 A 
ATOM     13  O   LIG    1       18.420  33.300  56.522  0.00  0.00    -0.246 OA
ENDROOT
BRANCH   5  14
ATOM     14  C   LIG    1       22.702  28.938  54.482  0.00  0.00    +0.139 C 
BRANCH  14  15
ATOM     15  C   LIG    1       23.610  28.492  55.630  0.00  0.00    +0.130 C 
ATOM     16 CL   LIG    1       24.831  29.775  55.964  0.00  0.00    -0.124 Cl
ENDBRANCH  14  15
ENDBRANCH   5  14
TORSDOF 2
