MODEL 1
REMARK VINA RESULT:      -6.2      0.000      0.000
REMARK  Name = ZINC00000310
REMARK                            x       y       z     vdW  Elec       q    Type
REMARK                         _______ _______ _______ _____ _____    ______ ____
ROOT
ATOM      1  C   LIG    1       22.708  26.863  57.100  0.00  0.00    -0.096 C 
ATOM      2  N   LIG    1       22.568  28.333  57.155  0.00  0.00    +0.378 N 
ATOM      3  H   LIG    1       23.011  28.677  58.014  0.00  0.00    -0.082 HD
ATOM      4  C   LIG    1       23.240  28.948  55.991  0.00  0.00    -0.065 C 
ATOM      5  C   LIG    1       23.185  30.470  56.133  0.00  0.00    +0.080 C 
ATOM      6  C   LIG    1       21.722  30.921  56.181  0.00  0.00    +0.097 C 
ATOM      7  C   LIG    1       21.019  30.219  57.347  0.00  0.00    +0.022 C 
ATOM      8  C   LIG    1       21.137  28.703  57.169  0.00  0.00    -0.076 C 
ENDROOT
BRANCH   6   9
ATOM      9  C   LIG    1       21.660  32.413  56.382  0.00  0.00    -0.015 A 
ATOM     10  C   LIG    1       22.337  32.997  57.437  0.00  0.00    +0.009 A 
ATOM     11  C   LIG    1       22.285  34.366  57.619  0.00  0.00    +0.039 A 
ATOM     12  C   LIG    1       21.548  35.152  56.749  0.00  0.00    +0.123 A 
ATOM     13  F   LIG    1       21.493  36.489  56.929  0.00  0.00    -0.205 F 
ATOM     14  C   LIG    1       20.868  34.565  55.695  0.00  0.00    +0.039 A 
ATOM     15  C   LIG    1       20.924  33.197  55.513  0.00  0.00    +0.009 A 
ENDBRANCH   6   9
BRANCH   5  16
ATOM     16  C   LIG    1       23.870  31.111  54.953  0.00  0.00    +0.167 C 
ATOM     17  O   LIG    1       23.330  31.117  53.868  0.00  0.00    -0.292 OA
BRANCH  16  18
ATOM     18  C   LIG    1       25.193  31.730  55.119  0.00  0.00    +0.018 A 
ATOM     19  C   LIG    1       25.997  31.981  54.003  0.00  0.00    +0.014 A 
ATOM     20  C   LIG    1       27.234  32.568  54.166  0.00  0.00    +0.039 A 
ATOM     21  C   LIG    1       27.685  32.899  55.434  0.00  0.00    +0.123 A 
ATOM     22  F   LIG    1       28.900  33.469  55.588  0.00  0.00    -0.205 F 
ATOM     23  C   LIG    1       26.895  32.648  56.547  0.00  0.00    +0.039 A 
ATOM     24  C   LIG    1       25.655  32.067  56.397  0.00  0.00    +0.014 A 
ENDBRANCH  16  18
ENDBRANCH   5  16
BRANCH   6  25
ATOM     25  O   LIG    1       21.075  30.575  54.955  0.00  0.00    -0.383 OA
ATOM     26  H   LIG    1       20.235  30.111  55.070  0.00  0.00    +0.211 HD
ENDBRANCH   6  25
TORSDOF 4
ENDMDL
MODEL 2
REMARK VINA RESULT:      -5.8      2.061      4.954
REMARK  Name = ZINC00000310
REMARK                            x       y       z     vdW  Elec       q    Type
REMARK                         _______ _______ _______ _____ _____    ______ ____
ROOT
ATOM      1  C   LIG    1       17.625  28.217  55.489  0.00  0.00    -0.096 C 
ATOM      2  N   LIG    1       18.947  28.874  55.438  0.00  0.00    +0.378 N 
ATOM      3  H   LIG    1       19.012  29.425  54.573  0.00  0.00    -0.082 HD
ATOM      4  C   LIG    1       19.106  29.781  56.594  0.00  0.00    -0.065 C 
ATOM      5  C   LIG    1       20.429  30.537  56.454  0.00  0.00    +0.080 C 
ATOM      6  C   LIG    1       21.585  29.533  56.424  0.00  0.00    +0.097 C 
ATOM      7  C   LIG    1       21.368  28.554  55.265  0.00  0.00    +0.022 C 
ATOM      8  C   LIG    1       20.018  27.855  55.440  0.00  0.00    -0.076 C 
ENDROOT
BRANCH   6   9
ATOM      9  C   LIG    1       22.886  30.266  56.226  0.00  0.00    -0.015 A 
ATOM     10  C   LIG    1       23.193  30.807  54.991  0.00  0.00    +0.009 A 
ATOM     11  C   LIG    1       24.384  31.484  54.809  0.00  0.00    +0.039 A 
ATOM     12  C   LIG    1       25.273  31.614  55.862  0.00  0.00    +0.123 A 
ATOM     13  F   LIG    1       26.439  32.272  55.685  0.00  0.00    -0.205 F 
ATOM     14  C   LIG    1       24.966  31.069  57.097  0.00  0.00    +0.039 A 
ATOM     15  C   LIG    1       23.773  30.395  57.277  0.00  0.00    +0.009 A 
ENDBRANCH   6   9
BRANCH   5  16
ATOM     16  C   LIG    1       20.603  31.468  57.627  0.00  0.00    +0.167 C 
ATOM     17  O   LIG    1       20.419  31.064  58.755  0.00  0.00    -0.292 OA
BRANCH  16  18
ATOM     18  C   LIG    1       20.998  32.866  57.402  0.00  0.00    +0.018 A 
ATOM     19  C   LIG    1       21.586  33.606  58.434  0.00  0.00    +0.014 A 
ATOM     20  C   LIG    1       21.960  34.913  58.214  0.00  0.00    +0.039 A 
ATOM     21  C   LIG    1       21.744  35.501  56.976  0.00  0.00    +0.123 A 
ATOM     22  F   LIG    1       22.107  36.785  56.769  0.00  0.00    -0.205 F 
ATOM     23  C   LIG    1       21.155  34.775  55.950  0.00  0.00    +0.039 A 
ATOM     24  C   LIG    1       20.782  33.465  56.156  0.00  0.00    +0.014 A 
ENDBRANCH  16  18
ENDBRANCH   5  16
BRANCH   6  25
ATOM     25  O   LIG    1       21.624  28.812  57.657  0.00  0.00    -0.383 OA
ATOM     26  H   LIG    1       20.943  29.076  58.290  0.00  0.00    +0.211 HD
ENDBRANCH   6  25
TORSDOF 4
ENDMDL
MODEL 3
REMARK VINA RESULT:      -5.7      1.514      2.236
REMARK  Name = ZINC00000310
REMARK                            x       y       z     vdW  Elec       q    Type
REMARK                         _______ _______ _______ _____ _____    ______ ____
ROOT
ATOM      1  C   LIG    1       20.171  25.756  57.576  0.00  0.00    -0.096 C 
ATOM      2  N   LIG    1       20.373  27.218  57.502  0.00  0.00    +0.378 N 
ATOM      3  H   LIG    1       20.785  27.542  58.384  0.00  0.00    -0.082 HD
ATOM      4  C   LIG    1       21.296  27.544  56.394  0.00  0.00    -0.065 C 
ATOM      5  C   LIG    1       21.582  29.047  56.413  0.00  0.00    +0.080 C 
ATOM      6  C   LIG    1       20.268  29.814  56.233  0.00  0.00    +0.097 C 
ATOM      7  C   LIG    1       19.295  29.410  57.345  0.00  0.00    +0.022 C 
ATOM      8  C   LIG    1       19.075  27.896  57.298  0.00  0.00    -0.076 C 
ENDROOT
BRANCH   6   9
ATOM      9  C   LIG    1       20.534  31.295  56.311  0.00  0.00    -0.015 A 
ATOM     10  C   LIG    1       20.977  31.856  57.494  0.00  0.00    +0.009 A 
ATOM     11  C   LIG    1       21.226  33.214  57.566  0.00  0.00    +0.039 A 
ATOM     12  C   LIG    1       21.023  34.014  56.454  0.00  0.00    +0.123 A 
ATOM     13  F   LIG    1       21.262  35.341  56.524  0.00  0.00    -0.205 F 
ATOM     14  C   LIG    1       20.575  33.451  55.270  0.00  0.00    +0.039 A 
ATOM     15  C   LIG    1       20.331  32.093  55.201  0.00  0.00    +0.009 A 
ENDBRANCH   6   9
BRANCH   5  16
ATOM     16  C   LIG    1       22.525  29.394  55.290  0.00  0.00    +0.167 C 
ATOM     17  O   LIG    1       22.347  28.931  54.183  0.00  0.00    -0.292 OA
BRANCH  16  18
ATOM     18  C   LIG    1       23.659  30.296  55.536  0.00  0.00    +0.018 A 
ATOM     19  C   LIG    1       24.217  30.392  56.815  0.00  0.00    +0.014 A 
ATOM     20  C   LIG    1       25.284  31.235  57.037  0.00  0.00    +0.039 A 
ATOM     21  C   LIG    1       25.799  31.995  55.998  0.00  0.00    +0.123 A 
ATOM     22  F   LIG    1       26.842  32.823  56.223  0.00  0.00    -0.205 F 
ATOM     23  C   LIG    1       25.248  31.908  54.727  0.00  0.00    +0.039 A 
ATOM     24  C   LIG    1       24.184  31.066  54.491  0.00  0.00    +0.014 A 
ENDBRANCH  16  18
ENDBRANCH   5  16
BRANCH   6  25
ATOM     25  O   LIG    1       19.699  29.496  54.961  0.00  0.00    -0.383 OA
ATOM     26  H   LIG    1       20.116  28.743  54.520  0.00  0.00    +0.211 HD
ENDBRANCH   6  25
TORSDOF 4
ENDMDL
MODEL 4
REMARK VINA RESULT:      -5.6      3.097      6.026
REMARK  Name = ZINC00000310
REMARK                            x       y       z     vdW  Elec       q    Type
REMARK                         _______ _______ _______ _____ _____    ______ ____
ROOT
ATOM      1  C   LIG    1       25.565  31.115  55.874  0.00  0.00    -0.096 C 
ATOM      2  N   LIG    1       24.166  30.756  56.184  0.00  0.00    +0.378 N 
ATOM      3  H   LIG    1       23.983  30.955  57.174  0.00  0.00    -0.082 HD
ATOM      4  C   LIG    1       23.242  31.561  55.356  0.00  0.00    -0.065 C 
ATOM      5  C   LIG    1       21.804  31.258  55.779  0.00  0.00    +0.080 C 
ATOM      6  C   LIG    1       21.518  29.767  55.570  0.00  0.00    +0.097 C 
ATOM      7  C   LIG    1       22.529  28.945  56.376  0.00  0.00    +0.022 C 
ATOM      8  C   LIG    1       23.947  29.315  55.935  0.00  0.00    -0.076 C 
ENDROOT
BRANCH   6   9
ATOM      9  C   LIG    1       20.123  29.450  56.042  0.00  0.00    -0.015 A 
ATOM     10  C   LIG    1       19.727  29.808  57.317  0.00  0.00    +0.009 A 
ATOM     11  C   LIG    1       18.445  29.522  57.749  0.00  0.00    +0.039 A 
ATOM     12  C   LIG    1       17.561  28.869  56.906  0.00  0.00    +0.123 A 
ATOM     13  F   LIG    1       16.310  28.585  57.328  0.00  0.00    -0.205 F 
ATOM     14  C   LIG    1       17.961  28.508  55.630  0.00  0.00    +0.039 A 
ATOM     15  C   LIG    1       19.241  28.799  55.200  0.00  0.00    +0.009 A 
ENDBRANCH   6   9
BRANCH   5  16
ATOM     16  C   LIG    1       20.851  32.074  54.944  0.00  0.00    +0.167 C 
ATOM     17  O   LIG    1       20.816  31.923  53.741  0.00  0.00    -0.292 OA
BRANCH  16  18
ATOM     18  C   LIG    1       19.962  33.052  55.589  0.00  0.00    +0.018 A 
ATOM     19  C   LIG    1       20.498  34.179  56.222  0.00  0.00    +0.014 A 
ATOM     20  C   LIG    1       19.659  35.094  56.818  0.00  0.00    +0.039 A 
ATOM     21  C   LIG    1       18.286  34.895  56.802  0.00  0.00    +0.123 A 
ATOM     22  F   LIG    1       17.469  35.794  57.393  0.00  0.00    -0.205 F 
ATOM     23  C   LIG    1       17.749  33.777  56.180  0.00  0.00    +0.039 A 
ATOM     24  C   LIG    1       18.577  32.857  55.575  0.00  0.00    +0.014 A 
ENDBRANCH  16  18
ENDBRANCH   5  16
BRANCH   6  25
ATOM     25  O   LIG    1       21.640  29.447  54.183  0.00  0.00    -0.383 OA
ATOM     26  H   LIG    1       20.796  29.413  53.711  0.00  0.00    +0.211 HD
ENDBRANCH   6  25
TORSDOF 4
ENDMDL
MODEL 5
REMARK VINA RESULT:      -5.6      2.497      3.067
REMARK  Name = ZINC00000310
REMARK                            x       y       z     vdW  Elec       q    Type
REMARK                         _______ _______ _______ _____ _____    ______ ____
ROOT
ATOM      1  C   LIG    1       23.029  28.560  62.307  0.00  0.00    -0.096 C 
ATOM      2  N   LIG    1       22.787  29.594  61.279  0.00  0.00    +0.378 N 
ATOM      3  H   LIG    1       23.392  30.401  61.470  0.00  0.00    -0.082 HD
ATOM      4  C   LIG    1       23.111  29.060  59.939  0.00  0.00    -0.065 C 
ATOM      5  C   LIG    1       22.968  30.182  58.909  0.00  0.00    +0.080 C 
ATOM      6  C   LIG    1       21.526  30.699  58.923  0.00  0.00    +0.097 C 
ATOM      7  C   LIG    1       21.180  31.182  60.335  0.00  0.00    +0.022 C 
ATOM      8  C   LIG    1       21.375  30.030  61.324  0.00  0.00    -0.076 C 
ENDROOT
BRANCH   6   9
ATOM      9  C   LIG    1       21.393  31.845  57.954  0.00  0.00    -0.015 A 
ATOM     10  C   LIG    1       20.619  31.702  56.817  0.00  0.00    +0.009 A 
ATOM     11  C   LIG    1       20.492  32.754  55.929  0.00  0.00    +0.039 A 
ATOM     12  C   LIG    1       21.146  33.949  56.175  0.00  0.00    +0.123 A 
ATOM     13  F   LIG    1       21.026  34.976  55.307  0.00  0.00    -0.205 F 
ATOM     14  C   LIG    1       21.924  34.090  57.313  0.00  0.00    +0.039 A 
ATOM     15  C   LIG    1       22.046  33.038  58.200  0.00  0.00    +0.009 A 
ENDBRANCH   6   9
BRANCH   5  16
ATOM     16  C   LIG    1       23.298  29.651  57.537  0.00  0.00    +0.167 C 
ATOM     17  O   LIG    1       22.891  28.561  57.195  0.00  0.00    -0.292 OA
BRANCH  16  18
ATOM     18  C   LIG    1       24.111  30.456  56.615  0.00  0.00    +0.018 A 
ATOM     19  C   LIG    1       23.817  30.470  55.247  0.00  0.00    +0.014 A 
ATOM     20  C   LIG    1       24.579  31.232  54.389  0.00  0.00    +0.039 A 
ATOM     21  C   LIG    1       25.643  31.976  54.877  0.00  0.00    +0.123 A 
ATOM     22  F   LIG    1       26.391  32.717  54.030  0.00  0.00    -0.205 F 
ATOM     23  C   LIG    1       25.944  31.962  56.232  0.00  0.00    +0.039 A 
ATOM     24  C   LIG    1       25.186  31.209  57.101  0.00  0.00    +0.014 A 
ENDBRANCH  16  18
ENDBRANCH   5  16
BRANCH   6  25
ATOM     25  O   LIG    1       20.636  29.647  58.546  0.00  0.00    -0.383 OA
ATOM     26  H   LIG    1       20.328  29.700  57.631  0.00  0.00    +0.211 HD
ENDBRANCH   6  25
TORSDOF 4
ENDMDL
