REMARK VINA RESULT:      -5.6      2.603      3.129
REMARK  Name = ZINC00000909
REMARK                            x       y       z     vdW  Elec       q    Type
REMARK                         _______ _______ _______ _____ _____    ______ ____
ROOT
ATOM      1  C   LIG    1       23.910  30.975  55.521  0.00  0.00    +0.043 A 
ATOM      2  C   LIG    1       23.722  30.773  54.150  0.00  0.00    +0.013 A 
ATOM      3  C   LIG    1       23.206  29.579  53.695  0.00  0.00    +0.001 A 
ATOM      4  C   LIG    1       22.872  28.574  54.592  0.00  0.00    +0.006 A 
ATOM      5  C   LIG    1       23.051  28.758  55.947  0.00  0.00    -0.015 A 
ATOM      6  C   LIG    1       23.576  29.953  56.425  0.00  0.00    +0.039 A 
ENDROOT
BRANCH   6   7
ATOM      7  N   LIG    1       23.765  30.137  57.787  0.00  0.00    -0.357 N 
ATOM      8  H   LIG    1       24.095  30.986  58.121  0.00  0.00    +0.142 HD
ATOM      9  H   LIG    1       23.568  29.416  58.405  0.00  0.00    +0.142 HD
ENDBRANCH   6   7
BRANCH   1  10
ATOM     10  C   LIG    1       24.462  32.249  56.013  0.00  0.00    +0.195 C 
ATOM     11  O   LIG    1       23.760  33.011  56.648  0.00  0.00    -0.287 OA
BRANCH  10  15
ATOM     12  C   LIG    1       28.508  33.259  55.207  0.00  0.00    +0.000 A 
ATOM     13  C   LIG    1       28.135  31.929  55.294  0.00  0.00    +0.001 A 
ATOM     14  C   LIG    1       26.822  31.595  55.557  0.00  0.00    +0.012 A 
ATOM     15  C   LIG    1       25.870  32.600  55.733  0.00  0.00    +0.022 A 
ATOM     16  C   LIG    1       26.254  33.940  55.643  0.00  0.00    +0.012 A 
ATOM     17  C   LIG    1       27.570  34.261  55.380  0.00  0.00    +0.001 A 
ENDBRANCH  10  15
ENDBRANCH   1  10
BRANCH   5  18
ATOM     18  C   LIG    1       22.683  27.659  56.910  0.00  0.00    +0.157 C 
BRANCH  18  19
ATOM     19  C   LIG    1       21.197  27.415  56.849  0.00  0.00    +0.309 C 
ATOM     20  O   LIG    1       20.422  28.279  57.220  0.00  0.00    -0.251 OA
BRANCH  19  21
ATOM     21  O   LIG    1       20.770  26.354  56.427  0.00  0.00    -0.480 OA
ATOM     22  H   LIG    1       19.863  26.139  56.531  0.00  0.00    +0.295 HD
ENDBRANCH  19  21
ENDBRANCH  18  19
ENDBRANCH   5  18
TORSDOF 6
