REMARK VINA RESULT:      -5.9      0.000      0.000
REMARK  Name = ZINC00000909
REMARK                            x       y       z     vdW  Elec       q    Type
REMARK                         _______ _______ _______ _____ _____    ______ ____
ROOT
ATOM      1  C   LIG    1       23.822  31.071  55.852  0.00  0.00    +0.043 A 
ATOM      2  C   LIG    1       23.913  30.301  54.689  0.00  0.00    +0.013 A 
ATOM      3  C   LIG    1       22.773  29.997  53.976  0.00  0.00    +0.001 A 
ATOM      4  C   LIG    1       21.535  30.451  54.407  0.00  0.00    +0.006 A 
ATOM      5  C   LIG    1       21.430  31.213  55.552  0.00  0.00    -0.015 A 
ATOM      6  C   LIG    1       22.567  31.525  56.288  0.00  0.00    +0.039 A 
ENDROOT
BRANCH   6   7
ATOM      7  N   LIG    1       22.461  32.284  57.445  0.00  0.00    -0.357 N 
ATOM      8  H   LIG    1       22.151  33.202  57.397  0.00  0.00    +0.142 HD
ATOM      9  H   LIG    1       22.701  31.897  58.302  0.00  0.00    +0.142 HD
ENDBRANCH   6   7
BRANCH   1  10
ATOM     10  C   LIG    1       25.037  31.399  56.619  0.00  0.00    +0.195 C 
ATOM     11  O   LIG    1       25.174  30.978  57.752  0.00  0.00    -0.287 OA
BRANCH  10  15
ATOM     12  C   LIG    1       28.058  33.821  54.872  0.00  0.00    +0.000 A 
ATOM     13  C   LIG    1       28.181  32.442  54.850  0.00  0.00    +0.001 A 
ATOM     14  C   LIG    1       27.203  31.650  55.416  0.00  0.00    +0.012 A 
ATOM     15  C   LIG    1       26.088  32.242  56.012  0.00  0.00    +0.022 A 
ATOM     16  C   LIG    1       25.971  33.634  56.032  0.00  0.00    +0.012 A 
ATOM     17  C   LIG    1       26.955  34.414  55.461  0.00  0.00    +0.001 A 
ENDBRANCH  10  15
ENDBRANCH   1  10
BRANCH   5  18
ATOM     18  C   LIG    1       20.079  31.701  56.009  0.00  0.00    +0.157 C 
BRANCH  18  19
ATOM     19  C   LIG    1       19.783  33.032  55.366  0.00  0.00    +0.309 C 
ATOM     20  O   LIG    1       18.628  33.385  55.201  0.00  0.00    -0.251 OA
BRANCH  19  21
ATOM     21  O   LIG    1       20.698  33.755  55.013  0.00  0.00    -0.480 OA
ATOM     22  H   LIG    1       20.580  34.343  54.292  0.00  0.00    +0.295 HD
ENDBRANCH  19  21
ENDBRANCH  18  19
ENDBRANCH   5  18
TORSDOF 6
