REMARK VINA RESULT:      -5.5      2.053      2.616
REMARK  Name = ZINC00000909
REMARK                            x       y       z     vdW  Elec       q    Type
REMARK                         _______ _______ _______ _____ _____    ______ ____
ROOT
ATOM      1  C   LIG    1       23.802  31.693  56.771  0.00  0.00    +0.043 A 
ATOM      2  C   LIG    1       24.183  30.738  57.719  0.00  0.00    +0.013 A 
ATOM      3  C   LIG    1       23.496  30.639  58.909  0.00  0.00    +0.001 A 
ATOM      4  C   LIG    1       22.426  31.482  59.173  0.00  0.00    +0.006 A 
ATOM      5  C   LIG    1       22.037  32.429  58.246  0.00  0.00    -0.015 A 
ATOM      6  C   LIG    1       22.723  32.549  57.043  0.00  0.00    +0.039 A 
ENDROOT
BRANCH   6   7
ATOM      7  N   LIG    1       22.339  33.506  56.114  0.00  0.00    -0.357 N 
ATOM      8  H   LIG    1       22.998  33.899  55.522  0.00  0.00    +0.142 HD
ATOM      9  H   LIG    1       21.411  33.782  56.059  0.00  0.00    +0.142 HD
ENDBRANCH   6   7
BRANCH   1  10
ATOM     10  C   LIG    1       24.534  31.805  55.497  0.00  0.00    +0.195 C 
ATOM     11  O   LIG    1       23.987  31.508  54.453  0.00  0.00    -0.287 OA
BRANCH  10  15
ATOM     12  C   LIG    1       28.560  33.160  55.474  0.00  0.00    +0.000 A 
ATOM     13  C   LIG    1       28.277  31.837  55.184  0.00  0.00    +0.001 A 
ATOM     14  C   LIG    1       26.972  31.390  55.190  0.00  0.00    +0.012 A 
ATOM     15  C   LIG    1       25.935  32.276  55.490  0.00  0.00    +0.022 A 
ATOM     16  C   LIG    1       26.228  33.610  55.783  0.00  0.00    +0.012 A 
ATOM     17  C   LIG    1       27.537  34.044  55.772  0.00  0.00    +0.001 A 
ENDBRANCH  10  15
ENDBRANCH   1  10
BRANCH   5  18
ATOM     18  C   LIG    1       20.873  33.338  58.545  0.00  0.00    +0.157 C 
BRANCH  18  19
ATOM     19  C   LIG    1       19.599  32.700  58.052  0.00  0.00    +0.309 C 
ATOM     20  O   LIG    1       18.916  32.037  58.813  0.00  0.00    -0.251 OA
BRANCH  19  21
ATOM     21  O   LIG    1       19.252  32.848  56.893  0.00  0.00    -0.480 OA
ATOM     22  H   LIG    1       19.535  32.241  56.238  0.00  0.00    +0.295 HD
ENDBRANCH  19  21
ENDBRANCH  18  19
ENDBRANCH   5  18
TORSDOF 6
