REMARK VINA RESULT:      -5.6      2.590      3.488
REMARK  Name = ZINC00000909
REMARK                            x       y       z     vdW  Elec       q    Type
REMARK                         _______ _______ _______ _____ _____    ______ ____
ROOT
ATOM      1  C   LIG    1       23.663  31.602  56.644  0.00  0.00    +0.043 A 
ATOM      2  C   LIG    1       22.755  32.286  55.829  0.00  0.00    +0.013 A 
ATOM      3  C   LIG    1       21.500  32.594  56.308  0.00  0.00    +0.001 A 
ATOM      4  C   LIG    1       21.132  32.230  57.595  0.00  0.00    +0.006 A 
ATOM      5  C   LIG    1       22.017  31.555  58.411  0.00  0.00    -0.015 A 
ATOM      6  C   LIG    1       23.285  31.229  57.944  0.00  0.00    +0.039 A 
ENDROOT
BRANCH   6   7
ATOM      7  N   LIG    1       24.173  30.543  58.760  0.00  0.00    -0.357 N 
ATOM      8  H   LIG    1       23.957  30.393  59.694  0.00  0.00    +0.142 HD
ATOM      9  H   LIG    1       25.011  30.216  58.397  0.00  0.00    +0.142 HD
ENDBRANCH   6   7
BRANCH   1  10
ATOM     10  C   LIG    1       25.006  31.268  56.137  0.00  0.00    +0.195 C 
ATOM     11  O   LIG    1       25.385  30.112  56.134  0.00  0.00    -0.287 OA
BRANCH  10  15
ATOM     12  C   LIG    1       27.554  34.344  54.693  0.00  0.00    +0.000 A 
ATOM     13  C   LIG    1       26.856  34.526  55.874  0.00  0.00    +0.001 A 
ATOM     14  C   LIG    1       26.026  33.531  56.348  0.00  0.00    +0.012 A 
ATOM     15  C   LIG    1       25.892  32.338  55.635  0.00  0.00    +0.022 A 
ATOM     16  C   LIG    1       26.600  32.161  54.443  0.00  0.00    +0.012 A 
ATOM     17  C   LIG    1       27.427  33.164  53.981  0.00  0.00    +0.001 A 
ENDBRANCH  10  15
ENDBRANCH   1  10
BRANCH   5  18
ATOM     18  C   LIG    1       21.605  31.166  59.807  0.00  0.00    +0.157 C 
BRANCH  18  19
ATOM     19  C   LIG    1       22.300  32.059  60.803  0.00  0.00    +0.309 C 
ATOM     20  O   LIG    1       21.904  33.197  60.981  0.00  0.00    -0.251 OA
BRANCH  19  21
ATOM     21  O   LIG    1       23.257  31.642  61.432  0.00  0.00    -0.480 OA
ATOM     22  H   LIG    1       23.493  30.736  61.379  0.00  0.00    +0.295 HD
ENDBRANCH  19  21
ENDBRANCH  18  19
ENDBRANCH   5  18
TORSDOF 6
