REMARK VINA RESULT:      -5.7      2.227      2.872
REMARK  Name = ZINC00000909
REMARK                            x       y       z     vdW  Elec       q    Type
REMARK                         _______ _______ _______ _____ _____    ______ ____
ROOT
ATOM      1  C   LIG    1       23.512  31.575  56.169  0.00  0.00    +0.043 A 
ATOM      2  C   LIG    1       22.643  32.669  56.241  0.00  0.00    +0.013 A 
ATOM      3  C   LIG    1       21.341  32.541  55.809  0.00  0.00    +0.001 A 
ATOM      4  C   LIG    1       20.885  31.331  55.304  0.00  0.00    +0.006 A 
ATOM      5  C   LIG    1       21.730  30.243  55.228  0.00  0.00    -0.015 A 
ATOM      6  C   LIG    1       23.049  30.354  55.652  0.00  0.00    +0.039 A 
ENDROOT
BRANCH   6   7
ATOM      7  N   LIG    1       23.903  29.262  55.569  0.00  0.00    -0.357 N 
ATOM      8  H   LIG    1       24.700  29.227  56.121  0.00  0.00    +0.142 HD
ATOM      9  H   LIG    1       23.703  28.537  54.957  0.00  0.00    +0.142 HD
ENDBRANCH   6   7
BRANCH   1  10
ATOM     10  C   LIG    1       24.906  31.705  56.628  0.00  0.00    +0.195 C 
ATOM     11  O   LIG    1       25.269  31.139  57.641  0.00  0.00    -0.287 OA
BRANCH  10  15
ATOM     12  C   LIG    1       27.655  34.064  54.411  0.00  0.00    +0.000 A 
ATOM     13  C   LIG    1       27.355  32.780  53.991  0.00  0.00    +0.001 A 
ATOM     14  C   LIG    1       26.463  32.009  54.707  0.00  0.00    +0.012 A 
ATOM     15  C   LIG    1       25.863  32.526  55.857  0.00  0.00    +0.022 A 
ATOM     16  C   LIG    1       26.171  33.823  56.275  0.00  0.00    +0.012 A 
ATOM     17  C   LIG    1       27.064  34.584  55.549  0.00  0.00    +0.001 A 
ENDBRANCH  10  15
ENDBRANCH   1  10
BRANCH   5  18
ATOM     18  C   LIG    1       21.223  28.935  54.678  0.00  0.00    +0.157 C 
BRANCH  18  19
ATOM     19  C   LIG    1       20.778  28.051  55.815  0.00  0.00    +0.309 C 
ATOM     20  O   LIG    1       19.676  28.205  56.311  0.00  0.00    -0.251 OA
BRANCH  19  21
ATOM     21  O   LIG    1       21.520  27.181  56.237  0.00  0.00    -0.480 OA
ATOM     22  H   LIG    1       22.397  27.396  56.490  0.00  0.00    +0.295 HD
ENDBRANCH  19  21
ENDBRANCH  18  19
ENDBRANCH   5  18
TORSDOF 6
