REMARK VINA RESULT:      -5.0      3.772      6.139
REMARK  Name = ZINC00000848
REMARK                            x       y       z     vdW  Elec       q    Type
REMARK                         _______ _______ _______ _____ _____    ______ ____
ROOT
ATOM      1  C   LIG    1       23.238  35.962  57.375  0.00  0.00    +0.248 C 
ATOM      2  N   LIG    1       23.043  34.817  56.693  0.00  0.00    -0.310 N 
ATOM      3  H   LIG    1       23.483  34.679  55.839  0.00  0.00    +0.149 HD
ATOM      4  O   LIG    1       22.686  36.134  58.445  0.00  0.00    -0.270 OA
ENDROOT
BRANCH   2   5
ATOM      5  C   LIG    1       22.165  33.779  57.239  0.00  0.00    +0.060 C 
ATOM      6  C   LIG    1       21.038  33.484  56.246  0.00  0.00    -0.056 C 
ATOM      7  N   LIG    1       21.077  32.068  55.824  0.00  0.00    +0.381 N 
ATOM      8  H   LIG    1       20.314  31.896  55.159  0.00  0.00    -0.082 HD
ATOM      9  C   LIG    1       22.366  31.773  55.161  0.00  0.00    -0.078 C 
ATOM     10  C   LIG    1       23.531  32.020  56.123  0.00  0.00    -0.014 C 
ATOM     11  C   LIG    1       20.900  31.185  56.997  0.00  0.00    -0.078 C 
ATOM     12  C   LIG    1       22.023  31.415  58.012  0.00  0.00    -0.014 C 
ATOM     13  C   LIG    1       22.970  32.493  57.470  0.00  0.00    +0.004 C 
ENDBRANCH   2   5
BRANCH   1  20
ATOM     14  C   LIG    1       25.426  36.684  56.426  0.00  0.00    +0.134 A 
ATOM     15  C   LIG    1       26.246  37.670  55.906  0.00  0.00    +0.070 A 
ATOM     16  C   LIG    1       25.777  38.972  55.794  0.00  0.00    +0.047 A 
ATOM     17  C   LIG    1       24.478  39.288  56.192  0.00  0.00    +0.062 A 
ATOM     18 CL   LIG    1       23.899  40.917  56.042  0.00  0.00    -0.082 Cl
ATOM     19  C   LIG    1       23.659  38.320  56.702  0.00  0.00    +0.038 A 
ATOM     20  C   LIG    1       24.120  37.005  56.826  0.00  0.00    +0.080 A 
BRANCH  16  21
ATOM     21  N   LIG    1       26.603  39.964  55.275  0.00  0.00    -0.357 N 
ATOM     22  H   LIG    1       26.624  40.127  54.320  0.00  0.00    +0.142 HD
ATOM     23  H   LIG    1       27.157  40.494  55.870  0.00  0.00    +0.142 HD
ENDBRANCH  16  21
BRANCH  14  25
ATOM     24  C   LIG    1       26.827  34.967  55.566  0.00  0.00    +0.277 C 
ATOM     25  O   LIG    1       25.881  35.410  56.543  0.00  0.00    -0.494 OA
ENDBRANCH  14  25
ENDBRANCH   1  20
TORSDOF 4
