REMARK VINA RESULT:      -5.5      0.000      0.000
REMARK  Name = ZINC00000848
REMARK                            x       y       z     vdW  Elec       q    Type
REMARK                         _______ _______ _______ _____ _____    ______ ____
ROOT
ATOM      1  C   LIG    1       23.631  32.425  56.666  0.00  0.00    +0.248 C 
ATOM      2  N   LIG    1       24.629  33.007  55.972  0.00  0.00    -0.310 N 
ATOM      3  H   LIG    1       24.453  33.800  55.441  0.00  0.00    +0.149 HD
ATOM      4  O   LIG    1       23.853  31.431  57.331  0.00  0.00    -0.270 OA
ENDROOT
BRANCH   2   5
ATOM      5  C   LIG    1       25.980  32.443  56.018  0.00  0.00    +0.060 C 
ATOM      6  C   LIG    1       26.383  31.960  54.622  0.00  0.00    -0.056 C 
ATOM      7  N   LIG    1       27.590  32.676  54.156  0.00  0.00    +0.381 N 
ATOM      8  H   LIG    1       27.839  32.335  53.220  0.00  0.00    -0.082 HD
ATOM      9  C   LIG    1       27.320  34.128  54.082  0.00  0.00    -0.078 C 
ATOM     10  C   LIG    1       26.943  34.672  55.463  0.00  0.00    -0.014 C 
ATOM     11  C   LIG    1       28.718  32.419  55.076  0.00  0.00    -0.078 C 
ATOM     12  C   LIG    1       28.382  32.914  56.485  0.00  0.00    -0.014 C 
ATOM     13  C   LIG    1       26.973  33.520  56.475  0.00  0.00    +0.004 C 
ENDBRANCH   2   5
BRANCH   1  20
ATOM     14  C   LIG    1       21.436  32.726  55.526  0.00  0.00    +0.134 A 
ATOM     15  C   LIG    1       20.160  33.259  55.494  0.00  0.00    +0.070 A 
ATOM     16  C   LIG    1       19.720  34.064  56.537  0.00  0.00    +0.047 A 
ATOM     17  C   LIG    1       20.555  34.326  57.622  0.00  0.00    +0.062 A 
ATOM     18 CL   LIG    1       19.992  35.327  58.924  0.00  0.00    -0.082 Cl
ATOM     19  C   LIG    1       21.815  33.800  57.666  0.00  0.00    +0.038 A 
ATOM     20  C   LIG    1       22.274  32.992  56.619  0.00  0.00    +0.080 A 
BRANCH  16  21
ATOM     21  N   LIG    1       18.438  34.604  56.502  0.00  0.00    -0.357 N 
ATOM     22  H   LIG    1       18.173  35.264  57.161  0.00  0.00    +0.142 HD
ATOM     23  H   LIG    1       17.810  34.321  55.818  0.00  0.00    +0.142 HD
ENDBRANCH  16  21
BRANCH  14  25
ATOM     24  C   LIG    1       21.390  30.599  54.467  0.00  0.00    +0.277 C 
ATOM     25  O   LIG    1       21.874  31.943  54.507  0.00  0.00    -0.494 OA
ENDBRANCH  14  25
ENDBRANCH   1  20
TORSDOF 4
