REMARK VINA RESULT:      -5.0      4.144      5.193
REMARK  Name = ZINC00000848
REMARK                            x       y       z     vdW  Elec       q    Type
REMARK                         _______ _______ _______ _____ _____    ______ ____
ROOT
ATOM      1  C   LIG    1       19.955  32.482  55.493  0.00  0.00    +0.248 C 
ATOM      2  N   LIG    1       20.552  31.416  56.062  0.00  0.00    -0.310 N 
ATOM      3  H   LIG    1       20.117  30.949  56.792  0.00  0.00    +0.149 HD
ATOM      4  O   LIG    1       20.502  33.067  54.577  0.00  0.00    -0.270 OA
ENDROOT
BRANCH   2   5
ATOM      5  C   LIG    1       21.857  30.961  55.577  0.00  0.00    +0.060 C 
ATOM      6  C   LIG    1       22.657  30.364  56.738  0.00  0.00    -0.056 C 
ATOM      7  N   LIG    1       22.986  28.949  56.465  0.00  0.00    +0.381 N 
ATOM      8  H   LIG    1       23.521  28.573  57.257  0.00  0.00    -0.082 HD
ATOM      9  C   LIG    1       21.744  28.162  56.308  0.00  0.00    -0.078 C 
ATOM     10  C   LIG    1       20.918  28.697  55.135  0.00  0.00    -0.014 C 
ATOM     11  C   LIG    1       23.807  28.847  55.240  0.00  0.00    -0.078 C 
ATOM     12  C   LIG    1       23.040  29.401  54.036  0.00  0.00    -0.014 C 
ATOM     13  C   LIG    1       21.661  29.881  54.505  0.00  0.00    +0.004 C 
ENDBRANCH   2   5
BRANCH   1  20
ATOM     14  C   LIG    1       17.616  32.012  56.211  0.00  0.00    +0.134 A 
ATOM     15  C   LIG    1       16.389  32.450  56.674  0.00  0.00    +0.070 A 
ATOM     16  C   LIG    1       16.176  33.804  56.897  0.00  0.00    +0.047 A 
ATOM     17  C   LIG    1       17.200  34.723  56.666  0.00  0.00    +0.062 A 
ATOM     18 CL   LIG    1       16.926  36.413  56.954  0.00  0.00    -0.082 Cl
ATOM     19  C   LIG    1       18.417  34.300  56.215  0.00  0.00    +0.038 A 
ATOM     20  C   LIG    1       18.644  32.939  55.980  0.00  0.00    +0.080 A 
BRANCH  16  21
ATOM     21  N   LIG    1       14.940  34.245  57.358  0.00  0.00    -0.357 N 
ATOM     22  H   LIG    1       14.554  35.062  57.004  0.00  0.00    +0.142 HD
ATOM     23  H   LIG    1       14.463  33.736  58.033  0.00  0.00    +0.142 HD
ENDBRANCH  16  21
BRANCH  14  25
ATOM     24  C   LIG    1       16.679  29.839  55.989  0.00  0.00    +0.277 C 
ATOM     25  O   LIG    1       17.828  30.689  55.987  0.00  0.00    -0.494 OA
ENDBRANCH  14  25
ENDBRANCH   1  20
TORSDOF 4
