REMARK VINA RESULT:      -5.0      3.845      7.491
REMARK  Name = ZINC00000848
REMARK                            x       y       z     vdW  Elec       q    Type
REMARK                         _______ _______ _______ _____ _____    ______ ____
ROOT
ATOM      1  C   LIG    1       20.476  32.104  55.068  0.00  0.00    +0.248 C 
ATOM      2  N   LIG    1       19.451  32.108  55.943  0.00  0.00    -0.310 N 
ATOM      3  H   LIG    1       19.424  31.459  56.662  0.00  0.00    +0.149 HD
ATOM      4  O   LIG    1       20.508  32.919  54.166  0.00  0.00    -0.270 OA
ENDROOT
BRANCH   2   5
ATOM      5  C   LIG    1       18.375  33.093  55.806  0.00  0.00    +0.060 C 
ATOM      6  C   LIG    1       17.045  32.463  56.228  0.00  0.00    -0.056 C 
ATOM      7  N   LIG    1       16.459  33.204  57.365  0.00  0.00    +0.381 N 
ATOM      8  H   LIG    1       15.570  32.762  57.629  0.00  0.00    -0.082 HD
ATOM      9  C   LIG    1       17.378  33.161  58.524  0.00  0.00    -0.078 C 
ATOM     10  C   LIG    1       18.718  33.811  58.167  0.00  0.00    -0.014 C 
ATOM     11  C   LIG    1       16.202  34.607  56.977  0.00  0.00    -0.078 C 
ATOM     12  C   LIG    1       17.508  35.299  56.577  0.00  0.00    -0.014 C 
ATOM     13  C   LIG    1       18.662  34.297  56.714  0.00  0.00    +0.004 C 
ENDBRANCH   2   5
BRANCH   1  20
ATOM     14  C   LIG    1       21.262  29.743  55.187  0.00  0.00    +0.134 A 
ATOM     15  C   LIG    1       22.285  28.820  55.311  0.00  0.00    +0.070 A 
ATOM     16  C   LIG    1       23.595  29.255  55.465  0.00  0.00    +0.047 A 
ATOM     17  C   LIG    1       23.884  30.619  55.483  0.00  0.00    +0.062 A 
ATOM     18 CL   LIG    1       25.526  31.153  55.669  0.00  0.00    -0.082 Cl
ATOM     19  C   LIG    1       22.882  31.538  55.355  0.00  0.00    +0.038 A 
ATOM     20  C   LIG    1       21.557  31.114  55.205  0.00  0.00    +0.080 A 
BRANCH  16  21
ATOM     21  N   LIG    1       24.623  28.327  55.595  0.00  0.00    -0.357 N 
ATOM     22  H   LIG    1       24.846  27.970  56.468  0.00  0.00    +0.142 HD
ATOM     23  H   LIG    1       25.118  28.037  54.811  0.00  0.00    +0.142 HD
ENDBRANCH  16  21
BRANCH  14  25
ATOM     24  C   LIG    1       19.702  27.959  55.365  0.00  0.00    +0.277 C 
ATOM     25  O   LIG    1       19.979  29.323  55.041  0.00  0.00    -0.494 OA
ENDBRANCH  14  25
ENDBRANCH   1  20
TORSDOF 4
