REMARK VINA RESULT:      -5.0      2.945      4.337
REMARK  Name = ZINC00000848
REMARK                            x       y       z     vdW  Elec       q    Type
REMARK                         _______ _______ _______ _____ _____    ______ ____
ROOT
ATOM      1  C   LIG    1       20.811  33.247  55.558  0.00  0.00    +0.248 C 
ATOM      2  N   LIG    1       21.869  32.821  56.276  0.00  0.00    -0.310 N 
ATOM      3  H   LIG    1       21.989  33.123  57.189  0.00  0.00    +0.149 HD
ATOM      4  O   LIG    1       20.662  32.868  54.412  0.00  0.00    -0.270 OA
ENDROOT
BRANCH   2   5
ATOM      5  C   LIG    1       22.838  31.900  55.677  0.00  0.00    +0.060 C 
ATOM      6  C   LIG    1       24.242  32.221  56.199  0.00  0.00    -0.056 C 
ATOM      7  N   LIG    1       24.810  31.052  56.904  0.00  0.00    +0.381 N 
ATOM      8  H   LIG    1       25.749  31.292  57.244  0.00  0.00    -0.082 HD
ATOM      9  C   LIG    1       23.959  30.694  58.059  0.00  0.00    -0.078 C 
ATOM     10  C   LIG    1       22.547  30.331  57.589  0.00  0.00    -0.014 C 
ATOM     11  C   LIG    1       24.914  29.904  55.978  0.00  0.00    -0.078 C 
ATOM     12  C   LIG    1       23.530  29.518  55.449  0.00  0.00    -0.014 C 
ATOM     13  C   LIG    1       22.485  30.458  56.062  0.00  0.00    +0.004 C 
ENDBRANCH   2   5
BRANCH   1  20
ATOM     14  C   LIG    1       20.263  35.406  56.675  0.00  0.00    +0.134 A 
ATOM     15  C   LIG    1       19.339  36.271  57.234  0.00  0.00    +0.070 A 
ATOM     16  C   LIG    1       17.999  35.909  57.293  0.00  0.00    +0.047 A 
ATOM     17  C   LIG    1       17.580  34.682  56.780  0.00  0.00    +0.062 A 
ATOM     18 CL   LIG    1       15.903  34.241  56.854  0.00  0.00    -0.082 Cl
ATOM     19  C   LIG    1       18.484  33.823  56.221  0.00  0.00    +0.038 A 
ATOM     20  C   LIG    1       19.837  34.172  56.160  0.00  0.00    +0.080 A 
BRANCH  16  21
ATOM     21  N   LIG    1       17.071  36.776  57.860  0.00  0.00    -0.357 N 
ATOM     22  H   LIG    1       16.480  36.463  58.562  0.00  0.00    +0.142 HD
ATOM     23  H   LIG    1       17.015  37.696  57.554  0.00  0.00    +0.142 HD
ENDBRANCH  16  21
BRANCH  14  25
ATOM     24  C   LIG    1       22.201  36.122  57.849  0.00  0.00    +0.277 C 
ATOM     25  O   LIG    1       21.574  35.752  56.618  0.00  0.00    -0.494 OA
ENDBRANCH  14  25
ENDBRANCH   1  20
TORSDOF 4
