REMARK  Name = ZINC13588693
REMARK                            x       y       z     vdW  Elec       q    Type
REMARK                         _______ _______ _______ _____ _____    ______ ____
ROOT
ATOM      1  C   LIG    1        1.409   1.652  -0.003  0.00  0.00    +0.054 C 
ATOM      2  C   LIG    1       -0.013   1.086   0.008  0.00  0.00    +0.192 C 
ATOM      3  C   LIG    1       -0.839   1.637  -1.179  0.00  0.00    +0.161 C 
ATOM      4  N   LIG    1       -1.528   2.789  -0.565  0.00  0.00    -0.340 N 
ATOM      5  H   LIG    1       -2.060   3.643  -1.009  0.00  0.00    +0.164 HD
ATOM      6  C   LIG    1       -1.431   2.684   0.725  0.00  0.00    +0.254 C 
ATOM      7  O   LIG    1       -0.761   1.587   1.134  0.00  0.00    -0.462 OA
ENDROOT
BRANCH   6   8
ATOM      8  N   LIG    1       -1.963   3.605   1.594  0.00  0.00    -0.315 N 
ATOM      9  H   LIG    1       -2.500   4.482   1.204  0.00  0.00    +0.147 HD
ATOM     10  H   LIG    1       -1.852   3.465   2.679  0.00  0.00    +0.147 HD
ENDBRANCH   6   8
TORSDOF 1
