REMARK  Name = ZINC13641457
REMARK                            x       y       z     vdW  Elec       q    Type
REMARK                         _______ _______ _______ _____ _____    ______ ____
ROOT
ATOM      1  C   LIG    1        0.660  -0.418   0.963  0.00  0.00    -0.015 C 
ENDROOT
BRANCH   1   3
ATOM      2  C   LIG    1        0.608  -0.292  -1.532  0.00  0.00    -0.014 C 
ATOM      3  C   LIG    1        0.102   0.349  -0.238  0.00  0.00    -0.075 C 
BRANCH   3   4
ATOM      4  N   LIG    1        0.550   1.747  -0.177  0.00  0.00    +0.380 N 
ATOM      5  H   LIG    1        0.272   2.151   0.705  0.00  0.00    -0.090 HD
ATOM      6  H   LIG    1        0.130   2.268  -0.932  0.00  0.00    -0.090 HD
ATOM      7  H   LIG    1        1.554   1.783  -0.261  0.00  0.00    -0.090 HD
ENDBRANCH   3   4
ENDBRANCH   1   3
BRANCH   1   8
ATOM      8  C   LIG    1        0.041   0.131   2.250  0.00  0.00    +0.122 C 
BRANCH   8   9
ATOM      9  C   LIG    1       -1.433  -0.183   2.273  0.00  0.00    +0.305 C 
ATOM     10  O   LIG    1       -1.921  -0.882   1.401  0.00  0.00    -0.251 OA
BRANCH   9  11
ATOM     11  O   LIG    1       -2.137   0.262   3.163  0.00  0.00    -0.481 OA
ATOM     12  H   LIG    1       -1.762   0.800   3.833  0.00  0.00    +0.295 HD
ENDBRANCH   9  11
ENDBRANCH   8   9
ENDBRANCH   1   8
BRANCH   1  13
ATOM     13  C   LIG    1        2.179  -0.249   1.015  0.00  0.00    +0.005 C 
BRANCH  13  14
ATOM     14  C   LIG    1        2.751  -1.120   2.136  0.00  0.00    -0.017 C 
ATOM     15  C   LIG    1        4.253  -0.859   2.269  0.00  0.00    +0.007 C 
ATOM     16  C   LIG    1        2.517  -2.595   1.805  0.00  0.00    +0.007 C 
ENDBRANCH  13  14
ENDBRANCH   1  13
TORSDOF 7
