REMARK  Name = ZINC13586839
REMARK                            x       y       z     vdW  Elec       q    Type
REMARK                         _______ _______ _______ _____ _____    ______ ____
ROOT
ATOM      1  C   LIG    1       -2.628   3.019  -5.096  0.00  0.00    +0.001 A 
ATOM      2  C   LIG    1       -3.682   3.291  -4.239  0.00  0.00    +0.002 A 
ATOM      3  C   LIG    1       -3.618   3.029  -2.882  0.00  0.00    +0.026 A 
ATOM      4  C   LIG    1       -2.434   2.471  -2.402  0.00  0.00    +0.049 A 
ATOM      5  C   LIG    1       -1.359   2.196  -3.284  0.00  0.00    +0.000 A 
ATOM      6  C   LIG    1       -0.298   1.630  -2.467  0.00  0.00    +0.029 A 
ATOM      7  C   LIG    1       -0.756   1.593  -1.206  0.00  0.00    +0.003 A 
ATOM      8  C   LIG    1       -0.013   1.086   0.008  0.00  0.00    -0.028 C 
ATOM      9  N   LIG    1       -0.709   1.572   1.218  0.00  0.00    +0.384 N 
ATOM     10  H   LIG    1       -0.580   2.587   1.299  0.00  0.00    -0.085 HD
ATOM     11  H   LIG    1       -0.313   1.110   2.046  0.00  0.00    -0.085 HD
ATOM     12  C   LIG    1       -2.152   1.269   1.135  0.00  0.00    -0.060 C 
ATOM     13  C   LIG    1       -2.815   2.178   0.095  0.00  0.00    +0.103 C 
ATOM     14  N   LIG    1       -2.041   2.094  -1.154  0.00  0.00    -0.347 N 
ATOM     15  C   LIG    1       -1.450   2.471  -4.652  0.00  0.00    +0.010 A 
ENDROOT
TORSDOF 0
