REMARK  Name = ZINC13679213
REMARK                            x       y       z     vdW  Elec       q    Type
REMARK                         _______ _______ _______ _____ _____    ______ ____
ROOT
ATOM      1  N   LIG    1        1.789  -5.388   2.729  0.00  0.00    -0.303 N 
ATOM      2  C   LIG    1        0.504  -5.776   2.428  0.00  0.00    +0.166 A 
ATOM      3  C   LIG    1       -0.079  -4.699   1.740  0.00  0.00    +0.148 A 
ATOM      4  N   LIG    1        0.856  -3.719   1.659  0.00  0.00    -0.216 NA
ATOM      5  C   LIG    1       -1.407  -4.831   1.305  0.00  0.00    +0.147 A 
ATOM      6  N   LIG    1       -2.049  -5.966   1.563  0.00  0.00    -0.219 NA
ATOM      7  C   LIG    1       -1.459  -6.952   2.213  0.00  0.00    +0.225 A 
ATOM      8  N   LIG    1       -0.216  -6.872   2.640  0.00  0.00    -0.216 NA
ATOM      9  C   LIG    1        1.958  -4.120   2.243  0.00  0.00    +0.176 A 
ENDROOT
BRANCH   5  10
ATOM     10  N   LIG    1       -2.035  -3.802   0.622  0.00  0.00    -0.341 N 
ATOM     11  H   LIG    1       -2.953  -3.905   0.326  0.00  0.00    +0.144 HD
ATOM     12  H   LIG    1       -2.057  -2.984   1.198  0.00  0.00    +0.144 HD
ENDBRANCH   5  10
BRANCH   1  13
ATOM     13  C   LIG    1        2.791  -6.184   3.442  0.00  0.00    +0.124 C 
BRANCH  13  14
ATOM     14  C   LIG    1        2.679  -5.920   4.944  0.00  0.00    +0.003 C 
BRANCH  14  15
ATOM     15  C   LIG    1        3.725  -6.752   5.688  0.00  0.00    -0.081 C 
BRANCH  15  16
ATOM     16  N   LIG    1        3.611  -6.491   7.136  0.00  0.00    +0.381 N 
ATOM     17  H   LIG    1        2.669  -6.750   7.453  0.00  0.00    -0.086 HD
ATOM     18  H   LIG    1        3.768  -5.492   7.313  0.00  0.00    -0.086 HD
BRANCH  16  20
ATOM     19  C   LIG    1        5.939  -6.524   7.912  0.00  0.00    -0.014 C 
ATOM     20  C   LIG    1        4.610  -7.281   7.879  0.00  0.00    -0.078 C 
ATOM     21  C   LIG    1        4.113  -7.501   9.309  0.00  0.00    -0.014 C 
ENDBRANCH  16  20
ENDBRANCH  15  16
ENDBRANCH  14  15
ENDBRANCH  13  14
ENDBRANCH   1  13
BRANCH   9  22
ATOM     22  S   LIG    1        3.437  -3.171   2.376  0.00  0.00    -0.050 S 
BRANCH  22  23
ATOM     23  C   LIG    1        2.987  -1.766   1.413  0.00  0.00    +0.032 A 
ATOM     24  C   LIG    1        2.641  -0.576   2.040  0.00  0.00    +0.065 A 
ATOM     25  C   LIG    1        2.288   0.527   1.282  0.00  0.00    +0.167 A 
ATOM     26  C   LIG    1        2.281   0.443  -0.108  0.00  0.00    +0.167 A 
ATOM     27  O   LIG    1        1.902   1.652  -0.617  0.00  0.00    -0.453 OA
ATOM     28  C   LIG    1        2.072   2.593   0.460  0.00  0.00    +0.466 C 
ATOM     29  C   LIG    1        2.628  -0.746  -0.730  0.00  0.00    +0.065 A 
ATOM     30  O   LIG    1        1.913   1.789   1.644  0.00  0.00    -0.453 OA
ATOM     31  C   LIG    1        2.980  -1.848   0.026  0.00  0.00    +0.031 A 
ATOM     32  I   LIG    1        3.503  -3.643  -0.919  0.00  0.00    -0.043 I 
ENDBRANCH  22  23
ENDBRANCH   9  22
TORSDOF 8
