REMARK  Name = ZINC13579814
REMARK                            x       y       z     vdW  Elec       q    Type
REMARK                         _______ _______ _______ _____ _____    ______ ____
ROOT
ATOM      1  C   LIG    1        1.778  -2.859  -2.078  0.00  0.00    +0.401 C 
ATOM      2  N   LIG    1        1.186  -4.025  -2.186  0.00  0.00    -0.071 NA
ENDROOT
BRANCH   2   3
ATOM      3  C   LIG    1        1.452  -4.831  -3.262  0.00  0.00    +0.160 A 
ATOM      4  C   LIG    1        2.033  -6.092  -3.081  0.00  0.00    +0.049 A 
ATOM      5  C   LIG    1        2.280  -6.866  -4.200  0.00  0.00    +0.023 A 
ATOM      6  C   LIG    1        1.949  -6.375  -5.451  0.00  0.00    +0.111 A 
ATOM      7  N   LIG    1        1.402  -5.183  -5.591  0.00  0.00    -0.260 NA
ATOM      8  C   LIG    1        1.141  -4.411  -4.557  0.00  0.00    +0.156 A 
ENDBRANCH   2   3
BRANCH   1   9
ATOM      9  N   LIG    1        1.298  -1.926  -1.194  0.00  0.00    -0.270 N 
ATOM     10  H   LIG    1        0.483  -2.101  -0.698  0.00  0.00    +0.258 HD
BRANCH   9  11
ATOM     11  C   LIG    1        2.017  -0.664  -0.999  0.00  0.00    +0.081 C 
ATOM     12  C   LIG    1        3.474  -0.958  -0.637  0.00  0.00    +0.051 C 
ATOM     13  C   LIG    1        1.968   0.155  -2.291  0.00  0.00    +0.051 C 
BRANCH  11  15
ATOM     14  C   LIG    1        2.110   1.446   0.336  0.00  0.00    +0.007 C 
ATOM     15  C   LIG    1        1.359   0.128   0.133  0.00  0.00    +0.040 C 
ENDBRANCH  11  15
ENDBRANCH   9  11
ENDBRANCH   1   9
BRANCH   1  16
ATOM     16  N   LIG    1        2.881  -2.573  -2.851  0.00  0.00    -0.177 N 
ATOM     17  H   LIG    1        3.256  -1.678  -2.847  0.00  0.00    +0.278 HD
BRANCH  16  18
ATOM     18  C   LIG    1        3.441  -3.540  -3.617  0.00  0.00    +0.255 C 
ATOM     19  N   LIG    1        3.911  -4.351  -4.259  0.00  0.00    -0.154 NA
ENDBRANCH  16  18
ENDBRANCH   1  16
TORSDOF 6
