REMARK  Name = ZINC13588691
REMARK                            x       y       z     vdW  Elec       q    Type
REMARK                         _______ _______ _______ _____ _____    ______ ____
ROOT
ATOM      1  C   LIG    1       -0.759   3.495   0.018  0.00  0.00    +0.162 C 
ATOM      2  C   LIG    1        0.733   3.456  -0.395  0.00  0.00    +0.206 C 
ATOM      3  O   LIG    1        1.103   2.120   0.003  0.00  0.00    -0.461 OA
ATOM      4  C   LIG    1       -0.017   1.369   0.010  0.00  0.00    +0.254 C 
ATOM      5  N   LIG    1       -1.113   2.062   0.018  0.00  0.00    -0.340 N 
ATOM      6  H   LIG    1       -2.087   1.551   0.024  0.00  0.00    +0.164 HD
ENDROOT
BRANCH   4   7
ATOM      7  N   LIG    1        0.002  -0.004   0.002  0.00  0.00    -0.315 N 
ATOM      8  H   LIG    1        0.962  -0.541  -0.010  0.00  0.00    +0.147 HD
ATOM      9  H   LIG    1       -0.943  -0.567   0.008  0.00  0.00    +0.147 HD
ENDBRANCH   4   7
BRANCH   2  10
ATOM     10  C   LIG    1        1.543   4.503   0.373  0.00  0.00    +0.126 C 
ATOM     11 BR   LIG    1        3.434   4.379  -0.149  0.00  0.00    -0.088 Br
ENDBRANCH   2  10
TORSDOF 2
