REMARK  Name = ZINC13676003
REMARK                            x       y       z     vdW  Elec       q    Type
REMARK                         _______ _______ _______ _____ _____    ______ ____
ROOT
ATOM      1  C   LIG    1       -0.753   1.593  -1.232  0.00  0.00    +0.041 C 
ENDROOT
BRANCH   1   2
ATOM      2  C   LIG    1       -0.013   1.086   0.008  0.00  0.00    +0.229 C 
BRANCH   2   3
ATOM      3  O   LIG    1       -0.682   1.547   1.184  0.00  0.00    -0.492 OA
BRANCH   3   8
ATOM      4  C   LIG    1       -0.207   1.225   4.778  0.00  0.00    -0.040 A 
ATOM      5  C   LIG    1        0.931   0.442   4.820  0.00  0.00    +0.049 A 
ATOM      6  C   LIG    1        1.533   0.026   3.642  0.00  0.00    +0.121 A 
ATOM      7  C   LIG    1        0.990   0.393   2.420  0.00  0.00    +0.091 A 
ATOM      8  C   LIG    1       -0.149   1.182   2.380  0.00  0.00    +0.124 A 
ATOM      9  C   LIG    1       -0.748   1.595   3.562  0.00  0.00    +0.049 A 
BRANCH   6  10
ATOM     10  O   LIG    1        2.652  -0.745   3.684  0.00  0.00    -0.507 OA
ATOM     11  H   LIG    1        2.474  -1.695   3.697  0.00  0.00    +0.292 HD
ENDBRANCH   6  10
BRANCH   4  12
ATOM     12  C   LIG    1       -0.859   1.675   6.059  0.00  0.00    +0.035 C 
BRANCH  12  13
ATOM     13  C   LIG    1       -1.897   0.638   6.495  0.00  0.00    +0.005 C 
BRANCH  13  14
ATOM     14  C   LIG    1       -2.559   1.095   7.796  0.00  0.00    +0.000 C 
BRANCH  14  16
ATOM     15  C   LIG    1       -4.259   0.516   9.533  0.00  0.00    +0.004 C 
ATOM     16  C   LIG    1       -3.597   0.059   8.232  0.00  0.00    -0.003 C 
ENDBRANCH  14  16
ENDBRANCH  13  14
ENDBRANCH  12  13
ENDBRANCH   4  12
ENDBRANCH   3   8
ENDBRANCH   2   3
ENDBRANCH   1   2
BRANCH   1  17
ATOM     17  C   LIG    1       -0.037   1.099  -2.490  0.00  0.00    +0.003 C 
BRANCH  17  18
ATOM     18  C   LIG    1       -0.777   1.606  -3.730  0.00  0.00    +0.000 C 
BRANCH  18  19
ATOM     19  C   LIG    1       -0.060   1.113  -4.989  0.00  0.00    +0.000 C 
BRANCH  19  20
ATOM     20  C   LIG    1       -0.800   1.619  -6.228  0.00  0.00    +0.000 C 
BRANCH  20  21
ATOM     21  C   LIG    1       -0.084   1.126  -7.487  0.00  0.00    +0.000 C 
BRANCH  21  22
ATOM     22  C   LIG    1       -0.824   1.633  -8.726  0.00  0.00    +0.000 C 
BRANCH  22  23
ATOM     23  C   LIG    1       -0.108   1.139  -9.985  0.00  0.00    +0.009 C 
BRANCH  23  24
ATOM     24  C   LIG    1       -0.848   1.646 -11.225  0.00  0.00    +0.096 C 
BRANCH  24  25
ATOM     25  C   LIG    1       -0.143   1.160 -12.465  0.00  0.00    +0.213 C 
ATOM     26  N   LIG    1       -0.619   1.486 -13.683  0.00  0.00    -0.312 N 
ATOM     27  H   LIG    1       -1.416   2.034 -13.761  0.00  0.00    +0.149 HD
ATOM     28  O   LIG    1        0.854   0.476 -12.367  0.00  0.00    -0.276 OA
BRANCH  26  29
ATOM     29  C   LIG    1        0.067   1.014 -14.888  0.00  0.00    +0.073 C 
ATOM     30  C   LIG    1        0.263   2.016 -16.027  0.00  0.00    +0.024 C 
ATOM     31  C   LIG    1       -0.762   0.887 -16.168  0.00  0.00    +0.024 C 
ENDBRANCH  26  29
ENDBRANCH  24  25
ENDBRANCH  23  24
ENDBRANCH  22  23
ENDBRANCH  21  22
ENDBRANCH  20  21
ENDBRANCH  19  20
ENDBRANCH  18  19
ENDBRANCH  17  18
ENDBRANCH   1  17
TORSDOF 18
