REMARK  Name = ZINC13588705
REMARK                            x       y       z     vdW  Elec       q    Type
REMARK                         _______ _______ _______ _____ _____    ______ ____
ROOT
ATOM      1  C   LIG    1       -3.404   1.970  -0.379  0.00  0.00    +0.198 C 
ATOM      2  C   LIG    1       -2.725   3.302   0.025  0.00  0.00    +0.121 C 
ATOM      3  C   LIG    1       -3.006   4.393  -1.010  0.00  0.00    +0.034 C 
ATOM      4  N   LIG    1       -1.297   2.931   0.030  0.00  0.00    -0.338 N 
ATOM      5  H   LIG    1       -0.383   3.543   0.042  0.00  0.00    +0.164 HD
ATOM      6  C   LIG    1       -1.210   1.636   0.017  0.00  0.00    +0.254 C 
ATOM      7  O   LIG    1       -2.403   1.010   0.019  0.00  0.00    -0.462 OA
ENDROOT
BRANCH   6   8
ATOM      8  N   LIG    1       -0.011   0.966   0.007  0.00  0.00    -0.315 N 
ATOM      9  H   LIG    1        0.934   1.529   0.011  0.00  0.00    +0.147 HD
ATOM     10  H   LIG    1        0.004  -0.134  -0.004  0.00  0.00    +0.147 HD
ENDBRANCH   6   8
BRANCH   1  12
ATOM     11  C   LIG    1       -4.285   0.568  -2.250  0.00  0.00    +0.007 C 
ATOM     12  C   LIG    1       -3.651   1.913  -1.888  0.00  0.00    +0.043 C 
ENDBRANCH   1  12
TORSDOF 2
