REMARK  Name = ZINC13680188
REMARK                            x       y       z     vdW  Elec       q    Type
REMARK                         _______ _______ _______ _____ _____    ______ ____
ROOT
ATOM      1  C   LIG    1        5.325  -1.595   1.467  0.00  0.00    +0.161 A 
ATOM      2  C   LIG    1        6.061  -2.003   0.363  0.00  0.00    +0.051 A 
ATOM      3  C   LIG    1        7.253  -2.681   0.578  0.00  0.00    +0.023 A 
ATOM      4  C   LIG    1        7.668  -2.927   1.872  0.00  0.00    +0.113 A 
ATOM      5  N   LIG    1        6.948  -2.527   2.903  0.00  0.00    -0.237 NA
ATOM      6  C   LIG    1        5.809  -1.874   2.744  0.00  0.00    +0.168 A 
ENDROOT
BRANCH   6   7
ATOM      7  N   LIG    1        5.084  -1.465   3.864  0.00  0.00    -0.251 N 
ATOM      8  H   LIG    1        4.246  -0.989   3.752  0.00  0.00    +0.158 HD
ATOM      9  C   LIG    1        5.547  -1.732   5.101  0.00  0.00    +0.309 C 
ATOM     10  N   LIG    1        4.846  -1.337   6.183  0.00  0.00    -0.269 N 
ATOM     11  H   LIG    1        4.043  -0.804   6.073  0.00  0.00    +0.156 HD
ATOM     12  O   LIG    1        6.597  -2.329   5.242  0.00  0.00    -0.252 OA
BRANCH  10  13
ATOM     13  C   LIG    1        5.276  -1.698   7.465  0.00  0.00    +0.035 A 
ATOM     14  C   LIG    1        4.346  -1.981   8.457  0.00  0.00    +0.023 A 
ATOM     15  C   LIG    1        4.774  -2.336   9.721  0.00  0.00    +0.002 A 
ATOM     16  C   LIG    1        6.126  -2.410  10.000  0.00  0.00    +0.000 A 
ATOM     17  C   LIG    1        7.054  -2.128   9.015  0.00  0.00    +0.002 A 
ATOM     18  C   LIG    1        6.633  -1.779   7.747  0.00  0.00    +0.023 A 
ENDBRANCH  10  13
ENDBRANCH   6   7
BRANCH   1  19
ATOM     19  O   LIG    1        4.151  -0.927   1.304  0.00  0.00    -0.484 OA
BRANCH  19  20
ATOM     20  C   LIG    1        3.725  -0.681  -0.037  0.00  0.00    +0.264 C 
BRANCH  20  24
ATOM     21  C   LIG    1        0.011   1.429   0.010  0.00  0.00    +0.000 A 
ATOM     22  C   LIG    1        1.204   2.128   0.007  0.00  0.00    +0.000 A 
ATOM     23  C   LIG    1        2.405   1.446  -0.009  0.00  0.00    +0.007 A 
ATOM     24  C   LIG    1        2.415   0.063  -0.020  0.00  0.00    -0.010 A 
ATOM     25  C   LIG    1        1.222  -0.636  -0.015  0.00  0.00    +0.007 A 
ATOM     26  C   LIG    1        0.021   0.047  -0.001  0.00  0.00    +0.000 A 
ENDBRANCH  20  24
ENDBRANCH  19  20
ENDBRANCH   1  19
TORSDOF 5
