REMARK  Name = ZINC13597510
REMARK                            x       y       z     vdW  Elec       q    Type
REMARK                         _______ _______ _______ _____ _____    ______ ____
ROOT
ATOM      1  N   LIG    1        1.447  -4.746  -0.032  0.00  0.00    -0.306 N 
ATOM      2  C   LIG    1        2.187  -4.987  -1.181  0.00  0.00    +0.055 A 
ATOM      3  C   LIG    1        1.884  -4.874  -2.533  0.00  0.00    +0.026 A 
ATOM      4  C   LIG    1        2.836  -5.189  -3.482  0.00  0.00    +0.002 A 
ATOM      5  C   LIG    1        4.096  -5.619  -3.101  0.00  0.00    +0.001 A 
ATOM      6  C   LIG    1        4.413  -5.737  -1.763  0.00  0.00    +0.012 A 
ATOM      7  C   LIG    1        3.463  -5.422  -0.799  0.00  0.00    +0.032 A 
ATOM      8  C   LIG    1        3.464  -5.434   0.681  0.00  0.00    +0.176 A 
ATOM      9  C   LIG    1        2.173  -4.995   1.070  0.00  0.00    +0.224 A 
ENDROOT
BRANCH   8  10
ATOM     10  N   LIG    1        4.458  -5.778   1.473  0.00  0.00    -0.025 NA
ATOM     11  O   LIG    1        4.316  -5.740   2.682  0.00  0.00    -0.143 OA
ENDBRANCH   8  10
BRANCH   9  12
ATOM     12  O   LIG    1        1.744  -4.855   2.337  0.00  0.00    -0.492 OA
ATOM     13  H   LIG    1        1.336  -5.650   2.705  0.00  0.00    +0.294 HD
ENDBRANCH   9  12
BRANCH   1  14
ATOM     14  C   LIG    1        0.059  -4.275  -0.021  0.00  0.00    +0.160 C 
BRANCH  14  19
ATOM     15  C   LIG    1       -0.018   1.503   0.010  0.00  0.00    +0.044 C 
ATOM     16  C   LIG    1        0.002  -0.004   0.002  0.00  0.00    -0.050 A 
ATOM     17  C   LIG    1        0.006  -0.689  -1.199  0.00  0.00    +0.004 A 
ATOM     18  C   LIG    1        0.025  -2.071  -1.206  0.00  0.00    +0.005 A 
ATOM     19  C   LIG    1        0.040  -2.768  -0.013  0.00  0.00    -0.028 A 
ATOM     20  C   LIG    1        0.037  -2.084   1.188  0.00  0.00    +0.005 A 
ATOM     21  C   LIG    1        0.023  -0.702   1.195  0.00  0.00    +0.004 A 
ENDBRANCH  14  19
ENDBRANCH   1  14
TORSDOF 4
