REMARK  Name = ZINC13642369
REMARK                            x       y       z     vdW  Elec       q    Type
REMARK                         _______ _______ _______ _____ _____    ______ ____
ROOT
ATOM      1  C   LIG    1        7.949  -3.096   1.237  0.00  0.00    +0.247 C 
ATOM      2  N   LIG    1        8.807  -2.291   0.581  0.00  0.00    -0.281 N 
ATOM      3  C   LIG    1        8.762  -0.832   0.762  0.00  0.00    +0.124 C 
ATOM      4  C   LIG    1        8.705  -0.171  -0.620  0.00  0.00    +0.100 C 
ATOM      5  N   LIG    1        9.821  -0.661  -1.440  0.00  0.00    -0.301 NA
ATOM      6  H   LIG    1        9.878  -0.157  -2.312  0.00  0.00    +0.123 HD
ATOM      7  CA  LIG    1        9.715  -2.107  -1.675  0.00  0.00    +0.195 C 
ATOM      8  C   LIG    1        9.818  -2.848  -0.331  0.00  0.00    +0.213 C 
ATOM      9  O   LIG    1        8.036  -4.303   1.118  0.00  0.00    -0.270 OA
ENDROOT
BRANCH   1  19
ATOM     10  C   LIG    1        1.895   0.207   6.184  0.00  0.00    +0.001 A 
ATOM     11  C   LIG    1        3.076   0.918   6.001  0.00  0.00    +0.001 A 
ATOM     12  C   LIG    1        4.075   0.421   5.214  0.00  0.00    +0.009 A 
ATOM     13  C   LIG    1        3.910  -0.815   4.585  0.00  0.00    -0.010 A 
ATOM     14  C   LIG    1        2.712  -1.541   4.769  0.00  0.00    -0.017 A 
ATOM     15  C   LIG    1        2.541  -2.792   4.132  0.00  0.00    +0.009 A 
ATOM     16  C   LIG    1        3.502  -3.317   3.346  0.00  0.00    +0.009 A 
ATOM     17  C   LIG    1        4.724  -2.640   3.122  0.00  0.00    -0.017 A 
ATOM     18  C   LIG    1        5.712  -3.199   2.303  0.00  0.00    +0.021 A 
ATOM     19  C   LIG    1        6.902  -2.512   2.102  0.00  0.00    +0.038 A 
ATOM     20  C   LIG    1        7.116  -1.268   2.712  0.00  0.00    +0.014 A 
ATOM     21  C   LIG    1        6.162  -0.714   3.511  0.00  0.00    +0.010 A 
ATOM     22  C   LIG    1        4.956  -1.385   3.731  0.00  0.00    -0.010 A 
ATOM     23  C   LIG    1        1.705  -1.002   5.583  0.00  0.00    +0.008 A 
ENDBRANCH   1  19
BRANCH   7  24
ATOM     24  C   LIG    1       10.835  -2.553  -2.580  0.00  0.00    +0.324 C 
ATOM     25  O   LIG    1       11.746  -1.788  -2.844  0.00  0.00    -0.249 OA
BRANCH  24  26
ATOM     26  OXT LIG    1       10.829  -3.679  -3.047  0.00  0.00    -0.479 OA
ATOM     27  HXT LIG    1       10.128  -4.267  -2.844  0.00  0.00    +0.295 HD
ENDBRANCH  24  26
ENDBRANCH   7  24
BRANCH   8  28
ATOM     28  C   LIG    1        9.556  -4.317  -0.540  0.00  0.00    +0.328 C 
ATOM     29  O   LIG    1        8.509  -4.682  -1.019  0.00  0.00    -0.249 OA
BRANCH  28  30
ATOM     30  O   LIG    1       10.487  -5.220  -0.194  0.00  0.00    -0.479 OA
ATOM     31  H   LIG    1       10.229  -6.136  -0.365  0.00  0.00    +0.295 HD
ENDBRANCH  28  30
ENDBRANCH   8  28
TORSDOF 5
