REMARK  Name = ZINC13643089
REMARK                            x       y       z     vdW  Elec       q    Type
REMARK                         _______ _______ _______ _____ _____    ______ ____
ROOT
ATOM      1  C   LIG    1        1.188  -3.076   0.085  0.00  0.00    +0.000 C 
ATOM      2  C   LIG    1        2.001  -1.874   0.568  0.00  0.00    +0.001 C 
ATOM      3  C   LIG    1        1.426  -0.591  -0.041  0.00  0.00    +0.008 C 
ATOM      4  C   LIG    1       -0.056  -0.486   0.332  0.00  0.00    -0.014 C 
ATOM      5  C   LIG    1       -0.415   0.273   1.609  0.00  0.00    +0.024 C 
ATOM      6  C   LIG    1       -0.902  -1.710  -0.030  0.00  0.00    +0.008 C 
ATOM      7  C   LIG    1       -0.717   0.889   0.241  0.00  0.00    +0.058 C 
ATOM      8  C   LIG    1       -0.255  -2.958   0.578  0.00  0.00    +0.001 C 
ENDROOT
BRANCH   7   9
ATOM      9  C   LIG    1        0.141   2.045  -0.206  0.00  0.00    +0.310 C 
ATOM     10  O   LIG    1        0.702   2.003  -1.276  0.00  0.00    -0.250 OA
BRANCH   9  11
ATOM     11  O   LIG    1        0.281   3.121   0.583  0.00  0.00    -0.480 OA
ATOM     12  H   LIG    1       -0.154   3.154   1.413  0.00  0.00    +0.295 HD
ENDBRANCH   9  11
ENDBRANCH   7   9
BRANCH   7  13
ATOM     13  C   LIG    1       -2.180   0.943  -0.203  0.00  0.00    -0.068 C 
BRANCH  13  14
ATOM     14  N   LIG    1       -2.961   1.663   0.818  0.00  0.00    +0.379 N 
ATOM     15  H   LIG    1       -2.772   1.252   1.740  0.00  0.00    -0.090 HD
ATOM     16  H   LIG    1       -3.957   1.583   0.616  0.00  0.00    -0.090 HD
ATOM     17  H   LIG    1       -2.696   2.646   0.831  0.00  0.00    -0.090 HD
ENDBRANCH  13  14
ENDBRANCH   7  13
TORSDOF 4
