REMARK  Name = ZINC13559595
REMARK                            x       y       z     vdW  Elec       q    Type
REMARK                         _______ _______ _______ _____ _____    ______ ____
ROOT
ATOM      1  C   LIG    1       -0.020   1.457  -0.043  0.00  0.00    +0.173 C 
ATOM      2  N   LIG    1       -0.003  -0.008  -0.049  0.00  0.00    -0.267 N 
ATOM      3  C   LIG    1       -1.149  -0.716   0.080  0.00  0.00    +0.183 A 
ATOM      4  S   LIG    1       -0.614  -2.309   0.014  0.00  0.00    -0.013 S 
ATOM      5  C   LIG    1        1.130  -2.001  -0.184  0.00  0.00    +0.228 A 
ATOM      6  N   LIG    1       -2.394  -0.263   0.223  0.00  0.00    -0.151 NA
ATOM      7  N   LIG    1        1.181  -0.700  -0.191  0.00  0.00    -0.273 N 
ATOM      8  H   LIG    1        2.025  -0.232  -0.290  0.00  0.00    +0.189 HD
ENDROOT
BRANCH   5   9
ATOM      9  S   LIG    1        2.448  -3.161  -0.337  0.00  0.00    +0.079 S 
ATOM     10  O   LIG    1        3.630  -2.405  -0.561  0.00  0.00    -0.151 OA
ATOM     11  O   LIG    1        2.002  -4.165  -1.239  0.00  0.00    -0.151 OA
BRANCH   9  12
ATOM     12  N   LIG    1        2.628  -3.895   1.136  0.00  0.00    -0.202 NA
ATOM     13  H   LIG    1        1.734  -4.333   1.358  0.00  0.00    +0.144 HD
ATOM     14  H   LIG    1        3.310  -4.574   1.260  0.00  0.00    +0.144 HD
ENDBRANCH   9  12
ENDBRANCH   5   9
BRANCH   6  15
ATOM     15  C   LIG    1       -2.640   1.047   0.150  0.00  0.00    +0.269 C 
ATOM     16  O   LIG    1       -2.624   1.727   1.162  0.00  0.00    -0.268 OA
BRANCH  15  17
ATOM     17  C   LIG    1       -2.932   1.674  -1.160  0.00  0.00    +0.039 A 
ATOM     18  C   LIG    1       -2.957   0.897  -2.318  0.00  0.00    +0.013 A 
ATOM     19  C   LIG    1       -3.230   1.487  -3.535  0.00  0.00    +0.001 A 
ATOM     20  C   LIG    1       -3.479   2.846  -3.608  0.00  0.00    +0.000 A 
ATOM     21  C   LIG    1       -3.456   3.622  -2.463  0.00  0.00    +0.001 A 
ATOM     22  C   LIG    1       -3.190   3.042  -1.239  0.00  0.00    +0.013 A 
ENDBRANCH  15  17
ENDBRANCH   6  15
TORSDOF 4
