REMARK  Name = ZINC13643083
REMARK                            x       y       z     vdW  Elec       q    Type
REMARK                         _______ _______ _______ _____ _____    ______ ____
ROOT
ATOM      1  C   LIG    1        0.186   5.824  -0.325  0.00  0.00    +0.001 C 
ATOM      2  C   LIG    1        1.370   5.701  -1.316  0.00  0.00    +0.001 C 
ATOM      3  C   LIG    1        2.174   4.488  -0.799  0.00  0.00    +0.008 C 
ATOM      4  C   LIG    1        1.192   3.632   0.013  0.00  0.00    -0.014 C 
ATOM      5  C   LIG    1        1.645   2.890   1.266  0.00  0.00    +0.024 C 
ATOM      6  C   LIG    1        1.279   2.109   0.001  0.00  0.00    +0.058 C 
ATOM      7  C   LIG    1       -0.172   4.345  -0.031  0.00  0.00    +0.008 C 
ENDROOT
BRANCH   6   8
ATOM      8  C   LIG    1       -0.016   1.338   0.009  0.00  0.00    +0.310 C 
ATOM      9  O   LIG    1       -1.071   1.928   0.018  0.00  0.00    -0.250 OA
BRANCH   8  10
ATOM     10  O   LIG    1        0.002  -0.004   0.002  0.00  0.00    -0.480 OA
ATOM     11  H   LIG    1        0.820  -0.462  -0.004  0.00  0.00    +0.295 HD
ENDBRANCH   8  10
ENDBRANCH   6   8
BRANCH   6  12
ATOM     12  C   LIG    1        2.421   1.472  -0.792  0.00  0.00    -0.068 C 
BRANCH  12  13
ATOM     13  N   LIG    1        2.317   0.006  -0.690  0.00  0.00    +0.379 N 
ATOM     14  H   LIG    1        1.427  -0.298  -1.102  0.00  0.00    -0.090 HD
ATOM     15  H   LIG    1        2.346  -0.280   0.287  0.00  0.00    -0.090 HD
ATOM     16  H   LIG    1        3.084  -0.435  -1.195  0.00  0.00    -0.090 HD
ENDBRANCH  12  13
ENDBRANCH   6  12
TORSDOF 4
