REMARK  Name = ZINC13661921
REMARK                            x       y       z     vdW  Elec       q    Type
REMARK                         _______ _______ _______ _____ _____    ______ ____
ROOT
ATOM      1  C   LIG    1        7.710   4.704   2.037  0.00  0.00    +0.028 C 
ATOM      2  C   LIG    1        6.919   4.228   1.042  0.00  0.00    +0.078 C 
ATOM      3  C   LIG    1        5.704   3.393   1.122  0.00  0.00    +0.263 C 
ATOM      4  N   LIG    1        5.128   3.073  -0.024  0.00  0.00    -0.224 N 
ATOM      5  C   LIG    1        5.630   3.487  -1.205  0.00  0.00    +0.125 C 
ATOM      6  S   LIG    1        5.037   3.176  -2.780  0.00  0.00    -0.027 S 
ATOM      7  O   LIG    1        5.256   3.017   2.190  0.00  0.00    -0.269 OA
ATOM      8  S   LIG    1        7.062   4.441  -0.728  0.00  0.00    -0.061 S 
ENDROOT
BRANCH   1  11
ATOM      9  C   LIG    1       10.803   5.758   0.198  0.00  0.00    +0.162 A 
ATOM     10  C   LIG    1        9.619   5.115   0.499  0.00  0.00    +0.057 A 
ATOM     11  C   LIG    1        8.972   5.380   1.713  0.00  0.00    -0.020 A 
ATOM     12  C   LIG    1        9.536   6.288   2.618  0.00  0.00    +0.012 A 
ATOM     13  C   LIG    1       10.720   6.920   2.310  0.00  0.00    +0.050 A 
ATOM     14  C   LIG    1       11.358   6.660   1.105  0.00  0.00    +0.158 A 
BRANCH   9  16
ATOM     15  C   LIG    1       10.808   4.570  -1.862  0.00  0.00    +0.277 C 
ATOM     16  O   LIG    1       11.432   5.506  -0.981  0.00  0.00    -0.491 OA
ENDBRANCH   9  16
BRANCH  14  17
ATOM     17  O   LIG    1       12.526   7.287   0.807  0.00  0.00    -0.503 OA
ATOM     18  H   LIG    1       13.314   6.811   1.101  0.00  0.00    +0.292 HD
ENDBRANCH  14  17
ENDBRANCH   1  11
BRANCH   4  19
ATOM     19  C   LIG    1        3.970   2.280  -0.011  0.00  0.00    +0.043 A 
ATOM     20  C   LIG    1        2.747   2.832  -0.365  0.00  0.00    +0.027 A 
ATOM     21  C   LIG    1        1.608   2.052  -0.353  0.00  0.00    +0.047 A 
ATOM     22  C   LIG    1        1.686   0.716   0.012  0.00  0.00    +0.117 A 
ATOM     23  C   LIG    1        2.908   0.165   0.371  0.00  0.00    +0.047 A 
ATOM     24  C   LIG    1        4.048   0.943   0.354  0.00  0.00    +0.027 A 
BRANCH  22  25
ATOM     25  O   LIG    1        0.565  -0.053   0.023  0.00  0.00    -0.507 OA
ATOM     26  H   LIG    1        0.384  -0.497  -0.817  0.00  0.00    +0.292 HD
ENDBRANCH  22  25
ENDBRANCH   4  19
TORSDOF 5
