REMARK  Name = ZINC13672828
REMARK                            x       y       z     vdW  Elec       q    Type
REMARK                         _______ _______ _______ _____ _____    ______ ____
ROOT
ATOM      1  N   LIG    1        2.169   1.079  -0.247  0.00  0.00    -0.347 N 
ATOM      2  C   LIG    1        1.406   2.175  -0.024  0.00  0.00    +0.098 A 
ATOM      3  C   LIG    1        0.085   1.853  -0.161  0.00  0.00    +0.047 A 
ATOM      4  C   LIG    1        0.038   0.419  -0.500  0.00  0.00    +0.011 A 
ATOM      5  C   LIG    1       -0.992  -0.480  -0.759  0.00  0.00    +0.011 A 
ATOM      6  C   LIG    1       -0.694  -1.793  -1.054  0.00  0.00    +0.001 A 
ATOM      7  C   LIG    1        0.625  -2.219  -1.094  0.00  0.00    +0.002 A 
ATOM      8  C   LIG    1        1.655  -1.339  -0.840  0.00  0.00    +0.026 A 
ATOM      9  C   LIG    1        1.375  -0.010  -0.540  0.00  0.00    +0.050 A 
ENDROOT
BRANCH   3  10
ATOM     10  C   LIG    1       -1.060   2.758  -0.005  0.00  0.00    +0.196 C 
ATOM     11  O   LIG    1       -1.320   3.566  -0.878  0.00  0.00    -0.287 OA
BRANCH  10  12
ATOM     12  C   LIG    1       -1.898   2.688   1.210  0.00  0.00    +0.035 A 
ATOM     13  C   LIG    1       -1.530   1.855   2.269  0.00  0.00    +0.013 A 
ATOM     14  C   LIG    1       -2.313   1.798   3.402  0.00  0.00    +0.001 A 
ATOM     15  C   LIG    1       -3.469   2.555   3.488  0.00  0.00    +0.001 A 
ATOM     16  C   LIG    1       -3.844   3.378   2.441  0.00  0.00    +0.015 A 
ATOM     17  C   LIG    1       -3.066   3.449   1.302  0.00  0.00    +0.024 A 
ATOM     18  I   LIG    1       -3.635   4.695  -0.283  0.00  0.00    -0.043 I 
ENDBRANCH  10  12
ENDBRANCH   3  10
BRANCH   1  19
ATOM     19  C   LIG    1        3.633   1.054  -0.186  0.00  0.00    +0.106 C 
BRANCH  19  23
ATOM     20  C   LIG    1        6.112  -0.074  -0.893  0.00  0.00    -0.096 C 
ATOM     21  N   LIG    1        5.681   1.192  -1.521  0.00  0.00    +0.381 N 
ATOM     22  H   LIG    1        6.014   1.978  -0.950  0.00  0.00    -0.082 HD
ATOM     23  C   LIG    1        4.205   1.243  -1.593  0.00  0.00    -0.049 C 
ATOM     24  C   LIG    1        3.781   2.610  -2.136  0.00  0.00    -0.014 C 
ATOM     25  C   LIG    1        4.372   2.803  -3.535  0.00  0.00    -0.003 C 
ATOM     26  C   LIG    1        5.896   2.674  -3.459  0.00  0.00    -0.019 C 
ATOM     27  C   LIG    1        6.259   1.306  -2.877  0.00  0.00    -0.079 C 
ENDBRANCH  19  23
ENDBRANCH   1  19
TORSDOF 4
