REMARK  Name = ZINC13675870
REMARK                            x       y       z     vdW  Elec       q    Type
REMARK                         _______ _______ _______ _____ _____    ______ ____
ROOT
ATOM      1  C   LIG    1       -2.553   3.869   0.044  0.00  0.00    +0.032 C 
ATOM      2  C   LIG    1       -3.335   3.484   1.300  0.00  0.00    -0.069 C 
ATOM      3  N   LIG    1       -4.697   4.029   1.187  0.00  0.00    +0.382 N 
ATOM      4  H   LIG    1       -4.646   5.088   0.894  0.00  0.00    -0.085 HD
ATOM      5  H   LIG    1       -5.210   3.941   2.156  0.00  0.00    -0.085 HD
ATOM      6  C   LIG    1       -5.457   3.288   0.175  0.00  0.00    -0.046 C 
ATOM      7  C   LIG    1       -4.696   3.237  -1.124  0.00  0.00    -0.059 A 
ATOM      8  C   LIG    1       -5.388   2.911  -2.281  0.00  0.00    +0.025 A 
ATOM      9  C   LIG    1       -4.735   2.843  -3.491  0.00  0.00    +0.082 A 
ATOM     10 CL   LIG    1       -5.611   2.430  -4.932  0.00  0.00    -0.080 Cl
ATOM     11  C   LIG    1       -3.374   3.108  -3.556  0.00  0.00    +0.135 A 
ATOM     12  C   LIG    1       -2.684   3.437  -2.401  0.00  0.00    +0.051 A 
ATOM     13  C   LIG    1       -3.345   3.502  -1.185  0.00  0.00    -0.037 A 
ENDROOT
BRANCH   1  17
ATOM     14  C   LIG    1        1.175   1.783   0.000  0.00  0.00    +0.000 A 
ATOM     15  C   LIG    1       -0.013   1.076   0.008  0.00  0.00    +0.000 A 
ATOM     16  C   LIG    1       -1.219   1.751   0.017  0.00  0.00    +0.004 A 
ATOM     17  C   LIG    1       -1.238   3.133   0.029  0.00  0.00    -0.042 A 
ATOM     18  C   LIG    1       -0.050   3.840   0.022  0.00  0.00    +0.004 A 
ATOM     19  C   LIG    1        1.156   3.165   0.008  0.00  0.00    +0.000 A 
ENDBRANCH   1  17
BRANCH  11  20
ATOM     20  O   LIG    1       -2.722   3.045  -4.747  0.00  0.00    -0.505 OA
ATOM     21  H   LIG    1       -1.803   3.224  -4.788  0.00  0.00    +0.292 HD
ENDBRANCH  11  20
TORSDOF 2
