REMARK  Name = ZINC13704043
REMARK                            x       y       z     vdW  Elec       q    Type
REMARK                         _______ _______ _______ _____ _____    ______ ____
ROOT
ATOM      1  N   LIG    1       -1.193  -0.729   0.009  0.00  0.00    -0.332 N 
ATOM      2  C   LIG    1       -2.049  -0.344  -1.121  0.00  0.00    +0.086 C 
ATOM      3  C   LIG    1       -3.377  -1.101  -1.033  0.00  0.00    -0.063 C 
ATOM      4  N   LIG    1       -3.119  -2.553  -1.050  0.00  0.00    +0.381 N 
ATOM      5  H   LIG    1       -4.011  -3.057  -0.982  0.00  0.00    -0.086 HD
ATOM      6  H   LIG    1       -2.649  -2.804  -1.928  0.00  0.00    -0.086 HD
ATOM      7  C   LIG    1       -2.258  -2.932   0.087  0.00  0.00    -0.063 C 
ATOM      8  C   LIG    1       -0.931  -2.175  -0.001  0.00  0.00    +0.086 C 
ENDROOT
BRANCH   1  15
ATOM      9  C   LIG    1       -0.017   1.389   0.010  0.00  0.00    +0.027 A 
ATOM     10  C   LIG    1        1.193   2.063   0.002  0.00  0.00    +0.037 A 
ATOM     11  C   LIG    1        2.371   1.338  -0.013  0.00  0.00    +0.106 A 
ATOM     12 BR   LIG    1        4.027   2.250  -0.024  0.00  0.00    -0.029 Br
ATOM     13  N   LIG    1        2.354   0.019  -0.020  0.00  0.00    -0.246 NA
ATOM     14  C   LIG    1        1.225  -0.662  -0.013  0.00  0.00    +0.135 A 
ATOM     15  C   LIG    1        0.002  -0.004   0.002  0.00  0.00    +0.048 A 
ENDBRANCH   1  15
TORSDOF 1
