REMARK  Name = ZINC13641442
REMARK                            x       y       z     vdW  Elec       q    Type
REMARK                         _______ _______ _______ _____ _____    ______ ____
ROOT
ATOM      1  C   LIG    1       -1.576   1.553   0.586  0.00  0.00    -0.035 C 
ENDROOT
BRANCH   1   3
ATOM      2  C   LIG    1       -0.565   3.740  -0.078  0.00  0.00    +0.004 C 
ATOM      3  C   LIG    1       -0.448   2.219  -0.204  0.00  0.00    +0.002 C 
ENDBRANCH   1   3
BRANCH   1   4
ATOM      4  C   LIG    1       -1.459   0.033   0.459  0.00  0.00    -0.079 C 
BRANCH   4   5
ATOM      5  N   LIG    1       -2.453  -0.600   1.344  0.00  0.00    +0.378 N 
ATOM      6  H   LIG    1       -3.395  -0.321   1.047  0.00  0.00    -0.090 HD
ATOM      7  H   LIG    1       -2.305  -0.300   2.306  0.00  0.00    -0.090 HD
ATOM      8  H   LIG    1       -2.374  -1.614   1.288  0.00  0.00    -0.090 HD
ENDBRANCH   4   5
ENDBRANCH   1   4
BRANCH   1   9
ATOM      9  C   LIG    1       -2.926   2.009   0.028  0.00  0.00    +0.125 C 
BRANCH   9  10
ATOM     10  C   LIG    1       -3.029   1.616  -1.423  0.00  0.00    +0.305 C 
ATOM     11  O   LIG    1       -2.116   1.032  -1.957  0.00  0.00    -0.251 OA
BRANCH  10  12
ATOM     12  O   LIG    1       -4.135   1.915  -2.122  0.00  0.00    -0.481 OA
ATOM     13  H   LIG    1       -4.843   2.368  -1.708  0.00  0.00    +0.295 HD
ENDBRANCH  10  12
ENDBRANCH   9  10
ENDBRANCH   1   9
BRANCH   1  14
ATOM     14  C   LIG    1       -1.472   1.952   2.059  0.00  0.00    +0.008 C 
BRANCH  14  15
ATOM     15  C   LIG    1       -0.044   1.708   2.553  0.00  0.00    -0.017 C 
ATOM     16  C   LIG    1        0.200   0.204   2.685  0.00  0.00    +0.007 C 
ATOM     17  C   LIG    1        0.145   2.377   3.916  0.00  0.00    +0.007 C 
ENDBRANCH  14  15
ENDBRANCH   1  14
TORSDOF 8
