REMARK  Name = ZINC13678207
REMARK                            x       y       z     vdW  Elec       q    Type
REMARK                         _______ _______ _______ _____ _____    ______ ____
ROOT
ATOM      1  C   LIG    1        0.768   1.428   0.017  0.00  0.00    +0.046 C 
ATOM      2  C   LIG    1        0.457  -0.046   0.006  0.00  0.00    -0.023 A 
ATOM      3  C   LIG    1        0.351  -0.714  -1.180  0.00  0.00    +0.005 A 
ATOM      4  C   LIG    1        0.066  -2.073  -1.207  0.00  0.00    +0.002 A 
ATOM      5  C   LIG    1       -0.115  -2.773  -0.034  0.00  0.00    +0.028 A 
ATOM      6  C   LIG    1       -0.011  -2.114   1.185  0.00  0.00    +0.067 A 
ATOM      7  N   LIG    1       -0.131  -2.507   2.498  0.00  0.00    -0.334 N 
ATOM      8  H   LIG    1       -0.328  -3.402   2.816  0.00  0.00    +0.168 HD
ATOM      9  C   LIG    1        0.095  -1.399   3.272  0.00  0.00    +0.195 A 
ATOM     10  N   LIG    1        0.331  -0.365   2.505  0.00  0.00    -0.223 NA
ATOM     11  C   LIG    1        0.283  -0.736   1.213  0.00  0.00    +0.093 A 
ENDROOT
BRANCH   9  12
ATOM     12  C   LIG    1        0.066  -1.373   4.750  0.00  0.00    +0.282 C 
ATOM     13  N   LIG    1        0.158  -0.199   5.406  0.00  0.00    -0.293 N 
ATOM     14  C   LIG    1        0.129   1.077   4.676  0.00  0.00    +0.123 C 
ATOM     15  C   LIG    1       -0.925   1.984   5.321  0.00  0.00    +0.103 C 
ATOM     16  N   LIG    1       -0.654   2.097   6.760  0.00  0.00    -0.302 NA
ATOM     17  C   LIG    1       -1.536   3.092   7.385  0.00  0.00    +0.105 C 
ATOM     18  C   LIG    1       -0.771   0.795   7.429  0.00  0.00    +0.103 C 
ATOM     19  C   LIG    1        0.283  -0.160   6.871  0.00  0.00    +0.123 C 
ATOM     20  O   LIG    1       -0.041  -2.411   5.375  0.00  0.00    -0.267 OA
ENDBRANCH   9  12
TORSDOF 1
