REMARK  Name = ZINC13589372
REMARK                            x       y       z     vdW  Elec       q    Type
REMARK                         _______ _______ _______ _____ _____    ______ ____
ROOT
ATOM      1  S   LIG    1        1.021   3.786   0.012  0.00  0.00    -0.108 S 
ENDROOT
BRANCH   1   2
ATOM      2  C   LIG    1        1.103   2.026   0.002  0.00  0.00    +0.098 A 
ATOM      3  C   LIG    1        2.343   1.393  -0.013  0.00  0.00    +0.035 A 
ATOM      4  C   LIG    1        2.393   0.011  -0.020  0.00  0.00    +0.005 A 
ATOM      5  C   LIG    1        1.198  -0.696  -0.013  0.00  0.00    +0.035 A 
ATOM      6  C   LIG    1        0.002  -0.004   0.002  0.00  0.00    +0.108 A 
ATOM      7 BR   LIG    1       -1.630  -0.960   0.013  0.00  0.00    -0.029 Br
ATOM      8  N   LIG    1       -0.016   1.316   0.009  0.00  0.00    -0.234 NA
ENDBRANCH   1   2
BRANCH   1   9
ATOM      9  C   LIG    1       -0.758   4.142   0.030  0.00  0.00    +0.057 C 
BRANCH   9  10
ATOM     10  C   LIG    1       -0.975   5.656   0.040  0.00  0.00    -0.068 C 
BRANCH  10  12
ATOM     11  C   LIG    1       -3.029   5.496   1.312  0.00  0.00    -0.097 C 
ATOM     12  N   LIG    1       -2.427   5.930   0.034  0.00  0.00    +0.376 N 
ATOM     13  H   LIG    1       -2.862   5.406  -0.735  0.00  0.00    -0.083 HD
ATOM     14  C   LIG    1       -2.668   7.374  -0.173  0.00  0.00    -0.097 C 
ENDBRANCH  10  12
ENDBRANCH   9  10
ENDBRANCH   1   9
TORSDOF 4
