REMARK  Name = ZINC13679604
REMARK                            x       y       z     vdW  Elec       q    Type
REMARK                         _______ _______ _______ _____ _____    ______ ____
ROOT
ATOM      1  C   LIG    1        1.833  -4.593  -3.388  0.00  0.00    +0.135 C 
ATOM      2  S   LIG    1        2.532  -3.644  -4.629  0.00  0.00    -0.019 S 
ENDROOT
BRANCH   1   3
ATOM      3  N   LIG    1        1.324  -3.998  -2.290  0.00  0.00    -0.297 N 
ATOM      4  H   LIG    1        0.984  -4.538  -1.560  0.00  0.00    +0.154 HD
BRANCH   3   9
ATOM      5  C   LIG    1        0.105  -0.581  -1.679  0.00  0.00    +0.122 A 
ATOM      6  C   LIG    1        1.221   0.162  -2.039  0.00  0.00    +0.046 A 
ATOM      7  C   LIG    1        2.364  -0.476  -2.479  0.00  0.00    +0.005 A 
ATOM      8  C   LIG    1        2.401  -1.854  -2.564  0.00  0.00    +0.023 A 
ATOM      9  C   LIG    1        1.287  -2.603  -2.205  0.00  0.00    +0.036 A 
ATOM     10  C   LIG    1        0.139  -1.964  -1.756  0.00  0.00    +0.069 A 
BRANCH   5  12
ATOM     11  C   LIG    1       -0.985   1.475  -1.191  0.00  0.00    +0.277 C 
ATOM     12  O   LIG    1       -1.020   0.048  -1.245  0.00  0.00    -0.495 OA
ENDBRANCH   5  12
ENDBRANCH   3   9
ENDBRANCH   1   3
BRANCH   1  13
ATOM     13  N   LIG    1        1.791  -5.935  -3.507  0.00  0.00    -0.326 N 
ATOM     14  H   LIG    1        1.395  -6.473  -2.804  0.00  0.00    +0.148 HD
BRANCH  13  15
ATOM     15  C   LIG    1        2.344  -6.582  -4.700  0.00  0.00    +0.105 C 
BRANCH  15  16
ATOM     16  C   LIG    1        2.170  -8.097  -4.585  0.00  0.00    +0.040 C 
BRANCH  16  17
ATOM     17  C   LIG    1        2.747  -8.773  -5.831  0.00  0.00    +0.124 C 
BRANCH  17  18
ATOM     18  N   LIG    1        2.581 -10.224  -5.721  0.00  0.00    -0.338 N 
ATOM     19  C   LIG    1        3.467 -11.103  -5.159  0.00  0.00    +0.104 A 
ATOM     20  C   LIG    1        2.922 -12.329  -5.268  0.00  0.00    +0.101 A 
ATOM     21  N   LIG    1        1.735 -12.203  -5.880  0.00  0.00    -0.352 N 
ATOM     22  H   LIG    1        1.129 -12.932  -6.086  0.00  0.00    +0.166 HD
ATOM     23  C   LIG    1        1.522 -10.944  -6.149  0.00  0.00    +0.173 A 
ENDBRANCH  17  18
ENDBRANCH  16  17
ENDBRANCH  15  16
ENDBRANCH  13  15
ENDBRANCH   1  13
TORSDOF 8
