REMARK  Name = ZINC13675948
REMARK                            x       y       z     vdW  Elec       q    Type
REMARK                         _______ _______ _______ _____ _____    ______ ____
ROOT
ATOM      1  C   LIG    1       -2.174   0.639  -1.267  0.00  0.00    +0.202 C 
ATOM      2  N   LIG    1       -0.880   1.015  -1.230  0.00  0.00    -0.291 N 
ATOM      3  C   LIG    1       -0.071   1.417  -2.390  0.00  0.00    +0.108 C 
ATOM      4  C   LIG    1        1.333   1.784  -1.864  0.00  0.00    +0.021 C 
ATOM      5  C   LIG    1        1.070   2.111  -0.370  0.00  0.00    +0.033 C 
ATOM      6  C   LIG    1       -0.042   1.090  -0.019  0.00  0.00    +0.162 C 
ATOM      7  O   LIG    1       -2.768   0.405  -0.235  0.00  0.00    -0.277 OA
ENDROOT
BRANCH   6   8
ATOM      8  C   LIG    1       -0.853   1.580   1.153  0.00  0.00    +0.231 C 
ATOM      9  N   LIG    1       -0.529   1.195   2.404  0.00  0.00    -0.328 N 
ATOM     10  H   LIG    1       -1.050   1.510   3.158  0.00  0.00    +0.145 HD
ATOM     11  H   LIG    1        0.226   0.604   2.549  0.00  0.00    +0.145 HD
ATOM     12  O   LIG    1       -1.796   2.320   0.971  0.00  0.00    -0.274 OA
ENDBRANCH   6   8
BRANCH   1  13
ATOM     13  C   LIG    1       -2.883   0.509  -2.590  0.00  0.00    +0.013 C 
BRANCH  13  14
ATOM     14  N   LIG    1       -4.059  -0.362  -2.420  0.00  0.00    +0.386 N 
ATOM     15  H   LIG    1       -3.754  -1.275  -2.062  0.00  0.00    -0.089 HD
ATOM     16  H   LIG    1       -4.527  -0.496  -3.315  0.00  0.00    -0.089 HD
ATOM     17  H   LIG    1       -4.710   0.055  -1.756  0.00  0.00    -0.089 HD
ENDBRANCH  13  14
BRANCH  13  18
ATOM     18  C   LIG    1       -3.312   1.895  -3.077  0.00  0.00    -0.007 C 
BRANCH  18  20
ATOM     19  C   LIG    1       -4.348   3.164  -4.963  0.00  0.00    +0.004 C 
ATOM     20  C   LIG    1       -3.920   1.779  -4.476  0.00  0.00    -0.005 C 
ENDBRANCH  18  20
ENDBRANCH  13  18
ENDBRANCH   1  13
TORSDOF 5
