REMARK  Name = ZINC13579601
REMARK                            x       y       z     vdW  Elec       q    Type
REMARK                         _______ _______ _______ _____ _____    ______ ____
ROOT
ATOM      1  C   LIG    1       -0.753   1.593  -1.232  0.00  0.00    +0.170 C 
ATOM      2  C   LIG    1       -0.110   1.000  -2.488  0.00  0.00    +0.119 C 
ATOM      3  N   LIG    1       -0.775   1.551  -3.679  0.00  0.00    -0.293 NA
ATOM      4  C   LIG    1       -0.671   3.017  -3.702  0.00  0.00    +0.113 C 
ATOM      5  C   LIG    1       -1.309   3.589  -2.433  0.00  0.00    +0.175 C 
ATOM      6  O   LIG    1       -0.670   3.019  -1.287  0.00  0.00    -0.371 OA
ENDROOT
BRANCH   1   7
ATOM      7  C   LIG    1       -0.013   1.086   0.008  0.00  0.00    +0.262 C 
BRANCH   7   8
ATOM      8  O   LIG    1       -0.682   1.547   1.184  0.00  0.00    -0.486 OA
BRANCH   8  14
ATOM      9  C   LIG    1       -0.748   1.595   3.566  0.00  0.00    +0.161 A 
ATOM     10  C   LIG    1       -0.201   1.221   4.783  0.00  0.00    +0.049 A 
ATOM     11  C   LIG    1        0.938   0.439   4.817  0.00  0.00    +0.004 A 
ATOM     12  C   LIG    1        1.534   0.028   3.639  0.00  0.00    +0.004 A 
ATOM     13  C   LIG    1        0.990   0.393   2.422  0.00  0.00    +0.049 A 
ATOM     14  C   LIG    1       -0.148   1.182   2.380  0.00  0.00    +0.162 A 
BRANCH   9  16
ATOM     15  C   LIG    1       -2.430   2.752   4.787  0.00  0.00    +0.277 C 
ATOM     16  O   LIG    1       -1.869   2.365   3.531  0.00  0.00    -0.491 OA
ENDBRANCH   9  16
ENDBRANCH   8  14
ENDBRANCH   7   8
ENDBRANCH   1   7
BRANCH   3  17
ATOM     17  C   LIG    1       -0.224   0.965  -4.908  0.00  0.00    +0.119 C 
BRANCH  17  18
ATOM     18  C   LIG    1       -1.079   1.366  -6.082  0.00  0.00    -0.033 A 
ATOM     19  C   LIG    1       -2.146   0.573  -6.463  0.00  0.00    +0.006 A 
ATOM     20  C   LIG    1       -2.933   0.943  -7.537  0.00  0.00    +0.020 A 
ATOM     21  C   LIG    1       -2.648   2.102  -8.237  0.00  0.00    +0.041 A 
ATOM     22 CL   LIG    1       -3.633   2.564  -9.590  0.00  0.00    -0.084 Cl
ATOM     23  C   LIG    1       -1.577   2.892  -7.859  0.00  0.00    +0.020 A 
ATOM     24  C   LIG    1       -0.793   2.523  -6.782  0.00  0.00    +0.006 A 
ENDBRANCH  17  18
ENDBRANCH   3  17
TORSDOF 6
