REMARK  Name = ZINC13588580
REMARK                            x       y       z     vdW  Elec       q    Type
REMARK                         _______ _______ _______ _____ _____    ______ ____
ROOT
ATOM      1  N   LIG    1       -0.698   1.558   1.213  0.00  0.00    -0.272 N 
ATOM      2  H   LIG    1       -1.241   2.362   1.179  0.00  0.00    +0.153 HD
ATOM      3  C   LIG    1       -0.575   0.877   2.369  0.00  0.00    +0.401 C 
ATOM      4  O   LIG    1        0.104  -0.130   2.412  0.00  0.00    -0.226 OA
ENDROOT
BRANCH   1   5
ATOM      5  CA  LIG    1       -0.013   1.086   0.008  0.00  0.00    +0.139 C 
BRANCH   5   7
ATOM      6  C   LIG    1       -2.147   0.964  -1.286  0.00  0.00    +0.006 C 
ATOM      7  C   LIG    1       -0.753   1.593  -1.232  0.00  0.00    +0.026 C 
ENDBRANCH   5   7
BRANCH   5   8
ATOM      8  C   LIG    1        1.401   1.607  -0.003  0.00  0.00    +0.245 C 
ATOM      9  O   LIG    1        1.795   2.302   0.903  0.00  0.00    -0.299 OA
ENDBRANCH   5   8
ENDBRANCH   1   5
BRANCH   3  10
ATOM     10  O   LIG    1       -1.206   1.311   3.477  0.00  0.00    -0.445 OA
BRANCH  10  11
ATOM     11  C   LIG    1       -1.028   0.527   4.687  0.00  0.00    +0.107 C 
ATOM     12  C   LIG    1       -1.541  -0.895   4.452  0.00  0.00    +0.055 C 
ATOM     13  C   LIG    1       -1.813   1.171   5.831  0.00  0.00    +0.055 C 
ATOM     14  C   LIG    1        0.457   0.480   5.051  0.00  0.00    +0.055 C 
ENDBRANCH  10  11
ENDBRANCH   3  10
TORSDOF 5
