REMARK  Name = ZINC13738520
REMARK                            x       y       z     vdW  Elec       q    Type
REMARK                         _______ _______ _______ _____ _____    ______ ____
ROOT
ATOM      1  C   LIG    1       -1.688   7.374  -2.482  0.00  0.00    +0.159 A 
ATOM      2  N   LIG    1       -2.034   6.406  -1.664  0.00  0.00    -0.225 NA
ATOM      3  C   LIG    1       -2.727   5.321  -2.077  0.00  0.00    +0.084 A 
ATOM      4  C   LIG    1       -3.153   4.214  -1.307  0.00  0.00    -0.010 A 
ATOM      5  C   LIG    1       -3.847   3.183  -1.884  0.00  0.00    -0.003 A 
ATOM      6  C   LIG    1       -4.289   2.023  -1.030  0.00  0.00    +0.048 C 
ATOM      7  C   LIG    1       -4.152   3.183  -3.242  0.00  0.00    +0.124 A 
ATOM      8  C   LIG    1       -3.744   4.252  -4.027  0.00  0.00    +0.007 A 
ATOM      9  C   LIG    1       -4.062   4.276  -5.500  0.00  0.00    +0.049 C 
ATOM     10  C   LIG    1       -3.049   5.287  -3.453  0.00  0.00    +0.047 A 
ATOM     11  S   LIG    1       -2.349   6.809  -4.043  0.00  0.00    -0.052 S 
ENDROOT
BRANCH   1  12
ATOM     12  N   LIG    1       -0.992   8.534  -2.205  0.00  0.00    -0.324 N 
ATOM     13  H   LIG    1       -0.689   8.714  -1.301  0.00  0.00    +0.148 HD
BRANCH  12  15
ATOM     14  C   LIG    1        0.069  10.680  -2.706  0.00  0.00    +0.024 C 
ATOM     15  C   LIG    1       -0.709   9.492  -3.276  0.00  0.00    +0.100 C 
ENDBRANCH  12  15
ENDBRANCH   1  12
BRANCH   7  16
ATOM     16  O   LIG    1       -4.843   2.149  -3.792  0.00  0.00    -0.506 OA
ATOM     17  H   LIG    1       -5.802   2.267  -3.781  0.00  0.00    +0.292 HD
ENDBRANCH   7  16
BRANCH   4  18
ATOM     18  C   LIG    1       -2.846   4.171   0.168  0.00  0.00    +0.074 C 
BRANCH  18  19
ATOM     19  C   LIG    1       -3.964   4.830   0.933  0.00  0.00    -0.025 A 
ATOM     20  C   LIG    1       -3.987   6.207   1.095  0.00  0.00    +0.007 A 
ATOM     21  C   LIG    1       -5.033   6.770   1.811  0.00  0.00    +0.020 A 
ATOM     22  C   LIG    1       -6.016   5.946   2.327  0.00  0.00    +0.111 A 
ATOM     23  N   LIG    1       -5.963   4.641   2.150  0.00  0.00    -0.263 NA
ATOM     24  C   LIG    1       -4.981   4.071   1.479  0.00  0.00    +0.114 A 
ENDBRANCH  18  19
ENDBRANCH   4  18
TORSDOF 5
