REMARK  Name = ZINC13602360
REMARK                            x       y       z     vdW  Elec       q    Type
REMARK                         _______ _______ _______ _____ _____    ______ ____
ROOT
ATOM      1  S   LIG    1        1.299  -6.290  -2.178  0.00  0.00    +0.075 S 
ATOM      2  O   LIG    1        1.216  -6.925  -0.910  0.00  0.00    -0.150 OA
ATOM      3  O   LIG    1        2.424  -6.442  -3.034  0.00  0.00    -0.150 OA
ENDROOT
BRANCH   1   7
ATOM      4  C   LIG    1        0.832  -1.847  -1.433  0.00  0.00    +0.027 A 
ATOM      5  C   LIG    1        0.321  -2.763  -0.523  0.00  0.00    +0.025 A 
ATOM      6  C   LIG    1        0.464  -4.117  -0.753  0.00  0.00    +0.030 A 
ATOM      7  C   LIG    1        1.117  -4.561  -1.889  0.00  0.00    +0.109 A 
ATOM      8  C   LIG    1        1.627  -3.652  -2.797  0.00  0.00    +0.030 A 
ATOM      9  C   LIG    1        1.482  -2.296  -2.575  0.00  0.00    +0.025 A 
BRANCH   4  10
ATOM     10  N   LIG    1        0.688  -0.476  -1.203  0.00  0.00    -0.344 N 
ATOM     11  H   LIG    1        1.042   0.162  -1.842  0.00  0.00    +0.146 HD
BRANCH  10  13
ATOM     12  C   LIG    1       -0.019   1.526   0.010  0.00  0.00    +0.024 C 
ATOM     13  C   LIG    1        0.002  -0.004   0.002  0.00  0.00    +0.098 C 
ENDBRANCH  10  13
ENDBRANCH   4  10
ENDBRANCH   1   7
BRANCH   1  14
ATOM     14  N   LIG    1       -0.024  -6.783  -3.043  0.00  0.00    -0.183 N 
ATOM     15  H   LIG    1       -0.720  -6.133  -3.291  0.00  0.00    +0.177 HD
BRANCH  14  16
ATOM     16  C   LIG    1       -0.150  -8.108  -3.416  0.00  0.00    +0.240 A 
ATOM     17  C   LIG    1       -1.176  -8.646  -4.128  0.00  0.00    +0.035 A 
ATOM     18  C   LIG    1       -2.378  -7.901  -4.649  0.00  0.00    +0.051 C 
ATOM     19  C   LIG    1       -0.921 -10.013  -4.293  0.00  0.00    +0.085 A 
ATOM     20  C   LIG    1       -1.801 -10.995  -5.022  0.00  0.00    +0.069 C 
ATOM     21  N   LIG    1        0.211 -10.291  -3.705  0.00  0.00    -0.081 NA
ATOM     22  O   LIG    1        0.721  -9.094  -3.145  0.00  0.00    -0.338 OA
ENDBRANCH  14  16
ENDBRANCH   1  14
TORSDOF 5
