REMARK  Name = ZINC13612605
REMARK                            x       y       z     vdW  Elec       q    Type
REMARK                         _______ _______ _______ _____ _____    ______ ____
ROOT
ATOM      1  C   LIG    1        2.478   1.073  -0.015  0.00  0.00    +0.023 A 
ATOM      2  C   LIG    1        2.877   0.272   1.075  0.00  0.00    +0.100 A 
ATOM      3  C   LIG    1        4.112  -0.398   1.013  0.00  0.00    +0.136 A 
ATOM      4  N   LIG    1        4.900  -0.276  -0.044  0.00  0.00    -0.224 NA
ATOM      5  C   LIG    1        4.569   0.469  -1.088  0.00  0.00    +0.117 A 
ATOM      6  C   LIG    1        3.350   1.172  -1.118  0.00  0.00    +0.093 A 
ENDROOT
BRANCH   1  10
ATOM      7  C   LIG    1       -1.234   3.139   0.031  0.00  0.00    +0.120 A 
ATOM      8  C   LIG    1       -1.214   1.749   0.017  0.00  0.00    +0.046 A 
ATOM      9  C   LIG    1       -0.013   1.076   0.008  0.00  0.00    +0.012 A 
ATOM     10  C   LIG    1        1.187   1.791   0.000  0.00  0.00    -0.015 A 
ATOM     11  C   LIG    1        1.163   3.188   0.008  0.00  0.00    +0.012 A 
ATOM     12  C   LIG    1       -0.043   3.854   0.023  0.00  0.00    +0.046 A 
BRANCH   7  14
ATOM     13  C   LIG    1       -3.607   3.002   0.054  0.00  0.00    +0.277 C 
ATOM     14  O   LIG    1       -2.421   3.799   0.046  0.00  0.00    -0.495 OA
ENDBRANCH   7  14
ENDBRANCH   1  10
BRANCH   3  15
ATOM     15  N   LIG    1        4.511  -1.189   2.071  0.00  0.00    -0.342 N 
ATOM     16  H   LIG    1        3.865  -1.292   2.955  0.00  0.00    +0.144 HD
ATOM     17  H   LIG    1        5.476  -1.717   2.031  0.00  0.00    +0.144 HD
ENDBRANCH   3  15
BRANCH   2  18
ATOM     18  C   LIG    1        2.034   0.139   2.225  0.00  0.00    +0.103 C 
ATOM     19  N   LIG    1        1.366   0.033   3.138  0.00  0.00    -0.191 NA
ENDBRANCH   2  18
BRANCH   6  20
ATOM     20  C   LIG    1        3.001   1.974  -2.252  0.00  0.00    +0.102 C 
ATOM     21  N   LIG    1        2.724   2.611  -3.151  0.00  0.00    -0.191 NA
ENDBRANCH   6  20
BRANCH   5  22
ATOM     22  S   LIG    1        5.671   0.582  -2.458  0.00  0.00    -0.102 S 
BRANCH  22  23
ATOM     23  C   LIG    1        7.011  -0.485  -1.873  0.00  0.00    +0.103 C 
BRANCH  23  24
ATOM     24  C   LIG    1        8.116  -0.542  -2.930  0.00  0.00    +0.167 C 
BRANCH  24  25
ATOM     25  O   LIG    1        9.174  -1.385  -2.468  0.00  0.00    -0.394 OA
ATOM     26  H   LIG    1       10.061  -1.548  -3.097  0.00  0.00    +0.209 HD
ENDBRANCH  24  25
ENDBRANCH  23  24
ENDBRANCH  22  23
ENDBRANCH   5  22
TORSDOF 9
