REMARK  Name = ZINC13587680
REMARK                            x       y       z     vdW  Elec       q    Type
REMARK                         _______ _______ _______ _____ _____    ______ ____
ROOT
ATOM      1  C   LIG    1       -4.635  -6.500  -1.097  0.00  0.00    +0.044 C 
ATOM      2  C   LIG    1       -5.377  -6.049  -2.369  0.00  0.00    +0.122 C 
ATOM      3  C   LIG    1       -6.377  -7.181  -2.667  0.00  0.00    +0.036 C 
ATOM      4  C   LIG    1       -5.733  -8.466  -2.124  0.00  0.00    -0.001 C 
ATOM      5  C   LIG    1       -6.777  -9.266  -1.329  0.00  0.00    +0.034 C 
ATOM      6  C   LIG    1       -6.073  -9.665  -0.024  0.00  0.00    -0.073 C 
ATOM      7  C   LIG    1       -6.306 -10.732   0.699  0.00  0.00    -0.028 C 
ATOM      8  C   LIG    1       -5.050  -8.579   0.246  0.00  0.00    +0.035 C 
ATOM      9  C   LIG    1       -4.633  -8.036  -1.130  0.00  0.00    +0.006 C 
ENDROOT
BRANCH   1  11
ATOM     10  C   LIG    1       -2.794  -5.225  -0.125  0.00  0.00    +0.000 C 
ATOM     11  C   LIG    1       -3.221  -5.979  -1.108  0.00  0.00    -0.022 C 
BRANCH  10  12
ATOM     12  C   LIG    1       -1.380  -4.703  -0.136  0.00  0.00    +0.141 C 
BRANCH  12  13
ATOM     13  C   LIG    1       -1.397  -3.179  -0.002  0.00  0.00    +0.030 C 
ATOM     14  C   LIG    1       -2.074  -2.791   1.314  0.00  0.00    +0.011 C 
BRANCH  13  15
ATOM     15  C   LIG    1        0.038  -2.650  -0.013  0.00  0.00    +0.095 C 
BRANCH  15  18
ATOM     16  C   LIG    1       -0.018   1.468   0.010  0.00  0.00    +0.106 C 
ATOM     17  C   LIG    1        0.002  -0.004   0.002  0.00  0.00    -0.106 C 
ATOM     18  C   LIG    1        0.018  -1.178  -0.004  0.00  0.00    -0.102 C 
ENDBRANCH  15  18
ENDBRANCH  13  15
ENDBRANCH  12  13
BRANCH  12  19
ATOM     19  O   LIG    1       -0.748  -5.066  -1.365  0.00  0.00    -0.387 OA
ATOM     20  H   LIG    1       -1.187  -4.715  -2.152  0.00  0.00    +0.210 HD
ENDBRANCH  12  19
ENDBRANCH  10  12
ENDBRANCH   1  11
BRANCH   2  21
ATOM     21  O   LIG    1       -6.069  -4.822  -2.131  0.00  0.00    -0.391 OA
ATOM     22  H   LIG    1       -6.555  -4.489  -2.898  0.00  0.00    +0.210 HD
ENDBRANCH   2  21
BRANCH   7  23
ATOM     23  C   LIG    1       -7.370 -11.712   0.276  0.00  0.00    +0.027 C 
BRANCH  23  24
ATOM     24  C   LIG    1       -6.761 -13.111   0.166  0.00  0.00    +0.015 C 
BRANCH  24  25
ATOM     25  C   LIG    1       -7.841 -14.105  -0.264  0.00  0.00    +0.121 C 
BRANCH  25  26
ATOM     26  C   LIG    1       -7.242 -15.483  -0.372  0.00  0.00    +0.305 C 
ATOM     27  O   LIG    1       -6.059 -15.655  -0.128  0.00  0.00    -0.251 OA
BRANCH  26  28
ATOM     28  O   LIG    1       -7.939 -16.427  -0.703  0.00  0.00    -0.481 OA
ATOM     29  H   LIG    1       -8.847 -16.296  -0.891  0.00  0.00    +0.295 HD
ENDBRANCH  26  28
ENDBRANCH  25  26
ENDBRANCH  24  25
ENDBRANCH  23  24
ENDBRANCH   7  23
TORSDOF 12
