REMARK  Name = ZINC13588582
REMARK                            x       y       z     vdW  Elec       q    Type
REMARK                         _______ _______ _______ _____ _____    ______ ____
ROOT
ATOM      1  N   LIG    1        1.362   1.593  -0.002  0.00  0.00    -0.272 N 
ATOM      2  H   LIG    1        1.583   2.404   0.482  0.00  0.00    +0.153 HD
ATOM      3  C   LIG    1        2.318   0.933  -0.685  0.00  0.00    +0.401 C 
ATOM      4  O   LIG    1        2.041  -0.083  -1.291  0.00  0.00    -0.226 OA
ENDROOT
BRANCH   1   5
ATOM      5  CA  LIG    1       -0.013   1.086   0.008  0.00  0.00    +0.139 C 
BRANCH   5   6
ATOM      6  C   LIG    1       -0.742   1.585  -1.213  0.00  0.00    +0.245 C 
ATOM      7  O   LIG    1       -0.172   2.292  -2.010  0.00  0.00    -0.299 OA
ENDBRANCH   5   6
BRANCH   5   8
ATOM      8  C   LIG    1       -0.729   1.579   1.267  0.00  0.00    +0.029 C 
BRANCH   8  10
ATOM      9  C   LIG    1       -0.780   1.465   3.762  0.00  0.00    +0.004 C 
ATOM     10  C   LIG    1       -0.064   0.971   2.503  0.00  0.00    -0.001 C 
ENDBRANCH   8  10
ENDBRANCH   5   8
ENDBRANCH   1   5
BRANCH   3  11
ATOM     11  O   LIG    1        3.582   1.399  -0.694  0.00  0.00    -0.445 OA
BRANCH  11  12
ATOM     12  C   LIG    1        4.560   0.637  -1.450  0.00  0.00    +0.107 C 
ATOM     13  C   LIG    1        4.649  -0.782  -0.883  0.00  0.00    +0.055 C 
ATOM     14  C   LIG    1        5.927   1.315  -1.344  0.00  0.00    +0.055 C 
ATOM     15  C   LIG    1        4.134   0.574  -2.918  0.00  0.00    +0.055 C 
ENDBRANCH  11  12
ENDBRANCH   3  11
TORSDOF 6
