REMARK  Name = ZINC13730114
REMARK                            x       y       z     vdW  Elec       q    Type
REMARK                         _______ _______ _______ _____ _____    ______ ____
ROOT
ATOM      1  N   LIG    1       -1.801  -4.658  -1.238  0.00  0.00    +0.382 N 
ATOM      2  H   LIG    1       -2.381  -4.268  -1.989  0.00  0.00    -0.081 HD
ATOM      3  C   LIG    1       -0.436  -4.101  -1.347  0.00  0.00    -0.078 C 
ATOM      4  C   LIG    1       -0.519  -2.573  -1.318  0.00  0.00    -0.013 C 
ATOM      5  C   LIG    1       -1.154  -2.126   0.002  0.00  0.00    +0.011 C 
ATOM      6  C   LIG    1       -2.537  -2.770   0.137  0.00  0.00    -0.013 C 
ATOM      7  C   LIG    1       -2.395  -4.292   0.066  0.00  0.00    -0.078 C 
ENDROOT
BRANCH   1   8
ATOM      8  C   LIG    1       -1.759  -6.128  -1.378  0.00  0.00    -0.043 C 
BRANCH   8  12
ATOM      9  C   LIG    1       -0.620  -7.096  -5.379  0.00  0.00    +0.000 A 
ATOM     10  C   LIG    1        0.346  -6.957  -4.400  0.00  0.00    +0.000 A 
ATOM     11  C   LIG    1       -0.023  -6.643  -3.105  0.00  0.00    +0.002 A 
ATOM     12  C   LIG    1       -1.357  -6.470  -2.789  0.00  0.00    -0.064 A 
ATOM     13  C   LIG    1       -2.324  -6.614  -3.767  0.00  0.00    +0.002 A 
ATOM     14  C   LIG    1       -1.955  -6.923  -5.063  0.00  0.00    +0.000 A 
ENDBRANCH   8  12
ENDBRANCH   1   8
BRANCH   5  15
ATOM     15  C   LIG    1       -1.295  -0.603   0.011  0.00  0.00    +0.163 C 
BRANCH  15  16
ATOM     16  O   LIG    1        0.002  -0.004   0.002  0.00  0.00    -0.375 OA
BRANCH  16  17
ATOM     17  C   LIG    1       -0.017   1.425   0.010  0.00  0.00    +0.195 C 
BRANCH  17  18
ATOM     18  C   LIG    1        1.397   1.946  -0.001  0.00  0.00    -0.022 A 
ATOM     19  C   LIG    1        2.054   2.185   1.191  0.00  0.00    +0.006 A 
ATOM     20  C   LIG    1        3.353   2.658   1.181  0.00  0.00    +0.000 A 
ATOM     21  C   LIG    1        3.990   2.904  -0.020  0.00  0.00    +0.000 A 
ATOM     22  C   LIG    1        3.330   2.671  -1.213  0.00  0.00    +0.000 A 
ATOM     23  C   LIG    1        2.034   2.192  -1.203  0.00  0.00    +0.006 A 
ENDBRANCH  17  18
ENDBRANCH  16  17
ENDBRANCH  15  16
ENDBRANCH   5  15
TORSDOF 6
