REMARK  Name = ZINC13742922
REMARK                            x       y       z     vdW  Elec       q    Type
REMARK                         _______ _______ _______ _____ _____    ______ ____
ROOT
ATOM      1  C   LIG    1       -0.131   1.557   2.750  0.00  0.00    +0.106 C 
ENDROOT
BRANCH   1   2
ATOM      2  O   LIG    1       -0.212   0.131   2.803  0.00  0.00    -0.393 OA
ATOM      3  H   LIG    1        0.199  -0.474   1.982  0.00  0.00    +0.210 HD
ENDBRANCH   1   2
BRANCH   1   4
ATOM      4  C   LIG    1       -0.773   2.151   4.005  0.00  0.00    -0.054 C 
BRANCH   4   5
ATOM      5  N   LIG    1        0.010   1.762   5.186  0.00  0.00    +0.380 N 
ATOM      6  H   LIG    1        0.028   0.665   5.268  0.00  0.00    -0.090 HD
ATOM      7  H   LIG    1        1.038   2.139   5.085  0.00  0.00    -0.090 HD
ATOM      8  H   LIG    1       -0.451   2.189   6.088  0.00  0.00    -0.090 HD
ENDBRANCH   4   5
ENDBRANCH   1   4
BRANCH   1   9
ATOM      9  C   LIG    1       -0.871   2.064   1.510  0.00  0.00    +0.123 C 
BRANCH   9  10
ATOM     10  P   LIG    1       -0.018   1.476   0.010  0.00  0.00    +0.193 P 
ATOM     11  O   LIG    1        0.002  -0.004   0.002  0.00  0.00    -0.294 OA
ATOM     12  H   LIG    1        1.049   1.713  -0.114  0.00  0.00    +0.128 HD
BRANCH  10  13
ATOM     13  O   LIG    1       -0.797   2.009  -1.294  0.00  0.00    -0.346 OA
ATOM     14  H   LIG    1       -0.810   2.979  -1.289  0.00  0.00    +0.217 HD
ENDBRANCH  10  13
ENDBRANCH   9  10
ENDBRANCH   1   9
TORSDOF 6
