REMARK  Name = ZINC13741324
REMARK                            x       y       z     vdW  Elec       q    Type
REMARK                         _______ _______ _______ _____ _____    ______ ____
ROOT
ATOM      1  C   LIG    1        0.606  -0.607  -1.056  0.00  0.00    +0.121 A 
ATOM      2  C   LIG    1        1.174   0.167  -2.065  0.00  0.00    +0.048 A 
ATOM      3  C   LIG    1        1.785  -0.417  -3.135  0.00  0.00    +0.032 A 
ATOM      4  C   LIG    1        1.850  -1.813  -3.235  0.00  0.00    +0.073 A 
ATOM      5  C   LIG    1        1.274  -2.598  -2.213  0.00  0.00    +0.032 A 
ATOM      6  C   LIG    1        1.351  -4.062  -2.335  0.00  0.00    +0.108 A 
ATOM      7  C   LIG    1        2.032  -4.594  -3.529  0.00  0.00    +0.082 A 
ATOM      8  C   LIG    1        1.977  -5.976  -3.421  0.00  0.00    +0.225 A 
ATOM      9  N   LIG    1        1.329  -6.270  -2.276  0.00  0.00    -0.199 N 
ATOM     10  C   LIG    1        2.558  -3.680  -4.465  0.00  0.00    +0.126 A 
ATOM     11  N   LIG    1        0.955  -5.088  -1.626  0.00  0.00    -0.162 NA
ATOM     12  N   LIG    1        2.454  -2.393  -4.297  0.00  0.00    -0.254 NA
ATOM     13  C   LIG    1        0.659  -1.987  -1.124  0.00  0.00    +0.057 A 
ENDROOT
BRANCH   9  14
ATOM     14  C   LIG    1        1.070  -7.565  -1.808  0.00  0.00    +0.069 A 
ATOM     15  C   LIG    1        0.797  -8.588  -2.705  0.00  0.00    +0.028 A 
ATOM     16  C   LIG    1        0.541  -9.863  -2.240  0.00  0.00    +0.002 A 
ATOM     17  C   LIG    1        0.556 -10.121  -0.882  0.00  0.00    +0.000 A 
ATOM     18  C   LIG    1        0.828  -9.104   0.015  0.00  0.00    +0.002 A 
ATOM     19  C   LIG    1        1.090  -7.828  -0.444  0.00  0.00    +0.028 A 
ENDBRANCH   9  14
BRANCH   1  21
ATOM     20  C   LIG    1       -0.017   1.425   0.010  0.00  0.00    +0.277 C 
ATOM     21  O   LIG    1        0.002  -0.004   0.002  0.00  0.00    -0.495 OA
ENDBRANCH   1  21
BRANCH   8  22
ATOM     22  O   LIG    1        2.484  -6.868  -4.305  0.00  0.00    -0.492 OA
ATOM     23  H   LIG    1        3.399  -7.123  -4.126  0.00  0.00    +0.294 HD
ENDBRANCH   8  22
TORSDOF 3
