REMARK  Name = ZINC13643107
REMARK                            x       y       z     vdW  Elec       q    Type
REMARK                         _______ _______ _______ _____ _____    ______ ____
ROOT
ATOM      1  C   LIG    1       -0.447  -0.100  -0.060  0.00  0.00    +0.008 C 
ATOM      2  C   LIG    1        0.618  -1.117  -0.473  0.00  0.00    +0.021 C 
ATOM      3  C   LIG    1        0.609  -0.553   0.950  0.00  0.00    +0.056 C 
ENDROOT
BRANCH   3   4
ATOM      4  C   LIG    1        1.690   0.432   1.314  0.00  0.00    +0.309 C 
ATOM      5  O   LIG    1        1.639   1.022   2.367  0.00  0.00    -0.250 OA
BRANCH   4   6
ATOM      6  O   LIG    1        2.710   0.653   0.470  0.00  0.00    -0.480 OA
ATOM      7  H   LIG    1        2.749   0.195  -0.347  0.00  0.00    +0.295 HD
ENDBRANCH   4   6
ENDBRANCH   3   4
BRANCH   1   8
ATOM      8  C   LIG    1       -0.326   1.318  -0.622  0.00  0.00    -0.007 C 
BRANCH   8  10
ATOM      9  C   LIG    1       -0.483   2.711  -2.690  0.00  0.00    +0.004 C 
ATOM     10  C   LIG    1       -0.530   1.285  -2.138  0.00  0.00    +0.000 C 
ENDBRANCH   8  10
BRANCH   8  11
ATOM     11  C   LIG    1       -1.389   2.213   0.017  0.00  0.00    +0.000 C 
ATOM     12  C   LIG    1       -2.781   1.688  -0.344  0.00  0.00    +0.004 C 
ENDBRANCH   8  11
ENDBRANCH   1   8
BRANCH   3  13
ATOM     13  C   LIG    1        0.156  -1.484   2.076  0.00  0.00    -0.068 C 
BRANCH  13  14
ATOM     14  N   LIG    1        1.343  -1.943   2.820  0.00  0.00    +0.379 N 
ATOM     15  H   LIG    1        2.036  -2.309   2.158  0.00  0.00    -0.090 HD
ATOM     16  H   LIG    1        1.082  -2.681   3.472  0.00  0.00    -0.090 HD
ATOM     17  H   LIG    1        1.754  -1.166   3.336  0.00  0.00    -0.090 HD
ENDBRANCH  13  14
ENDBRANCH   3  13
TORSDOF 7
