REMARK  Name = ZINC13602429
REMARK                            x       y       z     vdW  Elec       q    Type
REMARK                         _______ _______ _______ _____ _____    ______ ____
ROOT
ATOM      1  C   LIG    1        0.810   7.891  -1.329  0.00  0.00    +0.156 A 
ATOM      2  C   LIG    1        2.025   7.250  -1.526  0.00  0.00    +0.061 A 
ATOM      3 BR   LIG    1        3.604   8.265  -1.758  0.00  0.00    -0.046 Br
ATOM      4  C   LIG    1        2.081   5.869  -1.551  0.00  0.00    +0.022 A 
ATOM      5  C   LIG    1        0.927   5.127  -1.380  0.00  0.00    -0.046 A 
ATOM      6  C   LIG    1       -0.286   5.762  -1.189  0.00  0.00    +0.022 A 
ATOM      7  C   LIG    1       -0.346   7.143  -1.157  0.00  0.00    +0.061 A 
ATOM      8 BR   LIG    1       -2.005   8.011  -0.889  0.00  0.00    -0.046 Br
ENDROOT
BRANCH   1   9
ATOM      9  O   LIG    1        0.753   9.249  -1.302  0.00  0.00    -0.454 OA
BRANCH   9  12
ATOM     10  C   LIG    1        0.260  11.950  -3.690  0.00  0.00    +0.000 A 
ATOM     11  C   LIG    1        0.475  11.287  -2.498  0.00  0.00    +0.053 A 
ATOM     12  C   LIG    1        0.541   9.902  -2.476  0.00  0.00    +0.129 A 
ATOM     13  C   LIG    1        0.397   9.182  -3.654  0.00  0.00    +0.050 A 
ATOM     14  C   LIG    1        0.176   9.845  -4.845  0.00  0.00    +0.049 A 
ATOM     15  C   LIG    1        0.111  11.230  -4.866  0.00  0.00    +0.120 A 
BRANCH  10  17
ATOM     16  C   LIG    1       -0.960  13.924  -2.817  0.00  0.00    +0.012 C 
ATOM     17  C   LIG    1        0.188  13.455  -3.713  0.00  0.00    +0.017 C 
ATOM     18  C   LIG    1        1.507  14.037  -3.199  0.00  0.00    +0.012 C 
ENDBRANCH  10  17
BRANCH  15  19
ATOM     19  O   LIG    1       -0.101  11.883  -6.040  0.00  0.00    -0.506 OA
ATOM     20  H   LIG    1        0.711  12.111  -6.515  0.00  0.00    +0.292 HD
ENDBRANCH  15  19
ENDBRANCH   9  12
ENDBRANCH   1   9
BRANCH   5  21
ATOM     21  C   LIG    1        0.991   3.621  -1.409  0.00  0.00    +0.030 C 
BRANCH  21  22
ATOM     22  CA  LIG    1        1.235   3.094   0.007  0.00  0.00    +0.040 C 
BRANCH  22  23
ATOM     23  N   LIG    1        2.556   3.556   0.468  0.00  0.00    +0.387 N 
ATOM     24  H1  LIG    1        2.586   4.581   0.434  0.00  0.00    -0.089 HD
ATOM     25  H2  LIG    1        3.287   3.182  -0.135  0.00  0.00    -0.089 HD
ATOM     26  H3  LIG    1        2.718   3.250   1.426  0.00  0.00    -0.089 HD
ENDBRANCH  22  23
BRANCH  22  27
ATOM     27  C   LIG    1        1.177   1.588  -0.001  0.00  0.00    +0.290 C 
ATOM     28  O   LIG    1        2.199   0.944  -0.014  0.00  0.00    -0.253 OA
BRANCH  27  29
ATOM     29  OXT LIG    1       -0.011   0.963   0.007  0.00  0.00    -0.482 OA
ATOM     30  HXT LIG    1       -0.804   1.462   0.018  0.00  0.00    +0.295 HD
ENDBRANCH  27  29
ENDBRANCH  22  27
ENDBRANCH  21  22
ENDBRANCH   5  21
TORSDOF 9
