REMARK  Name = ZINC13704411
REMARK                            x       y       z     vdW  Elec       q    Type
REMARK                         _______ _______ _______ _____ _____    ______ ____
ROOT
ATOM      1  C   LIG    1        3.685  -0.714  -0.001  0.00  0.00    +0.095 A 
ATOM      2  C   LIG    1        3.883  -2.104  -0.104  0.00  0.00    +0.074 A 
ATOM      3  C   LIG    1        5.223  -2.332  -0.133  0.00  0.00    +0.129 A 
ATOM      4  N   LIG    1        5.849  -1.125  -0.051  0.00  0.00    -0.215 N 
ATOM      5  N   LIG    1        4.865  -0.131   0.026  0.00  0.00    -0.165 NA
ENDROOT
BRANCH   4   6
ATOM      6  C   LIG    1        7.235  -0.914  -0.048  0.00  0.00    +0.103 A 
ATOM      7  C   LIG    1        8.035  -1.537  -0.996  0.00  0.00    +0.031 A 
ATOM      8  C   LIG    1        9.401  -1.328  -0.991  0.00  0.00    +0.002 A 
ATOM      9  C   LIG    1        9.972  -0.498  -0.043  0.00  0.00    +0.003 A 
ATOM     10  C   LIG    1        9.179   0.124   0.903  0.00  0.00    +0.040 A 
ATOM     11  C   LIG    1        7.811  -0.077   0.901  0.00  0.00    +0.149 A 
ATOM     12  F   LIG    1        7.035   0.535   1.822  0.00  0.00    -0.203 F 
ENDBRANCH   4   6
BRANCH   1  16
ATOM     13  C   LIG    1       -0.076   1.262   0.175  0.00  0.00    +0.000 A 
ATOM     14  C   LIG    1        1.093   2.000   0.213  0.00  0.00    +0.001 A 
ATOM     15  C   LIG    1        2.316   1.364   0.157  0.00  0.00    +0.010 A 
ATOM     16  C   LIG    1        2.373  -0.025   0.061  0.00  0.00    +0.002 A 
ATOM     17  C   LIG    1        1.192  -0.764   0.023  0.00  0.00    +0.010 A 
ATOM     18  C   LIG    1       -0.026  -0.117   0.080  0.00  0.00    +0.001 A 
ENDBRANCH   1  16
BRANCH   3  19
ATOM     19  N   LIG    1        5.844  -3.575  -0.229  0.00  0.00    -0.266 N 
ATOM     20  H   LIG    1        6.807  -3.630  -0.333  0.00  0.00    +0.157 HD
ATOM     21  C   LIG    1        5.106  -4.702  -0.178  0.00  0.00    +0.249 C 
ATOM     22  O   LIG    1        3.900  -4.634  -0.048  0.00  0.00    -0.270 OA
BRANCH  21  23
ATOM     23  C   LIG    1        5.765  -6.022  -0.280  0.00  0.00    +0.037 A 
ATOM     24  C   LIG    1        7.151  -6.104  -0.423  0.00  0.00    +0.015 A 
ATOM     25  C   LIG    1        7.759  -7.339  -0.518  0.00  0.00    +0.033 A 
ATOM     26  C   LIG    1        6.999  -8.494  -0.471  0.00  0.00    +0.122 A 
ATOM     27  C   LIG    1        5.624  -8.419  -0.329  0.00  0.00    +0.033 A 
ATOM     28  C   LIG    1        5.004  -7.191  -0.227  0.00  0.00    +0.015 A 
BRANCH  26  29
ATOM     29  N   LIG    1        7.658  -9.815  -0.573  0.00  0.00    +0.006 N 
ATOM     30  O   LIG    1        8.859  -9.883  -0.697  0.00  0.00    -0.130 OA
BRANCH  29  31
ATOM     31  O   LIG    1        6.996 -10.826  -0.532  0.00  0.00    -0.396 OA
ATOM     32  H   LIG    1        6.065 -10.773  -0.436  0.00  0.00    +0.329 HD
ENDBRANCH  29  31
ENDBRANCH  26  29
ENDBRANCH  21  23
ENDBRANCH   3  19
TORSDOF 6
