REMARK  Name = ZINC13607308
REMARK                            x       y       z     vdW  Elec       q    Type
REMARK                         _______ _______ _______ _____ _____    ______ ____
ROOT
ATOM      1  C   LIG    1       -1.184   1.731   0.017  0.00  0.00    +0.008 C 
ATOM      2  C   LIG    1       -0.013   1.076   0.008  0.00  0.00    +0.008 C 
ENDROOT
BRANCH   2   3
ATOM      3  C   LIG    1        1.254   1.830  -0.000  0.00  0.00    -0.022 A 
ATOM      4  C   LIG    1        1.238   3.227   0.002  0.00  0.00    +0.028 A 
ATOM      5  C   LIG    1        2.428   3.927  -0.001  0.00  0.00    +0.043 A 
ATOM      6 CL   LIG    1        2.411   5.663   0.007  0.00  0.00    -0.083 Cl
ATOM      7  C   LIG    1        3.635   3.248  -0.016  0.00  0.00    +0.040 A 
ATOM      8  C   LIG    1        3.657   1.864  -0.023  0.00  0.00    +0.043 A 
ATOM      9 CL   LIG    1        5.175   1.022  -0.043  0.00  0.00    -0.083 Cl
ATOM     10  C   LIG    1        2.475   1.151  -0.015  0.00  0.00    +0.028 A 
ENDBRANCH   2   3
BRANCH   1  14
ATOM     11  C   LIG    1       -4.831  -0.441   0.023  0.00  0.00    +0.120 A 
ATOM     12  C   LIG    1       -4.853   0.948   0.030  0.00  0.00    +0.046 A 
ATOM     13  C   LIG    1       -3.671   1.657   0.029  0.00  0.00    +0.011 A 
ATOM     14  C   LIG    1       -2.450   0.977   0.019  0.00  0.00    -0.025 A 
ATOM     15  C   LIG    1       -2.434  -0.420   0.005  0.00  0.00    +0.011 A 
ATOM     16  C   LIG    1       -3.620  -1.121   0.013  0.00  0.00    +0.046 A 
BRANCH  11  18
ATOM     17  C   LIG    1       -5.904  -2.562   0.018  0.00  0.00    +0.277 C 
ATOM     18  O   LIG    1       -5.998  -1.136   0.025  0.00  0.00    -0.495 OA
ENDBRANCH  11  18
ENDBRANCH   1  14
TORSDOF 3
