REMARK  Name = ZINC13704048
REMARK                            x       y       z     vdW  Elec       q    Type
REMARK                         _______ _______ _______ _____ _____    ______ ____
ROOT
ATOM      1  C   LIG    1       -0.149   1.182   2.380  0.00  0.00    +0.140 A 
ATOM      2  C   LIG    1       -0.742   1.591   3.568  0.00  0.00    +0.071 A 
ATOM      3  C   LIG    1       -0.159   1.192   4.768  0.00  0.00    +0.051 A 
ATOM      4  C   LIG    1        0.986   0.406   4.734  0.00  0.00    +0.134 A 
ATOM      5  N   LIG    1        1.518   0.039   3.586  0.00  0.00    -0.258 NA
ATOM      6  C   LIG    1        0.991   0.392   2.430  0.00  0.00    +0.156 A 
ENDROOT
BRANCH   3   7
ATOM      7  N   LIG    1       -0.718   1.578   5.989  0.00  0.00    -0.330 N 
ATOM      8  C   LIG    1        0.024   1.069   7.063  0.00  0.00    +0.103 C 
ATOM      9  C   LIG    1       -0.690   1.315   8.411  0.00  0.00    -0.000 C 
ATOM     10  C   LIG    1       -0.523   2.762   8.797  0.00  0.00    -0.081 C 
ATOM     11  N   LIG    1       -1.653   3.638   8.350  0.00  0.00    +0.380 N 
ATOM     12  H   LIG    1       -2.445   3.510   8.991  0.00  0.00    -0.086 HD
ATOM     13  H   LIG    1       -1.345   4.617   8.377  0.00  0.00    -0.086 HD
ATOM     14  C   LIG    1       -2.096   3.308   6.962  0.00  0.00    -0.063 C 
ATOM     15  C   LIG    1       -0.940   3.037   6.032  0.00  0.00    +0.086 C 
ENDBRANCH   3   7
BRANCH   1  16
ATOM     16  O   LIG    1       -0.682   1.547   1.184  0.00  0.00    -0.488 OA
BRANCH  16  17
ATOM     17  C   LIG    1       -0.013   1.086   0.008  0.00  0.00    +0.257 C 
BRANCH  17  18
ATOM     18  C   LIG    1       -0.753   1.593  -1.232  0.00  0.00    +0.200 C 
BRANCH  18  20
ATOM     19  C   LIG    1       -1.335   3.596  -2.411  0.00  0.00    +0.194 C 
ATOM     20  O   LIG    1       -0.672   3.018  -1.285  0.00  0.00    -0.380 OA
ENDBRANCH  18  20
ENDBRANCH  17  18
ENDBRANCH  16  17
ENDBRANCH   1  16
TORSDOF 5
