REMARK  Name = ZINC13613027
REMARK                            x       y       z     vdW  Elec       q    Type
REMARK                         _______ _______ _______ _____ _____    ______ ____
ROOT
ATOM      1  C   LIG    1        2.313   4.125  -0.909  0.00  0.00    -0.010 A 
ATOM      2  C   LIG    1        1.138   3.500  -0.605  0.00  0.00    +0.016 A 
ATOM      3  C   LIG    1        1.114   2.091  -0.602  0.00  0.00    +0.001 A 
ATOM      4  C   LIG    1       -0.058   1.386  -0.298  0.00  0.00    +0.021 A 
ATOM      5  C   LIG    1       -0.039  -0.003  -0.307  0.00  0.00    +0.018 A 
ATOM      6  C   LIG    1        1.147  -0.696  -0.618  0.00  0.00    +0.013 A 
ATOM      7  C   LIG    1        2.289  -0.026  -0.913  0.00  0.00    +0.029 A 
ATOM      8  C   LIG    1        2.302   1.382  -0.913  0.00  0.00    +0.073 A 
ATOM      9  N   LIG    1        3.420   2.055  -1.202  0.00  0.00    -0.235 NA
ATOM     10  C   LIG    1        3.446   3.368  -1.206  0.00  0.00    +0.133 A 
ATOM     11 CL   LIG    1        4.930   4.182  -1.589  0.00  0.00    -0.062 Cl
ENDROOT
BRANCH   1  13
ATOM     12  C   LIG    1        3.010   6.124   0.381  0.00  0.00    +0.009 C 
ATOM     13  C   LIG    1        2.386   5.630  -0.925  0.00  0.00    +0.035 C 
ENDBRANCH   1  13
BRANCH   5  14
ATOM     14  C   LIG    1       -1.263  -0.753   0.010  0.00  0.00    +0.166 C 
ATOM     15  O   LIG    1       -2.286  -0.159   0.277  0.00  0.00    -0.292 OA
BRANCH  14  16
ATOM     16  C   LIG    1       -1.247  -2.260   0.001  0.00  0.00    +0.060 C 
ATOM     17  C   LIG    1       -1.255  -2.762  -1.444  0.00  0.00    +0.014 C 
ATOM     18  C   LIG    1       -2.516  -2.262  -2.151  0.00  0.00    +0.032 C 
ATOM     19  C   LIG    1       -3.753  -2.789  -1.421  0.00  0.00    +0.118 C 
ATOM     20  C   LIG    1       -3.745  -2.287   0.024  0.00  0.00    +0.032 C 
ATOM     21  C   LIG    1       -2.484  -2.787   0.731  0.00  0.00    +0.014 C 
BRANCH  19  22
ATOM     22  O   LIG    1       -4.931  -2.322  -2.081  0.00  0.00    -0.380 OA
ATOM     23  C   LIG    1       -5.406  -3.193  -3.110  0.00  0.00    +0.194 C 
ENDBRANCH  19  22
ENDBRANCH  14  16
ENDBRANCH   5  14
TORSDOF 4
