REMARK  Name = ZINC13674440
REMARK                            x       y       z     vdW  Elec       q    Type
REMARK                         _______ _______ _______ _____ _____    ______ ____
ROOT
ATOM      1  C   LIG    1        3.048   3.381   1.609  0.00  0.00    +0.140 C 
ATOM      2  C   LIG    1        2.663   1.934   1.791  0.00  0.00    -0.017 A 
ATOM      3  C   LIG    1        3.172   1.263   2.895  0.00  0.00    +0.006 A 
ATOM      4  C   LIG    1        2.849  -0.059   3.121  0.00  0.00    +0.000 A 
ATOM      5  C   LIG    1        2.012  -0.720   2.241  0.00  0.00    +0.000 A 
ATOM      6  C   LIG    1        1.509  -0.055   1.142  0.00  0.00    +0.006 A 
ATOM      7  C   LIG    1        1.836   1.275   0.910  0.00  0.00    -0.012 A 
ATOM      8  C   LIG    1        1.258   1.932  -0.316  0.00  0.00    +0.162 C 
ATOM      9  C   LIG    1        1.295   3.454  -0.186  0.00  0.00    +0.148 C 
ATOM     10  N   LIG    1        2.639   3.837   0.276  0.00  0.00    -0.254 N 
ATOM     11  C   LIG    1        3.462   4.575  -0.495  0.00  0.00    +0.404 C 
ATOM     12  O   LIG    1        4.567   4.877  -0.090  0.00  0.00    -0.226 OA
ENDROOT
BRANCH   1  16
ATOM     13  C   LIG    1        1.100   5.754   4.580  0.00  0.00    +0.000 A 
ATOM     14  C   LIG    1        0.356   4.930   3.756  0.00  0.00    +0.000 A 
ATOM     15  C   LIG    1        0.986   4.163   2.794  0.00  0.00    +0.006 A 
ATOM     16  C   LIG    1        2.361   4.218   2.657  0.00  0.00    -0.023 A 
ATOM     17  C   LIG    1        3.105   5.038   3.485  0.00  0.00    +0.006 A 
ATOM     18  C   LIG    1        2.474   5.809   4.443  0.00  0.00    +0.000 A 
ENDBRANCH   1  16
BRANCH   8  19
ATOM     19  O   LIG    1       -0.096   1.507  -0.483  0.00  0.00    -0.386 OA
ATOM     20  H   LIG    1       -0.199   0.550  -0.572  0.00  0.00    +0.210 HD
ENDBRANCH   8  19
BRANCH  11  21
ATOM     21  O   LIG    1        3.060   4.978  -1.715  0.00  0.00    -0.449 OA
BRANCH  21  22
ATOM     22  C   LIG    1        3.998   5.770  -2.491  0.00  0.00    +0.165 C 
ATOM     23  C   LIG    1        4.871   4.843  -3.342  0.00  0.00    -0.033 C 
ATOM     24  N   LIG    1        4.698   5.147  -4.779  0.00  0.00    +0.382 N 
ATOM     25  H   LIG    1        5.293   4.514  -5.327  0.00  0.00    -0.082 HD
ATOM     26  C   LIG    1        3.288   4.944  -5.173  0.00  0.00    -0.078 C 
ATOM     27  C   LIG    1        2.370   5.873  -4.374  0.00  0.00    -0.012 C 
ATOM     28  C   LIG    1        5.103   6.543  -5.053  0.00  0.00    -0.078 C 
ATOM     29  C   LIG    1        4.237   7.518  -4.250  0.00  0.00    -0.012 C 
ATOM     30  C   LIG    1        3.227   6.715  -3.420  0.00  0.00    +0.025 C 
ENDBRANCH  21  22
ENDBRANCH  11  21
TORSDOF 4
