REMARK  Name = ZINC13742903
REMARK                            x       y       z     vdW  Elec       q    Type
REMARK                         _______ _______ _______ _____ _____    ______ ____
ROOT
ATOM      1  C   LIG    1        3.304   3.961   1.385  0.00  0.00    +0.006 C 
ATOM      2  C   LIG    1        2.671   4.094  -0.002  0.00  0.00    -0.023 C 
ENDROOT
BRANCH   2   3
ATOM      3  C   LIG    1        1.282   3.453   0.008  0.00  0.00    +0.095 C 
BRANCH   3   4
ATOM      4  P   LIG    1        1.451   1.638  -0.003  0.00  0.00    +0.191 P 
ATOM      5  O   LIG    1        2.203   1.204   1.196  0.00  0.00    -0.294 OA
ATOM      6  H   LIG    1        2.032   1.169  -0.811  0.00  0.00    +0.128 HD
BRANCH   4   7
ATOM      7  O   LIG    1       -0.011   0.963   0.007  0.00  0.00    -0.346 OA
ATOM      8  H   LIG    1       -0.504   1.247  -0.779  0.00  0.00    +0.217 HD
ENDBRANCH   4   7
ENDBRANCH   3   4
ENDBRANCH   2   3
BRANCH   2   9
ATOM      9  C   LIG    1        2.547   5.575  -0.366  0.00  0.00    -0.083 C 
BRANCH   9  10
ATOM     10  N   LIG    1        3.887   6.162  -0.492  0.00  0.00    +0.378 N 
ATOM     11  H   LIG    1        4.423   6.064   0.463  0.00  0.00    -0.090 HD
ATOM     12  H   LIG    1        4.445   5.636  -1.281  0.00  0.00    -0.090 HD
ATOM     13  H   LIG    1        3.798   7.227  -0.754  0.00  0.00    -0.090 HD
ENDBRANCH   9  10
ENDBRANCH   2   9
TORSDOF 5
