REMARK  Name = ZINC13686656
REMARK                            x       y       z     vdW  Elec       q    Type
REMARK                         _______ _______ _______ _____ _____    ______ ____
ROOT
ATOM      1  C   LIG    1       -0.518   1.838  -1.436  0.00  0.00    +0.048 C 
ENDROOT
BRANCH   1   4
ATOM      2  C   LIG    1       -4.289   1.898  -1.667  0.00  0.00    +0.001 A 
ATOM      3  C   LIG    1       -2.990   2.200  -1.298  0.00  0.00    +0.004 A 
ATOM      4  C   LIG    1       -1.929   1.502  -1.846  0.00  0.00    -0.046 A 
ATOM      5  C   LIG    1       -2.158   0.505  -2.770  0.00  0.00    +0.018 A 
ATOM      6  C   LIG    1       -3.467   0.192  -3.144  0.00  0.00    +0.059 A 
ATOM      7  C   LIG    1       -4.534   0.899  -2.587  0.00  0.00    +0.015 A 
BRANCH   6   8
ATOM      8  C   LIG    1       -3.721  -0.879  -4.129  0.00  0.00    +0.337 C 
ATOM      9  O   LIG    1       -2.791  -1.493  -4.612  0.00  0.00    -0.245 OA
BRANCH   8  10
ATOM     10  O   LIG    1       -4.984  -1.176  -4.491  0.00  0.00    -0.477 OA
ATOM     11  H   LIG    1       -5.701  -0.702  -4.119  0.00  0.00    +0.295 HD
ENDBRANCH   8  10
ENDBRANCH   6   8
ENDBRANCH   1   4
BRANCH   1  12
ATOM     12  C   LIG    1       -0.071   0.890  -0.322  0.00  0.00    +0.079 C 
BRANCH  12  13
ATOM     13  C   LIG    1       -0.911   1.128   0.907  0.00  0.00    +0.214 C 
ATOM     14  N   LIG    1       -1.970   0.335   1.163  0.00  0.00    -0.329 N 
ATOM     15  H   LIG    1       -2.553   0.532   1.913  0.00  0.00    +0.145 HD
ATOM     16  H   LIG    1       -2.150  -0.433   0.598  0.00  0.00    +0.145 HD
ATOM     17  O   LIG    1       -0.633   2.033   1.665  0.00  0.00    -0.276 OA
ENDBRANCH  12  13
BRANCH  12  18
ATOM     18  C   LIG    1        1.401   1.148   0.009  0.00  0.00    +0.014 C 
BRANCH  18  19
ATOM     19  C   LIG    1        1.881   0.119   1.033  0.00  0.00    +0.011 C 
BRANCH  19  20
ATOM     20  C   LIG    1        3.353   0.377   1.364  0.00  0.00    +0.065 C 
BRANCH  20  21
ATOM     21  S   LIG    1        3.923  -0.843   2.579  0.00  0.00    -0.178 S 
ATOM     22  H   LIG    1        5.212  -0.518   2.786  0.00  0.00    +0.102 HD
ENDBRANCH  20  21
ENDBRANCH  19  20
ENDBRANCH  18  19
ENDBRANCH  12  18
ENDBRANCH   1  12
TORSDOF 9
