REMARK  Name = ZINC13732802
REMARK                            x       y       z     vdW  Elec       q    Type
REMARK                         _______ _______ _______ _____ _____    ______ ____
ROOT
ATOM      1  C   LIG    1        2.010   6.359   2.966  0.00  0.00    +0.138 C 
ATOM      2  N   LIG    1        1.644   5.882   1.631  0.00  0.00    -0.271 N 
ATOM      3  C   LIG    1        2.638   5.285   0.871  0.00  0.00    +0.045 A 
ATOM      4  C   LIG    1        3.910   5.861   0.912  0.00  0.00    +0.024 A 
ATOM      5  C   LIG    1        4.949   5.321   0.186  0.00  0.00    +0.002 A 
ATOM      6  C   LIG    1        4.740   4.196  -0.595  0.00  0.00    +0.001 A 
ATOM      7  C   LIG    1        3.494   3.616  -0.649  0.00  0.00    +0.012 A 
ATOM      8  C   LIG    1        2.424   4.154   0.091  0.00  0.00    +0.022 A 
ATOM      9  C   LIG    1        1.119   3.485  -0.022  0.00  0.00    +0.077 C 
ATOM     10  N   LIG    1       -0.013   4.089  -0.101  0.00  0.00    -0.251 NA
ATOM     11  C   LIG    1       -0.112   5.548  -0.086  0.00  0.00    +0.280 C 
ATOM     12  C   LIG    1        0.383   6.056   1.241  0.00  0.00    +0.262 C 
ATOM     13  O   LIG    1       -0.386   6.640   1.974  0.00  0.00    -0.271 OA
ENDROOT
BRANCH   9  14
ATOM     14  C   LIG    1        1.107   2.003  -0.039  0.00  0.00    +0.001 A 
ATOM     15  C   LIG    1        2.155   1.288   0.540  0.00  0.00    +0.010 A 
ATOM     16  C   LIG    1        2.138  -0.092   0.521  0.00  0.00    +0.001 A 
ATOM     17  C   LIG    1        1.085  -0.765  -0.071  0.00  0.00    +0.000 A 
ATOM     18  C   LIG    1        0.042  -0.061  -0.647  0.00  0.00    +0.001 A 
ATOM     19  C   LIG    1        0.048   1.318  -0.634  0.00  0.00    +0.010 A 
ENDBRANCH   9  14
BRANCH  11  20
ATOM     20  N   LIG    1       -1.509   5.948  -0.274  0.00  0.00    -0.270 N 
ATOM     21  H   LIG    1       -2.142   5.855   0.455  0.00  0.00    +0.153 HD
ATOM     22  C   LIG    1       -1.914   6.444  -1.460  0.00  0.00    +0.306 C 
ATOM     23  N   LIG    1       -3.199   6.811  -1.633  0.00  0.00    -0.268 N 
ATOM     24  H   LIG    1       -3.812   6.798  -0.882  0.00  0.00    +0.156 HD
ATOM     25  O   LIG    1       -1.120   6.561  -2.373  0.00  0.00    -0.252 OA
BRANCH  23  26
ATOM     26  C   LIG    1       -3.648   7.213  -2.897  0.00  0.00    +0.053 A 
ATOM     27  C   LIG    1       -3.119   6.630  -4.041  0.00  0.00    +0.026 A 
ATOM     28  C   LIG    1       -3.568   7.023  -5.286  0.00  0.00    +0.022 A 
ATOM     29  C   LIG    1       -4.537   8.005  -5.396  0.00  0.00    +0.042 A 
ATOM     30 CL   LIG    1       -5.093   8.502  -6.964  0.00  0.00    -0.083 Cl
ATOM     31  C   LIG    1       -5.062   8.592  -4.259  0.00  0.00    +0.041 A 
ATOM     32  C   LIG    1       -4.621   8.199  -3.010  0.00  0.00    +0.064 A 
ATOM     33 CL   LIG    1       -5.281   8.935  -1.583  0.00  0.00    -0.082 Cl
ENDBRANCH  23  26
ENDBRANCH  11  20
TORSDOF 3
