REMARK  Name = ZINC13675950
REMARK                            x       y       z     vdW  Elec       q    Type
REMARK                         _______ _______ _______ _____ _____    ______ ____
ROOT
ATOM      1  C   LIG    1        2.910  -0.477   2.444  0.00  0.00    +0.202 C 
ATOM      2  N   LIG    1        2.779   0.286   3.547  0.00  0.00    -0.291 N 
ATOM      3  C   LIG    1        1.985   1.524   3.645  0.00  0.00    +0.108 C 
ATOM      4  C   LIG    1        2.624   2.314   4.814  0.00  0.00    +0.021 C 
ATOM      5  C   LIG    1        2.994   1.171   5.797  0.00  0.00    +0.033 C 
ATOM      6  C   LIG    1        3.399   0.019   4.853  0.00  0.00    +0.162 C 
ATOM      7  O   LIG    1        3.592  -1.480   2.478  0.00  0.00    -0.277 OA
ENDROOT
BRANCH   6   8
ATOM      8  C   LIG    1        2.900  -1.294   5.398  0.00  0.00    +0.231 C 
ATOM      9  N   LIG    1        3.340  -1.739   6.592  0.00  0.00    -0.328 N 
ATOM     10  H   LIG    1        3.019  -2.584   6.943  0.00  0.00    +0.145 HD
ATOM     11  H   LIG    1        3.978  -1.214   7.100  0.00  0.00    +0.145 HD
ATOM     12  O   LIG    1        2.102  -1.950   4.763  0.00  0.00    -0.274 OA
ENDBRANCH   6   8
BRANCH   1  13
ATOM     13  C   LIG    1        2.210  -0.086   1.169  0.00  0.00    +0.013 C 
BRANCH  13  14
ATOM     14  N   LIG    1        2.880  -0.743   0.033  0.00  0.00    +0.386 N 
ATOM     15  H   LIG    1        3.870  -0.471   0.022  0.00  0.00    -0.089 HD
ATOM     16  H   LIG    1        2.447  -0.456  -0.843  0.00  0.00    -0.089 HD
ATOM     17  H   LIG    1        2.815  -1.756   0.127  0.00  0.00    -0.089 HD
ENDBRANCH  13  14
BRANCH  13  18
ATOM     18  C   LIG    1        0.742  -0.511   1.242  0.00  0.00    -0.004 C 
BRANCH  18  20
ATOM     19  C   LIG    1       -0.019   1.526   0.010  0.00  0.00    +0.007 C 
ATOM     20  C   LIG    1        0.002  -0.004   0.002  0.00  0.00    -0.018 C 
ATOM     21  C   LIG    1       -1.433  -0.534   0.013  0.00  0.00    +0.007 C 
ENDBRANCH  18  20
ENDBRANCH  13  18
ENDBRANCH   1  13
TORSDOF 5
