REMARK  Name = ZINC13726702
REMARK                            x       y       z     vdW  Elec       q    Type
REMARK                         _______ _______ _______ _____ _____    ______ ____
ROOT
ATOM      1  C   LIG    1       -0.084   5.861  -1.386  0.00  0.00    +0.039 C 
ATOM      2  C   LIG    1        1.089   6.210  -2.027  0.00  0.00    +0.090 C 
ATOM      3  N   LIG    1        1.101   6.673  -3.309  0.00  0.00    -0.289 NA
ATOM      4  H   LIG    1        1.968   6.917  -3.744  0.00  0.00    +0.125 HD
ATOM      5  C   LIG    1       -0.118   6.768  -3.911  0.00  0.00    +0.192 C 
ATOM      6  N   LIG    1       -1.264   6.443  -3.332  0.00  0.00    -0.274 NA
ATOM      7  H   LIG    1       -1.692   5.723  -3.915  0.00  0.00    +0.126 HD
ATOM      8  C   LIG    1       -1.287   5.986  -2.084  0.00  0.00    +0.126 C 
ENDROOT
BRANCH   5   9
ATOM      9  N   LIG    1       -0.129   7.236  -5.213  0.00  0.00    -0.303 NA
ATOM     10  H   LIG    1       -0.968   7.324  -5.690  0.00  0.00    +0.121 HD
ATOM     11  H   LIG    1        0.704   7.477  -5.648  0.00  0.00    +0.121 HD
ENDBRANCH   5   9
BRANCH   8  12
ATOM     12  N   LIG    1       -2.487   5.642  -1.483  0.00  0.00    -0.315 NA
ATOM     13  H   LIG    1       -3.319   5.732  -1.975  0.00  0.00    +0.120 HD
ATOM     14  H   LIG    1       -2.496   5.312  -0.571  0.00  0.00    +0.120 HD
ENDBRANCH   8  12
BRANCH   1  15
ATOM     15  C   LIG    1       -0.065   5.351   0.032  0.00  0.00    +0.042 C 
BRANCH  15  18
ATOM     16  C   LIG    1        1.174   1.783   0.000  0.00  0.00    +0.004 A 
ATOM     17  C   LIG    1        1.156   3.166   0.008  0.00  0.00    +0.004 A 
ATOM     18  C   LIG    1       -0.049   3.844   0.023  0.00  0.00    -0.044 A 
ATOM     19  C   LIG    1       -1.239   3.141   0.031  0.00  0.00    +0.049 A 
ATOM     20  C   LIG    1       -1.223   1.754   0.017  0.00  0.00    +0.117 A 
ATOM     21  C   LIG    1       -0.013   1.076   0.008  0.00  0.00    +0.045 A 
BRANCH  20  22
ATOM     22  O   LIG    1       -2.392   1.060   0.019  0.00  0.00    -0.507 OA
ATOM     23  H   LIG    1       -2.726   0.854   0.903  0.00  0.00    +0.292 HD
ENDBRANCH  20  22
ENDBRANCH  15  18
ENDBRANCH   1  15
TORSDOF 5
