REMARK  Name = ZINC13588588
REMARK                            x       y       z     vdW  Elec       q    Type
REMARK                         _______ _______ _______ _____ _____    ______ ____
ROOT
ATOM      1  N   LIG    1       -0.645   3.040   1.336  0.00  0.00    -0.271 N 
ATOM      2  H   LIG    1        0.080   3.506   0.889  0.00  0.00    +0.153 HD
ATOM      3  C   LIG    1       -1.574   3.737   2.019  0.00  0.00    +0.401 C 
ATOM      4  O   LIG    1       -2.482   3.154   2.578  0.00  0.00    -0.226 OA
ENDROOT
BRANCH   1   5
ATOM      5  CA  LIG    1       -0.729   1.579   1.267  0.00  0.00    +0.143 C 
BRANCH   5   6
ATOM      6  C   LIG    1       -0.074   0.981   2.485  0.00  0.00    +0.245 C 
ATOM      7  O   LIG    1        0.413   1.700   3.324  0.00  0.00    -0.299 OA
ENDBRANCH   5   6
BRANCH   5   8
ATOM      8  C   LIG    1       -0.013   1.086   0.008  0.00  0.00    +0.056 C 
BRANCH   8  11
ATOM      9  C   LIG    1       -0.827   2.768  -3.347  0.00  0.00    +0.035 C 
ATOM     10  C   LIG    1       -0.098   2.269  -2.126  0.00  0.00    -0.034 C 
ATOM     11  C   LIG    1       -0.742   1.585  -1.213  0.00  0.00    -0.029 C 
ENDBRANCH   8  11
ENDBRANCH   5   8
ENDBRANCH   1   5
BRANCH   3  12
ATOM     12  O   LIG    1       -1.497   5.080   2.082  0.00  0.00    -0.445 OA
BRANCH  12  13
ATOM     13  C   LIG    1       -2.532   5.765   2.835  0.00  0.00    +0.107 C 
ATOM     14  C   LIG    1       -3.898   5.461   2.218  0.00  0.00    +0.055 C 
ATOM     15  C   LIG    1       -2.278   7.274   2.795  0.00  0.00    +0.055 C 
ATOM     16  C   LIG    1       -2.510   5.283   4.287  0.00  0.00    +0.055 C 
ENDBRANCH  12  13
ENDBRANCH   3  12
TORSDOF 6
