REMARK  Name = ZINC13604424
REMARK                            x       y       z     vdW  Elec       q    Type
REMARK                         _______ _______ _______ _____ _____    ______ ____
ROOT
ATOM      1  N   LIG    1       -1.210   7.151  -4.408  0.00  0.00    -0.277 N 
ATOM      2  C   LIG    1       -0.252   8.113  -3.874  0.00  0.00    +0.113 C 
ATOM      3  C   LIG    1       -0.677   8.607  -2.492  0.00  0.00    +0.165 C 
ATOM      4  C   LIG    1       -0.322   7.620  -1.401  0.00  0.00    +0.165 C 
ATOM      5  C   LIG    1       -0.831   6.215  -1.634  0.00  0.00    +0.113 C 
ATOM      6  N   LIG    1       -2.079   6.216  -2.393  0.00  0.00    -0.277 N 
ATOM      7  C   LIG    1       -2.107   6.482  -3.708  0.00  0.00    +0.306 C 
ATOM      8  O   LIG    1       -3.098   6.112  -4.318  0.00  0.00    -0.252 OA
ENDROOT
BRANCH   3   9
ATOM      9  O   LIG    1       -0.040   9.862  -2.220  0.00  0.00    -0.387 OA
ATOM     10  H   LIG    1       -0.264  10.238  -1.358  0.00  0.00    +0.210 HD
ENDBRANCH   3   9
BRANCH   4  11
ATOM     11  O   LIG    1       -0.883   8.097  -0.167  0.00  0.00    -0.387 OA
ATOM     12  H   LIG    1       -0.612   8.995   0.068  0.00  0.00    +0.210 HD
ENDBRANCH   4  11
BRANCH   1  13
ATOM     13  C   LIG    1       -1.202   6.941  -5.861  0.00  0.00    +0.138 C 
BRANCH  13  14
ATOM     14  C   LIG    1       -2.225   7.871  -6.516  0.00  0.00    +0.179 C 
BRANCH  14  15
ATOM     15  O   LIG    1       -1.823   9.229  -6.329  0.00  0.00    -0.378 OA
BRANCH  15  17
ATOM     16  C   LIG    1       -2.188  11.597  -6.645  0.00  0.00    +0.034 C 
ATOM     17  C   LIG    1       -2.715  10.185  -6.906  0.00  0.00    +0.156 C 
ENDBRANCH  15  17
ENDBRANCH  14  15
ENDBRANCH  13  14
ENDBRANCH   1  13
BRANCH   2  18
ATOM     18  C   LIG    1        1.150   7.513  -3.853  0.00  0.00    +0.060 C 
BRANCH  18  19
ATOM     19  C   LIG    1        1.625   7.295  -5.266  0.00  0.00    -0.046 A 
ATOM     20  C   LIG    1        1.530   6.042  -5.841  0.00  0.00    +0.004 A 
ATOM     21  C   LIG    1        1.962   5.843  -7.139  0.00  0.00    +0.000 A 
ATOM     22  C   LIG    1        2.496   6.895  -7.859  0.00  0.00    +0.000 A 
ATOM     23  C   LIG    1        2.595   8.147  -7.282  0.00  0.00    +0.000 A 
ATOM     24  C   LIG    1        2.160   8.347  -5.986  0.00  0.00    +0.004 A 
ENDBRANCH  18  19
ENDBRANCH   2  18
BRANCH   5  25
ATOM     25  C   LIG    1       -1.074   5.540  -0.278  0.00  0.00    +0.060 C 
BRANCH  25  26
ATOM     26  C   LIG    1        0.235   5.405   0.458  0.00  0.00    -0.046 A 
ATOM     27  C   LIG    1        0.597   6.349   1.401  0.00  0.00    +0.004 A 
ATOM     28  C   LIG    1        1.798   6.226   2.075  0.00  0.00    +0.000 A 
ATOM     29  C   LIG    1        2.635   5.159   1.806  0.00  0.00    +0.000 A 
ATOM     30  C   LIG    1        2.275   4.219   0.859  0.00  0.00    +0.000 A 
ATOM     31  C   LIG    1        1.073   4.339   0.189  0.00  0.00    +0.004 A 
ENDBRANCH  25  26
ENDBRANCH   5  25
BRANCH   6  32
ATOM     32  C   LIG    1       -3.338   5.915  -1.699  0.00  0.00    +0.138 C 
BRANCH  32  33
ATOM     33  C   LIG    1       -3.980   7.219  -1.218  0.00  0.00    +0.179 C 
BRANCH  33  34
ATOM     34  O   LIG    1       -4.351   8.012  -2.346  0.00  0.00    -0.378 OA
BRANCH  34  35
ATOM     35  C   LIG    1       -4.962   9.258  -2.006  0.00  0.00    +0.156 C 
ATOM     36  C   LIG    1       -5.315  10.020  -3.285  0.00  0.00    +0.034 C 
ENDBRANCH  34  35
ENDBRANCH  33  34
ENDBRANCH  32  33
ENDBRANCH   6  32
TORSDOF 14
