REMARK  Name = ZINC13731308
REMARK                            x       y       z     vdW  Elec       q    Type
REMARK                         _______ _______ _______ _____ _____    ______ ____
ROOT
ATOM      1  C   LIG    1        1.215   3.535   0.009  0.00  0.00    +0.018 A 
ATOM      2  C   LIG    1        0.021   4.179   0.024  0.00  0.00    +0.071 A 
ATOM      3  C   LIG    1       -1.184   3.445   0.031  0.00  0.00    +0.249 A 
ATOM      4  N   LIG    1       -1.192   2.099   0.030  0.00  0.00    -0.322 N 
ATOM      5  C   LIG    1       -0.017   1.389   0.010  0.00  0.00    +0.053 A 
ATOM      6  C   LIG    1        0.002  -0.004   0.002  0.00  0.00    +0.046 A 
ATOM      7  C   LIG    1        1.219  -0.651  -0.013  0.00  0.00    +0.114 A 
ATOM      8  N   LIG    1        2.359   0.018  -0.020  0.00  0.00    -0.248 NA
ATOM      9  C   LIG    1        2.403   1.335  -0.013  0.00  0.00    +0.115 A 
ATOM     10 BR   LIG    1        4.071   2.226  -0.024  0.00  0.00    -0.028 Br
ATOM     11  H   LIG    1       -2.038   1.625   0.040  0.00  0.00    +0.169 HD
ATOM     12  O   LIG    1       -2.245   4.044   0.044  0.00  0.00    -0.268 OA
ATOM     13  C   LIG    1        1.216   2.073   0.002  0.00  0.00    +0.031 A 
ENDROOT
TORSDOF 0
