REMARK  Name = ZINC13680672
REMARK                            x       y       z     vdW  Elec       q    Type
REMARK                         _______ _______ _______ _____ _____    ______ ____
ROOT
ATOM      1  N   LIG    1        6.347  -0.589   2.106  0.00  0.00    -0.167 N 
ATOM      2  C   LIG    1        6.411  -1.199   3.278  0.00  0.00    +0.273 C 
ATOM      3  C   LIG    1        7.473  -2.214   3.438  0.00  0.00    +0.078 C 
ATOM      4  S   LIG    1        8.250  -2.142   1.830  0.00  0.00    -0.060 S 
ATOM      5  C   LIG    1        7.775  -2.988   4.511  0.00  0.00    +0.028 C 
ATOM      6  O   LIG    1        5.635  -0.938   4.178  0.00  0.00    -0.268 OA
ATOM      7  C   LIG    1        7.205  -0.886   1.109  0.00  0.00    +0.137 C 
ATOM      8  S   LIG    1        7.278  -0.217  -0.465  0.00  0.00    -0.026 S 
ENDROOT
BRANCH   5   9
ATOM      9  C   LIG    1        9.001  -3.799   4.509  0.00  0.00    -0.024 A 
ATOM     10  C   LIG    1        9.950  -3.638   3.494  0.00  0.00    +0.009 A 
ATOM     11  C   LIG    1       11.097  -4.402   3.499  0.00  0.00    +0.020 A 
ATOM     12  C   LIG    1       11.311  -5.329   4.508  0.00  0.00    +0.041 A 
ATOM     13 CL   LIG    1       12.759  -6.287   4.506  0.00  0.00    -0.084 Cl
ATOM     14  C   LIG    1       10.376  -5.494   5.516  0.00  0.00    +0.020 A 
ATOM     15  C   LIG    1        9.227  -4.733   5.527  0.00  0.00    +0.009 A 
ENDBRANCH   5   9
BRANCH   1  16
ATOM     16  N   LIG    1        5.361   0.383   1.893  0.00  0.00    -0.100 NA
ATOM     17  H   LIG    1        4.461  -0.072   2.050  0.00  0.00    +0.172 HD
BRANCH  16  18
ATOM     18  S   LIG    1        5.259   1.153   0.431  0.00  0.00    +0.074 S 
ATOM     19  O   LIG    1        6.442   1.929   0.298  0.00  0.00    -0.152 OA
ATOM     20  O   LIG    1        4.883   0.169  -0.522  0.00  0.00    -0.152 OA
BRANCH  18  24
ATOM     21  C   LIG    1        1.815   4.079   0.693  0.00  0.00    +0.000 A 
ATOM     22  C   LIG    1        3.090   4.479   1.048  0.00  0.00    +0.002 A 
ATOM     23  C   LIG    1        4.142   3.585   0.969  0.00  0.00    +0.028 A 
ATOM     24  C   LIG    1        3.919   2.292   0.534  0.00  0.00    +0.107 A 
ATOM     25  C   LIG    1        2.644   1.892   0.180  0.00  0.00    +0.028 A 
ATOM     26  C   LIG    1        1.592   2.786   0.258  0.00  0.00    +0.002 A 
ENDBRANCH  18  24
ENDBRANCH  16  18
ENDBRANCH   1  16
TORSDOF 4
