REMARK  Name = ZINC13684256
REMARK                            x       y       z     vdW  Elec       q    Type
REMARK                         _______ _______ _______ _____ _____    ______ ____
ROOT
ATOM      1  C   LIG    1       -2.321   0.002   0.128  0.00  0.00    +0.248 A 
ATOM      2  C   LIG    1       -3.555  -0.672   0.246  0.00  0.00    +0.134 A 
ATOM      3  C   LIG    1       -3.918  -2.005   0.274  0.00  0.00    +0.023 A 
ATOM      4  C   LIG    1       -2.991  -3.189   0.176  0.00  0.00    +0.050 C 
ATOM      5  C   LIG    1       -5.309  -2.047   0.412  0.00  0.00    +0.144 A 
ATOM      6  C   LIG    1       -5.763  -0.763   0.466  0.00  0.00    +0.159 A 
ATOM      7  N   LIG    1       -4.709   0.080   0.366  0.00  0.00    -0.229 N 
ATOM      8  N   LIG    1       -4.595   1.478   0.363  0.00  0.00    -0.155 NA
ATOM      9  C   LIG    1       -3.422   2.036   0.249  0.00  0.00    +0.247 A 
ATOM     10  N   LIG    1       -2.302   1.323   0.139  0.00  0.00    -0.198 NA
ENDROOT
BRANCH   1  11
ATOM     11  O   LIG    1       -1.168  -0.698   0.009  0.00  0.00    -0.433 OA
BRANCH  11  19
ATOM     12  C   LIG    1        4.795   2.952   2.352  0.00  0.00    +0.063 C 
ATOM     13  C   LIG    1        3.665   2.247   1.648  0.00  0.00    +0.014 A 
ATOM     14  C   LIG    1        2.622   1.663   2.259  0.00  0.00    +0.033 A 
ATOM     15  C   LIG    1        1.768   1.102   1.208  0.00  0.00    +0.039 A 
ATOM     16  C   LIG    1        2.399   1.410  -0.011  0.00  0.00    +0.050 A 
ATOM     17  C   LIG    1        1.816   1.002  -1.206  0.00  0.00    +0.030 A 
ATOM     18  C   LIG    1        0.630   0.302  -1.192  0.00  0.00    +0.051 A 
ATOM     19  C   LIG    1        0.003  -0.005   0.012  0.00  0.00    +0.166 A 
ATOM     20  C   LIG    1        0.565   0.391   1.212  0.00  0.00    +0.175 A 
ATOM     21  F   LIG    1       -0.044   0.093   2.380  0.00  0.00    -0.201 F 
ATOM     22  N   LIG    1        3.549   2.107   0.292  0.00  0.00    -0.358 N 
ATOM     23  H   LIG    1        4.183   2.446  -0.360  0.00  0.00    +0.166 HD
ENDBRANCH  11  19
ENDBRANCH   1  11
BRANCH   5  24
ATOM     24  O   LIG    1       -6.074  -3.171   0.482  0.00  0.00    -0.488 OA
BRANCH  24  25
ATOM     25  C   LIG    1       -7.484  -2.988   0.624  0.00  0.00    +0.260 C 
BRANCH  25  26
ATOM     26  C   LIG    1       -8.172  -4.354   0.684  0.00  0.00    +0.149 C 
ATOM     27  C   LIG    1       -9.665  -4.161   0.960  0.00  0.00    +0.041 C 
BRANCH  26  28
ATOM     28  O   LIG    1       -8.002  -5.029  -0.564  0.00  0.00    -0.389 OA
ATOM     29  H   LIG    1       -8.373  -4.555  -1.321  0.00  0.00    +0.210 HD
ENDBRANCH  26  28
ENDBRANCH  25  26
ENDBRANCH  24  25
ENDBRANCH   5  24
TORSDOF 6
