REMARK  Name = ZINC13730720
REMARK                            x       y       z     vdW  Elec       q    Type
REMARK                         _______ _______ _______ _____ _____    ______ ____
ROOT
ATOM      1  C   LIG    1       -0.987   3.470  -0.802  0.00  0.00    +0.012 C 
ATOM      2  C   LIG    1       -1.247   2.206   0.020  0.00  0.00    +0.019 C 
ENDROOT
BRANCH   2   3
ATOM      3  C   LIG    1       -0.016   1.337   0.009  0.00  0.00    +0.034 A 
ATOM      4  N   LIG    1        0.003  -0.003   0.002  0.00  0.00    -0.350 N 
ATOM      5  H   LIG    1       -0.826  -0.609   0.007  0.00  0.00    +0.166 HD
ATOM      6  C   LIG    1        1.240  -0.418  -0.012  0.00  0.00    +0.171 A 
ATOM      7  N   LIG    1        2.056   0.658  -0.014  0.00  0.00    -0.352 N 
ATOM      8  H   LIG    1        3.056   0.645  -0.024  0.00  0.00    +0.166 HD
ATOM      9  C   LIG    1        1.259   1.771  -0.000  0.00  0.00    +0.105 A 
ENDBRANCH   2   3
BRANCH   2  10
ATOM     10  C   LIG    1       -1.584   2.595   1.461  0.00  0.00    -0.070 C 
ATOM     11  C   LIG    1       -2.834   3.478   1.472  0.00  0.00    -0.014 C 
BRANCH  10  12
ATOM     12  N   LIG    1       -1.812   1.370   2.247  0.00  0.00    +0.380 N 
ATOM     13  H   LIG    1       -0.975   0.778   2.200  0.00  0.00    -0.090 HD
ATOM     14  H   LIG    1       -2.605   0.855   1.869  0.00  0.00    -0.090 HD
ATOM     15  H   LIG    1       -1.995   1.609   3.220  0.00  0.00    -0.090 HD
ENDBRANCH  10  12
ENDBRANCH   2  10
TORSDOF 3
