REMARK  Name = ZINC13657827
REMARK                            x       y       z     vdW  Elec       q    Type
REMARK                         _______ _______ _______ _____ _____    ______ ____
ROOT
ATOM      1  C   LIG    1       -0.017   1.376   0.010  0.00  0.00    +0.001 A 
ATOM      2  C   LIG    1        1.170   2.091   0.002  0.00  0.00    +0.004 A 
ATOM      3  C   LIG    1        2.387   1.435  -0.015  0.00  0.00    +0.046 A 
ATOM      4  C   LIG    1        2.425   0.051  -0.023  0.00  0.00    +0.130 A 
ATOM      5  C   LIG    1        1.222  -0.674  -0.013  0.00  0.00    +0.040 A 
ATOM      6  C   LIG    1        1.296  -2.147  -0.013  0.00  0.00    +0.060 A 
ATOM      7  C   LIG    1        2.509  -2.732   0.307  0.00  0.00    +0.023 A 
ATOM      8  C   LIG    1        3.683  -1.857   0.659  0.00  0.00    +0.267 C 
ATOM      9  C   LIG    1        2.629  -4.126   0.307  0.00  0.00    +0.015 A 
ATOM     10  C   LIG    1        1.500  -4.904  -0.017  0.00  0.00    +0.124 A 
ATOM     11  C   LIG    1        0.281  -4.255  -0.328  0.00  0.00    +0.267 A 
ATOM     12  O   LIG    1       -0.705  -4.915  -0.606  0.00  0.00    -0.266 OA
ATOM     13  N   LIG    1        0.207  -2.910  -0.318  0.00  0.00    -0.321 N 
ATOM     14  H   LIG    1       -0.635  -2.477  -0.532  0.00  0.00    +0.169 HD
ATOM     15  O   LIG    1        3.605  -0.616  -0.043  0.00  0.00    -0.487 OA
ATOM     16  C   LIG    1        0.002  -0.004   0.002  0.00  0.00    +0.013 A 
ENDROOT
BRANCH   9  17
ATOM     17  C   LIG    1        3.918  -4.771   0.641  0.00  0.00    +0.002 A 
ATOM     18  C   LIG    1        4.965  -4.764  -0.282  0.00  0.00    +0.010 A 
ATOM     19  C   LIG    1        6.164  -5.367   0.036  0.00  0.00    +0.001 A 
ATOM     20  C   LIG    1        6.331  -5.978   1.266  0.00  0.00    +0.001 A 
ATOM     21  C   LIG    1        5.298  -5.989   2.186  0.00  0.00    +0.020 A 
ATOM     22  C   LIG    1        4.094  -5.384   1.884  0.00  0.00    +0.049 A 
ATOM     23 CL   LIG    1        2.801  -5.391   3.042  0.00  0.00    -0.083 Cl
ENDBRANCH   9  17
BRANCH  10  24
ATOM     24  C   LIG    1        1.584  -6.333  -0.032  0.00  0.00    +0.105 C 
ATOM     25  N   LIG    1        1.651  -7.467  -0.043  0.00  0.00    -0.191 NA
ENDBRANCH  10  24
TORSDOF 2
