REMARK  Name = ZINC13744604
REMARK                            x       y       z     vdW  Elec       q    Type
REMARK                         _______ _______ _______ _____ _____    ______ ____
ROOT
ATOM      1  C   LIG    1       -2.570   1.711   2.002  0.00  0.00    +0.162 A 
ATOM      2  C   LIG    1       -3.858   1.292   2.289  0.00  0.00    +0.053 A 
ATOM      3  C   LIG    1       -4.532   0.461   1.410  0.00  0.00    -0.038 A 
ATOM      4  C   LIG    1       -3.921   0.051   0.239  0.00  0.00    -0.012 A 
ATOM      5  C   LIG    1       -4.860  -0.844  -0.542  0.00  0.00    +0.148 C 
ATOM      6  C   LIG    1       -6.258  -0.585   0.059  0.00  0.00    +0.027 C 
ATOM      7  C   LIG    1       -2.635   0.472  -0.054  0.00  0.00    +0.055 A 
ATOM      8  C   LIG    1       -5.923  -0.132   1.495  0.00  0.00    +0.042 C 
ATOM      9  C   LIG    1       -1.957   1.303   0.821  0.00  0.00    +0.162 A 
ENDROOT
BRANCH   1  11
ATOM     10  C   LIG    1       -2.600   2.901   4.061  0.00  0.00    +0.277 C 
ATOM     11  O   LIG    1       -1.908   2.523   2.869  0.00  0.00    -0.491 OA
ENDBRANCH   1  11
BRANCH   5  12
ATOM     12  O   LIG    1       -4.842  -0.493  -1.927  0.00  0.00    -0.387 OA
ATOM     13  H   LIG    1       -3.977  -0.595  -2.347  0.00  0.00    +0.210 HD
ENDBRANCH   5  12
BRANCH   9  14
ATOM     14  O   LIG    1       -0.694   1.715   0.531  0.00  0.00    -0.491 OA
ATOM     15  C   LIG    1       -0.126   1.252  -0.696  0.00  0.00    +0.277 C 
ENDBRANCH   9  14
BRANCH   6  16
ATOM     16  C   LIG    1       -7.090  -1.868   0.073  0.00  0.00    +0.010 C 
BRANCH  16  17
ATOM     17  C   LIG    1       -8.510  -1.550   0.546  0.00  0.00    -0.014 C 
ATOM     18  C   LIG    1       -9.304  -2.851   0.695  0.00  0.00    -0.015 C 
ATOM     19  C   LIG    1      -10.740  -2.523   1.107  0.00  0.00    -0.078 C 
ATOM     20  N   LIG    1      -11.359  -1.677   0.065  0.00  0.00    +0.382 N 
ATOM     21  H   LIG    1      -11.297  -2.163  -0.838  0.00  0.00    -0.081 HD
ATOM     22  C   LIG    1      -10.642  -0.388  -0.035  0.00  0.00    -0.078 C 
ATOM     23  C   LIG    1       -9.203  -0.652  -0.483  0.00  0.00    -0.015 C 
BRANCH  20  24
ATOM     24  C   LIG    1      -12.782  -1.440   0.385  0.00  0.00    -0.043 C 
BRANCH  24  25
ATOM     25  C   LIG    1      -13.431  -2.751   0.748  0.00  0.00    -0.064 A 
ATOM     26  C   LIG    1      -14.001  -3.536  -0.237  0.00  0.00    +0.002 A 
ATOM     27  C   LIG    1      -14.593  -4.740   0.096  0.00  0.00    +0.000 A 
ATOM     28  C   LIG    1      -14.623  -5.155   1.414  0.00  0.00    +0.000 A 
ATOM     29  C   LIG    1      -14.056  -4.368   2.399  0.00  0.00    +0.000 A 
ATOM     30  C   LIG    1      -13.461  -3.166   2.066  0.00  0.00    +0.002 A 
ENDBRANCH  24  25
ENDBRANCH  20  24
ENDBRANCH  16  17
ENDBRANCH   6  16
TORSDOF 7
