REMARK  Name = ZINC13686592
REMARK                            x       y       z     vdW  Elec       q    Type
REMARK                         _______ _______ _______ _____ _____    ______ ____
ROOT
ATOM      1  C   LIG    1       -0.630   1.667   3.762  0.00  0.00    +0.049 C 
ENDROOT
BRANCH   1   7
ATOM      2  C   LIG    1       -0.140   0.102   5.652  0.00  0.00    +0.004 A 
ATOM      3  C   LIG    1        0.594  -0.272   6.759  0.00  0.00    +0.015 A 
ATOM      4  C   LIG    1        1.646   0.533   7.200  0.00  0.00    +0.059 A 
ATOM      5  C   LIG    1        1.952   1.710   6.513  0.00  0.00    +0.015 A 
ATOM      6  C   LIG    1        1.214   2.069   5.405  0.00  0.00    +0.004 A 
ATOM      7  C   LIG    1        0.172   1.267   4.973  0.00  0.00    -0.047 A 
BRANCH   4   8
ATOM      8  C   LIG    1        2.433   0.141   8.387  0.00  0.00    +0.337 C 
ATOM      9  O   LIG    1        3.348   0.843   8.768  0.00  0.00    -0.245 OA
BRANCH   8  10
ATOM     10  O   LIG    1        2.135  -0.995   9.047  0.00  0.00    -0.477 OA
ATOM     11  H   LIG    1        1.429  -1.537   8.753  0.00  0.00    +0.295 HD
ENDBRANCH   8  10
ENDBRANCH   4   8
ENDBRANCH   1   7
BRANCH   1  12
ATOM     12  C   LIG    1        0.011   1.072   2.506  0.00  0.00    +0.102 C 
BRANCH  12  13
ATOM     13  C   LIG    1       -0.074  -0.431   2.563  0.00  0.00    +0.308 C 
ATOM     14  O   LIG    1       -0.666  -1.035   1.700  0.00  0.00    -0.251 OA
BRANCH  13  15
ATOM     15  O   LIG    1        0.507  -1.099   3.571  0.00  0.00    -0.480 OA
ATOM     16  H   LIG    1        0.966  -0.631   4.240  0.00  0.00    +0.295 HD
ENDBRANCH  13  15
ENDBRANCH  12  13
BRANCH  12  17
ATOM     17  C   LIG    1       -0.729   1.579   1.267  0.00  0.00    +0.016 C 
BRANCH  17  18
ATOM     18  C   LIG    1       -0.013   1.086   0.008  0.00  0.00    +0.011 C 
BRANCH  18  19
ATOM     19  C   LIG    1       -0.753   1.593  -1.232  0.00  0.00    +0.065 C 
BRANCH  19  20
ATOM     20  S   LIG    1        0.096   1.008  -2.724  0.00  0.00    -0.178 S 
ATOM     21  H   LIG    1       -0.637   1.510  -3.733  0.00  0.00    +0.102 HD
ENDBRANCH  19  20
ENDBRANCH  18  19
ENDBRANCH  17  18
ENDBRANCH  12  17
ENDBRANCH   1  12
TORSDOF 10
