REMARK  Name = ZINC13686985
REMARK                            x       y       z     vdW  Elec       q    Type
REMARK                         _______ _______ _______ _____ _____    ______ ____
ROOT
ATOM      1  C   LIG    1        2.393   0.017  -0.028  0.00  0.00    +0.000 A 
ATOM      2  C   LIG    1        1.202  -0.686  -0.017  0.00  0.00    +0.000 A 
ATOM      3  C   LIG    1        0.002  -0.004   0.002  0.00  0.00    +0.005 A 
ATOM      4  C   LIG    1       -0.017   1.383   0.010  0.00  0.00    -0.030 A 
ATOM      5  C   LIG    1        1.171   2.083   0.002  0.00  0.00    -0.041 A 
ATOM      6  C   LIG    1        1.201   3.590   0.021  0.00  0.00    +0.059 C 
ATOM      7  C   LIG    1       -0.167   4.144  -0.376  0.00  0.00    +0.125 C 
ATOM      8  N   LIG    1       -1.195   3.479   0.440  0.00  0.00    -0.304 NA
ATOM      9  H   LIG    1       -0.897   3.505   1.498  0.00  0.00    +0.123 HD
ATOM     10  C   LIG    1       -1.351   2.082   0.020  0.00  0.00    +0.117 C 
ATOM     11  C   LIG    1        2.376   1.397  -0.018  0.00  0.00    +0.004 A 
ENDROOT
BRANCH   7  12
ATOM     12  C   LIG    1       -0.204   5.652  -0.120  0.00  0.00    +0.358 C 
ATOM     13  F   LIG    1        0.021   5.900   1.238  0.00  0.00    -0.208 F 
ATOM     14  F   LIG    1       -1.458   6.156  -0.484  0.00  0.00    -0.208 F 
ENDBRANCH   7  12
TORSDOF 1
