REMARK  Name = ZINC13686965
REMARK                            x       y       z     vdW  Elec       q    Type
REMARK                         _______ _______ _______ _____ _____    ______ ____
ROOT
ATOM      1  C   LIG    1       -0.017   1.373   0.010  0.00  0.00    +0.019 A 
ATOM      2  C   LIG    1        0.002  -0.004   0.002  0.00  0.00    +0.005 A 
ATOM      3  C   LIG    1        1.207  -0.694  -0.012  0.00  0.00    -0.041 A 
ATOM      4  C   LIG    1        2.401  -0.001  -0.018  0.00  0.00    -0.029 A 
ATOM      5  C   LIG    1        3.730  -0.709  -0.026  0.00  0.00    +0.117 C 
ATOM      6  N   LIG    1        3.566  -2.105  -0.442  0.00  0.00    -0.304 NA
ATOM      7  H   LIG    1        3.264  -2.140  -1.499  0.00  0.00    +0.123 HD
ATOM      8  C   LIG    1        2.533  -2.761   0.376  0.00  0.00    +0.125 C 
ATOM      9  C   LIG    1        2.394   1.383  -0.012  0.00  0.00    +0.024 A 
ATOM     10  C   LIG    1        1.168  -2.201  -0.025  0.00  0.00    +0.059 C 
ATOM     11  C   LIG    1        1.187   2.081   0.002  0.00  0.00    +0.052 A 
ENDROOT
BRANCH   8  12
ATOM     12  C   LIG    1        2.562  -4.271   0.126  0.00  0.00    +0.358 C 
ATOM     13  F   LIG    1        2.336  -4.524  -1.231  0.00  0.00    -0.208 F 
ATOM     14  F   LIG    1        1.564  -4.888   0.888  0.00  0.00    -0.208 F 
ENDBRANCH   8  12
BRANCH  11  15
ATOM     15  C   LIG    1        1.182   3.513   0.008  0.00  0.00    +0.099 C 
ATOM     16  N   LIG    1        1.177   4.649   0.012  0.00  0.00    -0.191 NA
ENDBRANCH  11  15
TORSDOF 2
