REMARK  Name = ZINC13588706
REMARK                            x       y       z     vdW  Elec       q    Type
REMARK                         _______ _______ _______ _____ _____    ______ ____
ROOT
ATOM      1  C   LIG    1        0.002  -0.004   0.002  0.00  0.00    +0.123 C 
ATOM      2  C   LIG    1       -0.019   1.544   0.011  0.00  0.00    +0.195 C 
ATOM      3  C   LIG    1       -0.685   2.077   1.280  0.00  0.00    +0.054 C 
ATOM      4  O   LIG    1        1.391   1.847  -0.001  0.00  0.00    -0.462 OA
ATOM      5  C   LIG    1        2.042   0.792   0.527  0.00  0.00    +0.254 C 
ATOM      6  N   LIG    1        1.336  -0.296   0.563  0.00  0.00    -0.337 N 
ATOM      7  H   LIG    1        1.771  -1.221   0.969  0.00  0.00    +0.164 HD
ENDROOT
BRANCH   5   8
ATOM      8  N   LIG    1        3.335   0.862   0.986  0.00  0.00    -0.315 N 
ATOM      9  H   LIG    1        3.887   1.812   0.931  0.00  0.00    +0.147 HD
ATOM     10  H   LIG    1        3.818  -0.032   1.408  0.00  0.00    +0.147 HD
ENDBRANCH   5   8
BRANCH   1  12
ATOM     11  C   LIG    1       -1.132  -2.095   0.767  0.00  0.00    +0.006 C 
ATOM     12  C   LIG    1       -1.103  -0.571   0.896  0.00  0.00    +0.025 C 
ENDBRANCH   1  12
TORSDOF 2
