REMARK  Name = ZINC13651052
REMARK                            x       y       z     vdW  Elec       q    Type
REMARK                         _______ _______ _______ _____ _____    ______ ____
ROOT
ATOM      1  C   LIG    1       -3.437   5.473  -6.477  0.00  0.00    +0.003 A 
ATOM      2  C   LIG    1       -3.542   4.691  -5.331  0.00  0.00    +0.010 A 
ATOM      3  C   LIG    1       -2.918   5.146  -4.161  0.00  0.00    +0.005 A 
ATOM      4  C   LIG    1       -2.820   4.606  -2.822  0.00  0.00    -0.013 A 
ATOM      5  C   LIG    1       -2.083   5.476  -2.095  0.00  0.00    +0.062 A 
ATOM      6  C   LIG    1       -1.726   5.275  -0.655  0.00  0.00    +0.233 C 
ATOM      7  C   LIG    1       -2.380   4.019  -0.088  0.00  0.00    +0.068 C 
ATOM      8  C   LIG    1       -2.592   4.141   1.418  0.00  0.00    -0.000 C 
ATOM      9  C   LIG    1       -2.994   2.773   1.980  0.00  0.00    -0.077 C 
ATOM     10  N   LIG    1       -4.225   2.318   1.296  0.00  0.00    +0.384 N 
ATOM     11  H   LIG    1       -4.957   3.027   1.423  0.00  0.00    -0.081 HD
ATOM     12  C   LIG    1       -3.975   2.144  -0.151  0.00  0.00    -0.031 C 
ATOM     13  C   LIG    1       -2.912   1.086  -0.397  0.00  0.00    +0.023 C 
ATOM     14  C   LIG    1       -1.532   1.622  -0.505  0.00  0.00    -0.041 A 
ATOM     15  C   LIG    1       -0.404   0.864  -0.761  0.00  0.00    +0.007 A 
ATOM     16  C   LIG    1        0.826   1.478  -0.932  0.00  0.00    +0.049 A 
ATOM     17  C   LIG    1        1.005   2.858  -0.872  0.00  0.00    +0.159 A 
ATOM     18  C   LIG    1       -0.128   3.636  -0.604  0.00  0.00    +0.167 A 
ATOM     19  C   LIG    1       -1.328   2.979  -0.383  0.00  0.00    +0.014 A 
ATOM     20  C   LIG    1       -3.643   3.511  -0.769  0.00  0.00    +0.072 C 
ATOM     21  O   LIG    1       -0.307   4.973  -0.549  0.00  0.00    -0.478 OA
ATOM     22  N   LIG    1       -1.714   6.532  -2.886  0.00  0.00    -0.353 N 
ATOM     23  H   LIG    1       -1.184   7.289  -2.592  0.00  0.00    +0.166 HD
ATOM     24  C   LIG    1       -3.399   3.329  -2.273  0.00  0.00    +0.071 C 
ATOM     25  C   LIG    1       -2.199   6.364  -4.138  0.00  0.00    +0.073 A 
ATOM     26  C   LIG    1       -2.096   7.179  -5.355  0.00  0.00    +0.098 A 
ATOM     27  C   LIG    1       -2.753   6.662  -6.510  0.00  0.00    +0.030 A 
ENDROOT
BRANCH  26  28
ATOM     28  N   LIG    1       -1.435   8.325  -5.378  0.00  0.00    -0.195 NA
ATOM     29  C   LIG    1       -1.372   8.989  -6.434  0.00  0.00    +0.042 C 
ATOM     30  S   LIG    1       -1.293   9.815  -7.748  0.00  0.00    +0.021 S 
ENDBRANCH  26  28
BRANCH  17  31
ATOM     31  O   LIG    1        2.226   3.425  -1.066  0.00  0.00    -0.503 OA
ATOM     32  H   LIG    1        2.415   3.647  -1.988  0.00  0.00    +0.292 HD
ENDBRANCH  17  31
BRANCH  20  33
ATOM     33  O   LIG    1       -4.721   4.424  -0.552  0.00  0.00    -0.389 OA
ATOM     34  H   LIG    1       -5.554   4.155  -0.962  0.00  0.00    +0.210 HD
ENDBRANCH  20  33
BRANCH  10  35
ATOM     35  C   LIG    1       -4.686   1.044   1.882  0.00  0.00    -0.075 C 
BRANCH  35  36
ATOM     36  C   LIG    1       -4.824   1.216   3.397  0.00  0.00    -0.028 C 
ATOM     37  C   LIG    1       -3.930   0.353   4.290  0.00  0.00    +0.002 C 
ATOM     38  C   LIG    1       -5.428   0.055   4.187  0.00  0.00    +0.002 C 
ENDBRANCH  35  36
ENDBRANCH  10  35
TORSDOF 5
