REMARK  Name = ZINC13607837
REMARK                            x       y       z     vdW  Elec       q    Type
REMARK                         _______ _______ _______ _____ _____    ______ ____
ROOT
ATOM      1  C   LIG    1        4.873   1.085  -0.039  0.00  0.00    +0.186 C 
ATOM      2  O   LIG    1        4.893  -0.132  -0.045  0.00  0.00    -0.287 OA
ENDROOT
BRANCH   1   3
ATOM      3  C   LIG    1        6.140   1.845  -0.047  0.00  0.00    +0.029 A 
ATOM      4  C   LIG    1        6.119   3.242  -0.045  0.00  0.00    +0.061 A 
ATOM      5  C   LIG    1        7.306   3.950  -0.047  0.00  0.00    +0.166 A 
ATOM      6  C   LIG    1        8.522   3.272  -0.063  0.00  0.00    +0.204 A 
ATOM      7  C   LIG    1        8.546   1.879  -0.070  0.00  0.00    +0.166 A 
ATOM      8  C   LIG    1        7.362   1.167  -0.062  0.00  0.00    +0.061 A 
BRANCH   5   9
ATOM      9  O   LIG    1        7.286   5.309  -0.040  0.00  0.00    -0.491 OA
ATOM     10  C   LIG    1        6.003   5.939  -0.025  0.00  0.00    +0.277 C 
ENDBRANCH   5   9
BRANCH   6  11
ATOM     11  O   LIG    1        9.688   3.970  -0.070  0.00  0.00    -0.488 OA
ATOM     12  C   LIG    1       10.233   4.310  -1.347  0.00  0.00    +0.277 C 
ENDBRANCH   6  11
BRANCH   7  13
ATOM     13  O   LIG    1        9.736   1.220  -0.085  0.00  0.00    -0.491 OA
ATOM     14  C   LIG    1        9.686  -0.208  -0.092  0.00  0.00    +0.277 C 
ENDBRANCH   7  13
ENDBRANCH   1   3
BRANCH   1  16
ATOM     15  C   LIG    1        2.474   1.079  -0.016  0.00  0.00    +0.012 C 
ATOM     16  C   LIG    1        3.634   1.774  -0.023  0.00  0.00    +0.052 C 
BRANCH  15  20
ATOM     17  C   LIG    1       -1.235   3.138   0.029  0.00  0.00    +0.155 A 
ATOM     18  C   LIG    1       -1.214   1.749   0.017  0.00  0.00    +0.049 A 
ATOM     19  C   LIG    1       -0.013   1.076   0.008  0.00  0.00    +0.011 A 
ATOM     20  C   LIG    1        1.190   1.793   0.000  0.00  0.00    -0.022 A 
ATOM     21  C   LIG    1        1.165   3.193   0.008  0.00  0.00    +0.050 A 
ATOM     22  C   LIG    1       -0.043   3.858   0.022  0.00  0.00    +0.165 A 
ATOM     23  F   LIG    1       -0.070   5.208   0.029  0.00  0.00    -0.202 F 
BRANCH  17  25
ATOM     24  C   LIG    1       -3.607   2.998   0.050  0.00  0.00    +0.277 C 
ATOM     25  O   LIG    1       -2.422   3.797   0.043  0.00  0.00    -0.492 OA
ENDBRANCH  17  25
ENDBRANCH  15  20
ENDBRANCH   1  16
TORSDOF 7
