REMARK  Name = ZINC13680355
REMARK                            x       y       z     vdW  Elec       q    Type
REMARK                         _______ _______ _______ _____ _____    ______ ____
ROOT
ATOM      1  N   LIG    1       -2.787  -2.571   0.015  0.00  0.00    -0.311 N 
ATOM      2  C   LIG    1       -3.407  -2.804   1.226  0.00  0.00    +0.056 A 
ATOM      3  C   LIG    1       -2.740  -2.562   2.423  0.00  0.00    +0.026 A 
ATOM      4  C   LIG    1       -3.373  -2.800   3.623  0.00  0.00    +0.002 A 
ATOM      5  C   LIG    1       -4.675  -3.281   3.654  0.00  0.00    +0.001 A 
ATOM      6  C   LIG    1       -5.353  -3.527   2.480  0.00  0.00    +0.014 A 
ATOM      7  C   LIG    1       -4.724  -3.290   1.258  0.00  0.00    +0.046 A 
ATOM      8  C   LIG    1       -5.420  -3.542  -0.018  0.00  0.00    +0.208 A 
ATOM      9  O   LIG    1       -6.564  -3.965  -0.037  0.00  0.00    -0.286 OA
ATOM     10  C   LIG    1       -4.715  -3.278  -1.222  0.00  0.00    +0.174 A 
ATOM     11  C   LIG    1       -3.416  -2.792  -1.164  0.00  0.00    +0.212 A 
ENDROOT
BRANCH  10  12
ATOM     12  C   LIG    1       -5.361  -3.512  -2.525  0.00  0.00    +0.358 C 
ATOM     13  N   LIG    1       -4.664  -3.257  -3.588  0.00  0.00    +0.096 NA
ATOM     14  S   LIG    1       -5.307  -3.478  -5.101  0.00  0.00    +0.183 S 
ATOM     15  C   LIG    1       -7.046  -3.650  -4.868  0.00  0.00    +0.179 A 
ATOM     16  C   LIG    1       -7.913  -3.557  -5.934  0.00  0.00    +0.035 A 
ATOM     17  C   LIG    1       -9.275  -3.693  -5.728  0.00  0.00    +0.002 A 
ATOM     18  C   LIG    1       -9.762  -3.920  -4.453  0.00  0.00    +0.004 A 
ATOM     19  C   LIG    1       -8.896  -4.014  -3.382  0.00  0.00    +0.051 A 
ATOM     20  C   LIG    1       -7.527  -3.880  -3.584  0.00  0.00    +0.148 A 
ATOM     21  O   LIG    1       -4.826  -4.729  -5.572  0.00  0.00    -0.125 OA
ATOM     22  O   LIG    1       -5.106  -2.264  -5.813  0.00  0.00    -0.125 OA
ATOM     23  N   LIG    1       -6.642  -3.985  -2.513  0.00  0.00    -0.196 N 
ATOM     24  H   LIG    1       -6.961  -4.428  -1.694  0.00  0.00    +0.299 HD
ENDBRANCH  10  12
BRANCH  11  25
ATOM     25  O   LIG    1       -2.759  -2.539  -2.313  0.00  0.00    -0.493 OA
ATOM     26  H   LIG    1       -1.881  -2.211  -2.289  0.00  0.00    +0.294 HD
ENDBRANCH  11  25
BRANCH   1  27
ATOM     27  C   LIG    1       -1.413  -2.063   0.004  0.00  0.00    +0.125 C 
BRANCH  27  28
ATOM     28  C   LIG    1       -1.433  -0.534   0.013  0.00  0.00    +0.021 C 
BRANCH  28  30
ATOM     29  C   LIG    1       -0.019   1.526   0.010  0.00  0.00    +0.004 C 
ATOM     30  C   LIG    1        0.002  -0.004   0.002  0.00  0.00    -0.002 C 
ENDBRANCH  28  30
ENDBRANCH  27  28
ENDBRANCH   1  27
TORSDOF 5
