REMARK  Name = ZINC13732963
REMARK                            x       y       z     vdW  Elec       q    Type
REMARK                         _______ _______ _______ _____ _____    ______ ____
ROOT
ATOM      1  C   LIG    1        2.401   1.179  -0.169  0.00  0.00    +0.138 C 
ATOM      2  N   LIG    1        1.153   1.937  -0.054  0.00  0.00    -0.271 N 
ATOM      3  C   LIG    1        1.248   3.318   0.018  0.00  0.00    +0.045 A 
ATOM      4  C   LIG    1        2.278   3.851   0.795  0.00  0.00    +0.024 A 
ATOM      5  C   LIG    1        2.437   5.214   0.913  0.00  0.00    +0.002 A 
ATOM      6  C   LIG    1        1.571   6.074   0.257  0.00  0.00    +0.001 A 
ATOM      7  C   LIG    1        0.551   5.567  -0.514  0.00  0.00    +0.012 A 
ATOM      8  C   LIG    1        0.375   4.181  -0.642  0.00  0.00    +0.022 A 
ATOM      9  C   LIG    1       -0.741   3.709  -1.478  0.00  0.00    +0.077 C 
ATOM     10  N   LIG    1       -1.504   2.715  -1.192  0.00  0.00    -0.251 NA
ATOM     11  C   LIG    1       -1.324   1.928   0.021  0.00  0.00    +0.280 C 
ATOM     12  C   LIG    1        0.016   1.246  -0.027  0.00  0.00    +0.262 C 
ATOM     13  O   LIG    1        0.061   0.034  -0.046  0.00  0.00    -0.271 OA
ENDROOT
BRANCH   9  14
ATOM     14  C   LIG    1       -1.004   4.434  -2.743  0.00  0.00    +0.001 A 
ATOM     15  C   LIG    1       -2.277   4.410  -3.312  0.00  0.00    +0.010 A 
ATOM     16  C   LIG    1       -2.517   5.092  -4.487  0.00  0.00    +0.001 A 
ATOM     17  C   LIG    1       -1.496   5.789  -5.106  0.00  0.00    +0.000 A 
ATOM     18  C   LIG    1       -0.230   5.813  -4.550  0.00  0.00    +0.001 A 
ATOM     19  C   LIG    1        0.022   5.140  -3.372  0.00  0.00    +0.010 A 
ENDBRANCH   9  14
BRANCH  11  20
ATOM     20  N   LIG    1       -1.383   2.813   1.187  0.00  0.00    -0.270 N 
ATOM     21  H   LIG    1       -0.634   3.393   1.394  0.00  0.00    +0.153 HD
ATOM     22  C   LIG    1       -2.478   2.820   1.973  0.00  0.00    +0.306 C 
ATOM     23  N   LIG    1       -2.533   3.633   3.046  0.00  0.00    -0.269 N 
ATOM     24  H   LIG    1       -1.808   4.254   3.221  0.00  0.00    +0.156 HD
ATOM     25  O   LIG    1       -3.417   2.092   1.713  0.00  0.00    -0.252 OA
BRANCH  23  26
ATOM     26  C   LIG    1       -3.632   3.582   3.906  0.00  0.00    +0.042 A 
ATOM     27  C   LIG    1       -4.855   3.144   3.445  0.00  0.00    +0.024 A 
ATOM     28  C   LIG    1       -5.955   3.085   4.295  0.00  0.00    +0.002 A 
ATOM     29  C   LIG    1       -5.858   3.466   5.599  0.00  0.00    +0.008 A 
ATOM     30  C   LIG    1       -4.630   3.923   6.106  0.00  0.00    -0.016 A 
ATOM     31  C   LIG    1       -4.500   4.323   7.448  0.00  0.00    +0.008 A 
ATOM     32  C   LIG    1       -3.296   4.761   7.906  0.00  0.00    +0.001 A 
ATOM     33  C   LIG    1       -2.186   4.820   7.065  0.00  0.00    +0.001 A 
ATOM     34  C   LIG    1       -2.276   4.441   5.760  0.00  0.00    +0.010 A 
ATOM     35  C   LIG    1       -3.502   3.983   5.252  0.00  0.00    +0.003 A 
ENDBRANCH  23  26
ENDBRANCH  11  20
TORSDOF 3
