REMARK  Name = ZINC13683452
REMARK                            x       y       z     vdW  Elec       q    Type
REMARK                         _______ _______ _______ _____ _____    ______ ____
ROOT
ATOM      1  C   UNK A  0        0.082   1.024   2.841  0.00  0.00    +0.274 A 
ATOM      2  N   UNK A  1       -0.233  -0.154   3.329  0.00  0.00    -0.201 NA
ATOM      3  C   UNK A  1        0.458  -0.684   4.341  0.00  0.00    +0.197 A 
ATOM      4  C   UNK A  1        1.521   0.042   4.885  0.00  0.00    +0.212 A 
ATOM      5  C   UNK A  1        1.814   1.298   4.332  0.00  0.00    +0.261 A 
ATOM      6  N   UNK A  1        1.078   1.743   3.325  0.00  0.00    -0.174 NA
ENDROOT
BRANCH   1   8
ATOM      7  C   UNK A  0       -0.013   1.086   0.008  0.00  0.00    +0.204 C 
ATOM      8  S   UNK A  0       -0.862   1.671   1.500  0.00  0.00    +0.029 S 
ATOM      9  O   UNK A  0       -2.133   1.046   1.617  0.00  0.00    -0.167 OA
ATOM     10  O   UNK A  0       -0.735   3.082   1.615  0.00  0.00    -0.167 OA
ENDBRANCH   1   8
BRANCH   3  11
ATOM     11  C   UNK A  1        0.100  -2.015   4.881  0.00  0.00    +0.359 C 
ATOM     12  O   UNK A  1        0.732  -2.485   5.805  0.00  0.00    -0.243 OA
BRANCH  11  13
ATOM     13  O   UNK A  1       -0.927  -2.704   4.347  0.00  0.00    -0.476 OA
ATOM     14  H   UNK A  1       -1.415  -2.341   3.634  0.00  0.00    +0.295 HD
ENDBRANCH  11  13
ENDBRANCH   3  11
BRANCH   4  15
ATOM     15  O   UNK A  1        2.248  -0.454   5.917  0.00  0.00    -0.501 OA
ATOM     16  H   UNK A  1        3.082   0.131   6.334  0.00  0.00    +0.292 HD
ENDBRANCH   4  15
BRANCH   5  17
ATOM     17  O   UNK A  1        2.834   2.045   4.822  0.00  0.00    -0.490 OA
ATOM     18  H   UNK A  1        3.350   1.723   5.535  0.00  0.00    +0.294 HD
ENDBRANCH   5  17
TORSDOF 5
