REMARK  Name = ZINC13608106
REMARK                            x       y       z     vdW  Elec       q    Type
REMARK                         _______ _______ _______ _____ _____    ______ ____
ROOT
ATOM      1  C   LIG    1        6.273  -2.374  -0.797  0.00  0.00    +0.044 C 
ATOM      2  C   LIG    1        5.762  -2.098   0.593  0.00  0.00    -0.050 A 
ATOM      3  C   LIG    1        6.476  -2.550   1.693  0.00  0.00    +0.007 A 
ATOM      4  C   LIG    1        6.023  -2.308   2.973  0.00  0.00    +0.047 A 
ATOM      5  C   LIG    1        4.841  -1.604   3.169  0.00  0.00    +0.141 A 
ATOM      6  C   LIG    1        4.119  -1.146   2.056  0.00  0.00    +0.039 A 
ATOM      7  C   LIG    1        2.868  -0.401   2.277  0.00  0.00    +0.047 A 
ATOM      8  C   LIG    1        2.470  -0.184   3.571  0.00  0.00    +0.115 A 
ATOM      9  C   LIG    1        3.245  -0.678   4.628  0.00  0.00    +0.339 A 
ATOM     10  O   LIG    1        2.877  -0.483   5.774  0.00  0.00    -0.245 OA
ATOM     11  O   LIG    1        4.384  -1.357   4.415  0.00  0.00    -0.422 OA
ATOM     12  C   LIG    1        4.589  -1.397   0.766  0.00  0.00    +0.016 A 
ENDROOT
BRANCH   7  13
ATOM     13  N   LIG    1        2.125   0.070   1.217  0.00  0.00    -0.325 N 
ATOM     14  C   LIG    1        0.772  -0.505   1.227  0.00  0.00    +0.133 C 
ATOM     15  C   LIG    1        0.002  -0.004   0.002  0.00  0.00    +0.178 C 
ATOM     16  O   LIG    1       -0.017   1.426   0.010  0.00  0.00    -0.377 OA
ATOM     17  C   LIG    1        1.284   2.019   0.001  0.00  0.00    +0.178 C 
ATOM     18  C   LIG    1        2.067   1.539   1.225  0.00  0.00    +0.133 C 
ENDBRANCH   7  13
TORSDOF 1
