REMARK  Name = ZINC13657906
REMARK                            x       y       z     vdW  Elec       q    Type
REMARK                         _______ _______ _______ _____ _____    ______ ____
ROOT
ATOM      1  C   LIG    1       -0.018   1.503   0.010  0.00  0.00    +0.070 C 
ATOM      2  C   LIG    1        0.002  -0.004   0.002  0.00  0.00    +0.093 C 
ATOM      3  N   LIG    1        0.008  -0.779  -1.052  0.00  0.00    -0.149 NA
ATOM      4  N   LIG    1        0.027  -2.023  -0.751  0.00  0.00    -0.109 NA
ATOM      5  C   LIG    1        0.035  -2.210   0.551  0.00  0.00    +0.261 C 
ATOM      6  C   LIG    1        0.025  -0.861   1.141  0.00  0.00    +0.167 C 
ATOM      7  N   LIG    1        0.032  -0.524   2.424  0.00  0.00    -0.175 NA
ENDROOT
BRANCH   5   8
ATOM      8  O   LIG    1        0.054  -3.395   1.212  0.00  0.00    -0.490 OA
ATOM      9  H   LIG    1        0.059  -4.200   0.732  0.00  0.00    +0.294 HD
ENDBRANCH   5   8
BRANCH   7  10
ATOM     10  N   LIG    1        0.053  -1.440   3.331  0.00  0.00    -0.236 N 
ATOM     11  H   LIG    1        0.064  -2.376   3.076  0.00  0.00    +0.174 HD
BRANCH  10  12
ATOM     12  C   LIG    1        0.061  -1.086   4.680  0.00  0.00    +0.067 A 
ATOM     13  C   LIG    1        0.040   0.254   5.049  0.00  0.00    +0.026 A 
ATOM     14  C   LIG    1        0.048   0.601   6.385  0.00  0.00    +0.002 A 
ATOM     15  C   LIG    1        0.077  -0.383   7.357  0.00  0.00    +0.002 A 
ATOM     16  C   LIG    1        0.098  -1.717   6.996  0.00  0.00    +0.022 A 
ATOM     17  C   LIG    1        0.084  -2.073   5.661  0.00  0.00    +0.063 A 
ATOM     18 CL   LIG    1        0.102  -3.748   5.207  0.00  0.00    -0.082 Cl
ENDBRANCH  10  12
ENDBRANCH   7  10
TORSDOF 3
