REMARK  Name = ZINC13648120
REMARK                            x       y       z     vdW  Elec       q    Type
REMARK                         _______ _______ _______ _____ _____    ______ ____
ROOT
ATOM      1  C   LIG    1       -2.513  -0.731   0.069  0.00  0.00    -0.037 C 
ATOM      2  C   LIG    1       -2.741  -1.380   1.222  0.00  0.00    -0.037 C 
ENDROOT
BRANCH   1   3
ATOM      3  C   LIG    1       -2.141  -1.486  -1.140  0.00  0.00    -0.021 A 
ATOM      4  C   LIG    1       -0.894  -2.113  -1.220  0.00  0.00    +0.012 A 
ATOM      5  C   LIG    1       -0.553  -2.822  -2.351  0.00  0.00    +0.046 A 
ATOM      6  C   LIG    1       -1.442  -2.906  -3.415  0.00  0.00    +0.120 A 
ATOM      7  C   LIG    1       -2.679  -2.280  -3.343  0.00  0.00    +0.046 A 
ATOM      8  C   LIG    1       -3.032  -1.573  -2.214  0.00  0.00    +0.012 A 
BRANCH   6   9
ATOM      9  O   LIG    1       -1.099  -3.602  -4.530  0.00  0.00    -0.494 OA
BRANCH   9  10
ATOM     10  C   LIG    1        0.189  -4.221  -4.538  0.00  0.00    +0.210 C 
BRANCH  10  11
ATOM     11  C   LIG    1        0.395  -4.954  -5.866  0.00  0.00    -0.037 C 
BRANCH  11  12
ATOM     12  N   LIG    1        0.403  -3.962  -6.961  0.00  0.00    +0.382 N 
ATOM     13  H   LIG    1       -0.434  -3.372  -6.883  0.00  0.00    -0.082 HD
BRANCH  12  14
ATOM     14  C   LIG    1        1.603  -3.106  -6.859  0.00  0.00    -0.082 C 
ATOM     15  C   LIG    1        2.874  -3.959  -6.883  0.00  0.00    -0.017 C 
ENDBRANCH  12  14
BRANCH  12  16
ATOM     16  C   LIG    1        0.384  -4.652  -8.268  0.00  0.00    -0.082 C 
ATOM     17  C   LIG    1        0.023  -3.637  -9.355  0.00  0.00    -0.017 C 
ENDBRANCH  12  16
ENDBRANCH  11  12
ENDBRANCH  10  11
ENDBRANCH   9  10
ENDBRANCH   6   9
ENDBRANCH   1   3
BRANCH   2  18
ATOM     18  C   LIG    1       -3.232  -0.641   2.399  0.00  0.00    -0.021 A 
ATOM     19  C   LIG    1       -2.416  -0.494   3.524  0.00  0.00    +0.012 A 
ATOM     20  C   LIG    1       -2.877   0.202   4.621  0.00  0.00    +0.046 A 
ATOM     21  C   LIG    1       -4.154   0.748   4.612  0.00  0.00    +0.120 A 
ATOM     22  C   LIG    1       -4.971   0.600   3.498  0.00  0.00    +0.046 A 
ATOM     23  C   LIG    1       -4.516  -0.090   2.395  0.00  0.00    +0.012 A 
BRANCH  21  24
ATOM     24  O   LIG    1       -4.606   1.430   5.697  0.00  0.00    -0.494 OA
BRANCH  24  25
ATOM     25  C   LIG    1       -3.716   1.545   6.809  0.00  0.00    +0.210 C 
BRANCH  25  26
ATOM     26  C   LIG    1       -4.395   2.339   7.926  0.00  0.00    -0.037 C 
BRANCH  26  27
ATOM     27  N   LIG    1       -5.566   1.577   8.409  0.00  0.00    +0.382 N 
ATOM     28  H   LIG    1       -6.150   1.319   7.604  0.00  0.00    -0.082 HD
BRANCH  27  29
ATOM     29  C   LIG    1       -5.120   0.345   9.093  0.00  0.00    -0.082 C 
ATOM     30  C   LIG    1       -4.304   0.690  10.341  0.00  0.00    -0.017 C 
ENDBRANCH  27  29
BRANCH  27  31
ATOM     31  C   LIG    1       -6.364   2.409   9.334  0.00  0.00    -0.082 C 
ATOM     32  C   LIG    1       -7.680   1.689   9.634  0.00  0.00    -0.017 C 
ENDBRANCH  27  31
ENDBRANCH  26  27
ENDBRANCH  25  26
ENDBRANCH  24  25
ENDBRANCH  21  24
ENDBRANCH   2  18
BRANCH   2  33
ATOM     33  C   LIG    1       -2.496  -2.864   1.313  0.00  0.00    +0.032 C 
ATOM     34  C   LIG    1       -3.802  -3.614   1.046  0.00  0.00    +0.009 C 
ENDBRANCH   2  33
BRANCH   1  36
ATOM     35  C   LIG    1       -1.260   1.404   0.216  0.00  0.00    +0.009 C 
ATOM     36  C   LIG    1       -2.637   0.770   0.012  0.00  0.00    +0.032 C 
ENDBRANCH   1  36
TORSDOF 16
