REMARK  Name = ZINC13671923
REMARK                            x       y       z     vdW  Elec       q    Type
REMARK                         _______ _______ _______ _____ _____    ______ ____
ROOT
ATOM      1  C   LIG    1       -4.404  -2.872  -1.454  0.00  0.00    +0.125 C 
ATOM      2  C   LIG    1       -4.386  -4.236  -1.129  0.00  0.00    +0.038 C 
ATOM      3  C   LIG    1       -5.171  -5.109  -1.821  0.00  0.00    -0.007 C 
ATOM      4  C   LIG    1       -5.168  -6.579  -1.490  0.00  0.00    +0.008 C 
ATOM      5  C   LIG    1       -5.986  -4.601  -2.853  0.00  0.00    +0.011 C 
ATOM      6  C   LIG    1       -6.818  -5.446  -3.603  0.00  0.00    +0.027 C 
ATOM      7  C   LIG    1       -7.601  -4.913  -4.604  0.00  0.00    +0.074 C 
ATOM      8  C   LIG    1       -7.570  -3.541  -4.876  0.00  0.00    +0.024 C 
ATOM      9  C   LIG    1       -6.771  -2.704  -4.162  0.00  0.00    +0.021 C 
ATOM     10  C   LIG    1       -5.960  -3.213  -3.133  0.00  0.00    +0.059 C 
ATOM     11  N   LIG    1       -5.171  -2.403  -2.417  0.00  0.00    -0.298 NA
ATOM     12  H   LIG    1       -5.162  -1.453  -2.612  0.00  0.00    +0.124 HD
ENDROOT
BRANCH   1  16
ATOM     13  N   LIG    1       -1.327  -0.561  -0.004  0.00  0.00    -0.300 NA
ATOM     14  C   LIG    1       -2.025  -0.204  -1.247  0.00  0.00    +0.100 C 
ATOM     15  C   LIG    1       -3.505  -0.577  -1.122  0.00  0.00    +0.101 C 
ATOM     16  N   LIG    1       -3.599  -1.995  -0.742  0.00  0.00    -0.285 NA
ATOM     17  C   LIG    1       -2.817  -2.458   0.415  0.00  0.00    +0.101 C 
ATOM     18  C   LIG    1       -1.363  -2.010   0.230  0.00  0.00    +0.100 C 
BRANCH  13  20
ATOM     19  C   LIG    1        0.048   1.466  -0.011  0.00  0.00    +0.020 C 
ATOM     20  C   LIG    1        0.056  -0.064  -0.016  0.00  0.00    +0.081 C 
ENDBRANCH  13  20
ENDBRANCH   1  16
BRANCH   7  21
ATOM     21  N   LIG    1       -8.433  -5.750  -5.355  0.00  0.00    -0.309 N 
ATOM     22  H   LIG    1       -8.583  -5.567  -6.295  0.00  0.00    +0.149 HD
ATOM     23  C   LIG    1       -9.025  -6.811  -4.771  0.00  0.00    +0.237 C 
ATOM     24  O   LIG    1       -8.916  -6.984  -3.571  0.00  0.00    -0.271 OA
BRANCH  23  25
ATOM     25  C   LIG    1       -9.797  -7.753  -5.579  0.00  0.00    +0.068 C 
ATOM     26  C   LIG    1      -10.390  -8.816  -4.994  0.00  0.00    +0.013 C 
BRANCH  26  27
ATOM     27  C   LIG    1      -11.167  -9.763  -5.806  0.00  0.00    -0.025 A 
ATOM     28  C   LIG    1      -11.288  -9.569  -7.187  0.00  0.00    +0.011 A 
ATOM     29  C   LIG    1      -12.017 -10.459  -7.944  0.00  0.00    +0.046 A 
ATOM     30  C   LIG    1      -12.631 -11.550  -7.338  0.00  0.00    +0.120 A 
ATOM     31  C   LIG    1      -12.514 -11.747  -5.967  0.00  0.00    +0.046 A 
ATOM     32  C   LIG    1      -11.783 -10.866  -5.203  0.00  0.00    +0.011 A 
BRANCH  30  33
ATOM     33  O   LIG    1      -13.349 -12.424  -8.088  0.00  0.00    -0.495 OA
ATOM     34  C   LIG    1      -13.954 -13.522  -7.403  0.00  0.00    +0.277 C 
ENDBRANCH  30  33
ENDBRANCH  26  27
ENDBRANCH  23  25
ENDBRANCH   7  21
TORSDOF 6
