REMARK  Name = ZINC13739966
REMARK                            x       y       z     vdW  Elec       q    Type
REMARK                         _______ _______ _______ _____ _____    ______ ____
ROOT
ATOM      1  C   LIG    1       -2.265   1.531   0.720  0.00  0.00    -0.033 C 
ATOM      2  N   LIG    1       -2.182   1.898  -0.706  0.00  0.00    +0.384 N 
ATOM      3  H   LIG    1       -2.856   1.342  -1.244  0.00  0.00    -0.085 HD
ATOM      4  H   LIG    1       -2.395   2.896  -0.818  0.00  0.00    -0.085 HD
ATOM      5  C   LIG    1       -0.820   1.627  -1.191  0.00  0.00    -0.082 C 
ATOM      6  C   LIG    1       -0.013   1.086   0.008  0.00  0.00    -0.020 C 
ATOM      7  C   LIG    1       -0.801   1.617   1.234  0.00  0.00    -0.013 C 
ENDROOT
BRANCH   1  11
ATOM      8  C   LIG    1       -5.716   3.182   4.076  0.00  0.00    +0.066 C 
ATOM      9  C   LIG    1       -4.707   3.348   2.968  0.00  0.00    +0.047 A 
ATOM     10  C   LIG    1       -4.038   2.257   2.460  0.00  0.00    +0.034 A 
ATOM     11  C   LIG    1       -3.143   2.503   1.466  0.00  0.00    -0.004 A 
ATOM     12  S   LIG    1       -3.276   4.220   1.272  0.00  0.00    +0.005 S 
ATOM     13  N   LIG    1       -4.456   4.533   2.468  0.00  0.00    -0.215 NA
ENDBRANCH   1  11
TORSDOF 1
