REMARK  Name = ZINC13561228
REMARK                            x       y       z     vdW  Elec       q    Type
REMARK                         _______ _______ _______ _____ _____    ______ ____
ROOT
ATOM      1  C   LIG    1       -3.442  -2.023  -2.802  0.00  0.00    +0.009 C 
ENDROOT
BRANCH   1   2
ATOM      2  C   LIG    1       -2.990  -1.770  -1.363  0.00  0.00    -0.080 C 
BRANCH   2   3
ATOM      3  N   LIG    1       -1.727  -1.018  -1.371  0.00  0.00    +0.382 N 
ATOM      4  H   LIG    1       -1.022  -1.551  -1.857  0.00  0.00    -0.085 HD
ATOM      5  H   LIG    1       -1.864  -0.136  -1.841  0.00  0.00    -0.085 HD
BRANCH   3   6
ATOM      6  C   LIG    1       -1.293  -0.775   0.011  0.00  0.00    -0.047 C 
BRANCH   6  13
ATOM      7  C   LIG    1       -0.017   1.378   0.010  0.00  0.00    +0.003 A 
ATOM      8  C   LIG    1        1.171   2.086   0.002  0.00  0.00    +0.020 A 
ATOM      9  C   LIG    1        2.378   1.410  -0.013  0.00  0.00    +0.041 A 
ATOM     10 CL   LIG    1        3.870   2.298  -0.023  0.00  0.00    -0.084 Cl
ATOM     11  C   LIG    1        2.396   0.027  -0.021  0.00  0.00    +0.020 A 
ATOM     12  C   LIG    1        1.208  -0.679  -0.013  0.00  0.00    +0.003 A 
ATOM     13  C   LIG    1        0.002  -0.004   0.002  0.00  0.00    -0.064 A 
ENDBRANCH   6  13
ENDBRANCH   3   6
ENDBRANCH   2   3
ENDBRANCH   1   2
BRANCH   1  14
ATOM     14  C   LIG    1       -4.757  -2.805  -2.794  0.00  0.00    +0.136 C 
BRANCH  14  15
ATOM     15  C   LIG    1       -5.266  -2.948  -4.205  0.00  0.00    +0.232 C 
ATOM     16  N   LIG    1       -5.917  -1.926  -4.793  0.00  0.00    -0.300 N 
ATOM     17  C   LIG    1       -6.134  -0.663  -4.073  0.00  0.00    +0.108 C 
ATOM     18  C   LIG    1       -5.602   0.490  -4.930  0.00  0.00    +0.019 C 
ATOM     19  C   LIG    1       -6.254   0.436  -6.313  0.00  0.00    +0.003 C 
ATOM     20  C   LIG    1       -5.890  -0.883  -6.999  0.00  0.00    +0.019 C 
ATOM     21  C   LIG    1       -6.419  -2.050  -6.168  0.00  0.00    +0.108 C 
ATOM     22  O   LIG    1       -5.089  -3.983  -4.811  0.00  0.00    -0.274 OA
ENDBRANCH  14  15
BRANCH  14  23
ATOM     23  N   LIG    1       -4.529  -4.137  -2.218  0.00  0.00    -0.320 NA
ATOM     24  H   LIG    1       -4.249  -4.070  -1.251  0.00  0.00    +0.119 HD
ATOM     25  H   LIG    1       -3.850  -4.653  -2.756  0.00  0.00    +0.119 HD
ENDBRANCH  14  23
ENDBRANCH   1  14
TORSDOF 7
