REMARK  Name = ZINC13559817
REMARK                            x       y       z     vdW  Elec       q    Type
REMARK                         _______ _______ _______ _____ _____    ______ ____
ROOT
ATOM      1  C   LIG    1        3.657  -1.988  -0.010  0.00  0.00    +0.128 A 
ATOM      2  C   LIG    1        2.493  -2.744  -0.046  0.00  0.00    +0.047 A 
ATOM      3  C   LIG    1        2.563  -4.122  -0.020  0.00  0.00    +0.013 A 
ATOM      4  C   LIG    1        3.804  -4.754   0.042  0.00  0.00    +0.002 A 
ATOM      5  C   LIG    1        4.970  -3.992   0.077  0.00  0.00    +0.013 A 
ATOM      6  C   LIG    1        4.895  -2.616   0.046  0.00  0.00    +0.047 A 
ENDROOT
BRANCH   4   7
ATOM      7  C   LIG    1        3.882  -6.236   0.070  0.00  0.00    +0.092 A 
ATOM      8  C   LIG    1        5.062  -7.002   0.137  0.00  0.00    +0.049 A 
ATOM      9  C   LIG    1        4.709  -8.306   0.143  0.00  0.00    +0.105 A 
ATOM     10  N   LIG    1        3.362  -8.373   0.082  0.00  0.00    -0.284 N 
ATOM     11  H   LIG    1        2.832  -9.186   0.072  0.00  0.00    +0.188 HD
ATOM     12  N   LIG    1        2.861  -7.066   0.043  0.00  0.00    -0.174 NA
ENDBRANCH   4   7
BRANCH   1  13
ATOM     13  O   LIG    1        3.586  -0.632  -0.036  0.00  0.00    -0.456 OA
BRANCH  13  17
ATOM     14  C   LIG    1        3.335   1.363   3.566  0.00  0.00    +0.000 A 
ATOM     15  C   LIG    1        3.418  -0.017   3.546  0.00  0.00    +0.004 A 
ATOM     16  C   LIG    1        3.502  -0.687   2.341  0.00  0.00    +0.046 A 
ATOM     17  C   LIG    1        3.503   0.025   1.150  0.00  0.00    +0.128 A 
ATOM     18  C   LIG    1        3.420   1.410   1.174  0.00  0.00    +0.046 A 
ATOM     19  C   LIG    1        3.336   2.076   2.381  0.00  0.00    +0.004 A 
ENDBRANCH  13  17
ENDBRANCH   1  13
TORSDOF 3
