REMARK  Name = ZINC13585233
REMARK                            x       y       z     vdW  Elec       q    Type
REMARK                         _______ _______ _______ _____ _____    ______ ____
ROOT
ATOM      1  C   LIG    1        0.763  -2.041   1.233  0.00  0.00    +0.119 C 
ATOM      2  C   LIG    1        1.490  -2.557   2.484  0.00  0.00    +0.127 C 
ATOM      3  N   LIG    1        0.726  -2.139   3.668  0.00  0.00    -0.326 N 
ATOM      4  H   LIG    1        1.178  -1.755   4.435  0.00  0.00    +0.148 HD
ATOM      5  C   LIG    1       -0.651  -2.304   3.674  0.00  0.00    +0.149 A 
ATOM      6  C   LIG    1       -1.327  -2.509   2.480  0.00  0.00    +0.133 A 
ATOM      7  C   LIG    1       -2.717  -2.669   2.504  0.00  0.00    +0.276 A 
ATOM      8  N   LIG    1       -3.351  -2.618   3.696  0.00  0.00    -0.294 N 
ATOM      9  C   LIG    1       -2.642  -2.417   4.840  0.00  0.00    +0.195 A 
ATOM     10  H   LIG    1       -4.314  -2.726   3.736  0.00  0.00    +0.172 HD
ATOM     11  O   LIG    1       -3.343  -2.851   1.471  0.00  0.00    -0.266 OA
ATOM     12  N   LIG    1       -1.335  -2.265   4.824  0.00  0.00    -0.199 NA
ATOM     13  N   LIG    1       -0.615  -2.557   1.260  0.00  0.00    -0.330 N 
ATOM     14  H   LIG    1       -1.024  -2.922   0.460  0.00  0.00    +0.147 HD
ENDROOT
BRANCH   9  15
ATOM     15  N   LIG    1       -3.306  -2.370   6.039  0.00  0.00    -0.329 N 
ATOM     16  H   LIG    1       -2.812  -2.227   6.862  0.00  0.00    +0.145 HD
ATOM     17  H   LIG    1       -4.270  -2.480   6.065  0.00  0.00    +0.145 HD
ENDBRANCH   9  15
BRANCH   1  18
ATOM     18  C   LIG    1        0.742  -0.511   1.242  0.00  0.00    +0.164 C 
BRANCH  18  20
ATOM     19  C   LIG    1       -0.019   1.526   0.010  0.00  0.00    +0.040 C 
ATOM     20  C   LIG    1        0.002  -0.004   0.002  0.00  0.00    +0.142 C 
BRANCH  20  21
ATOM     21  O   LIG    1       -1.339  -0.499   0.012  0.00  0.00    -0.389 OA
ATOM     22  H   LIG    1       -1.853  -0.225   0.784  0.00  0.00    +0.210 HD
ENDBRANCH  20  21
ENDBRANCH  18  20
BRANCH  18  23
ATOM     23  O   LIG    1        2.083  -0.016   1.231  0.00  0.00    -0.387 OA
ATOM     24  H   LIG    1        2.597  -0.290   0.460  0.00  0.00    +0.210 HD
ENDBRANCH  18  23
ENDBRANCH   1  18
TORSDOF 5
