REMARK  Name = ZINC13586927
REMARK                            x       y       z     vdW  Elec       q    Type
REMARK                         _______ _______ _______ _____ _____    ______ ____
ROOT
ATOM      1  N   LIG    1       -3.122  -2.512   1.079  0.00  0.00    +0.382 N 
ATOM      2  H   LIG    1       -2.573  -2.771   1.996  0.00  0.00    -0.082 HD
ATOM      3  C   LIG    1       -2.293  -2.896  -0.071  0.00  0.00    -0.060 C 
ATOM      4  C   LIG    1       -0.954  -2.159   0.000  0.00  0.00    +0.088 C 
ATOM      5  N   LIG    1       -1.196  -0.709   0.010  0.00  0.00    -0.319 N 
ATOM      6  C   LIG    1       -2.025  -0.325   1.161  0.00  0.00    +0.088 C 
ATOM      7  C   LIG    1       -3.365  -1.063   1.090  0.00  0.00    -0.060 C 
ENDROOT
BRANCH   5   8
ATOM      8  C   LIG    1        0.002  -0.004   0.002  0.00  0.00    +0.121 A 
ATOM      9  C   LIG    1       -0.017   1.387   0.010  0.00  0.00    +0.043 A 
ATOM     10  C   LIG    1        1.182   2.076   0.002  0.00  0.00    +0.005 A 
ATOM     11  C   LIG    1        2.365   1.348  -0.013  0.00  0.00    +0.020 A 
ATOM     12  C   LIG    1        2.310  -0.031  -0.020  0.00  0.00    +0.113 A 
ATOM     13  N   LIG    1        1.151  -0.662  -0.013  0.00  0.00    -0.240 NA
ENDBRANCH   5   8
BRANCH   1  14
ATOM     14  C   LIG    1       -4.388  -3.257   1.088  0.00  0.00    -0.074 C 
BRANCH  14  15
ATOM     15  C   LIG    1       -5.324  -2.661   2.142  0.00  0.00    +0.016 C 
BRANCH  15  19
ATOM     16  C   LIG    1       -9.005  -4.828   2.167  0.00  0.00    +0.000 A 
ATOM     17  C   LIG    1       -7.963  -5.226   2.983  0.00  0.00    +0.000 A 
ATOM     18  C   LIG    1       -6.772  -4.525   2.975  0.00  0.00    +0.003 A 
ATOM     19  C   LIG    1       -6.622  -3.426   2.151  0.00  0.00    -0.049 A 
ATOM     20  C   LIG    1       -7.667  -3.024   1.339  0.00  0.00    +0.003 A 
ATOM     21  C   LIG    1       -8.856  -3.728   1.343  0.00  0.00    +0.000 A 
ENDBRANCH  15  19
ENDBRANCH  14  15
ENDBRANCH   1  14
TORSDOF 4
