REMARK  Name = ZINC13646338
REMARK                            x       y       z     vdW  Elec       q    Type
REMARK                         _______ _______ _______ _____ _____    ______ ____
ROOT
ATOM      1  C   VAL A  1        5.323   3.384   3.257  0.00  0.00    +0.202 C 
ATOM      2  N   PRO A  2        5.764   3.428   1.985  0.00  0.00    -0.291 N 
ATOM      3  CD  PRO A  2        7.132   3.122   1.541  0.00  0.00    +0.108 C 
ATOM      4  CG  PRO A  2        7.162   3.280   0.006  0.00  0.00    +0.021 C 
ATOM      5  CB  PRO A  2        5.671   3.114  -0.389  0.00  0.00    +0.033 C 
ATOM      6  CA  PRO A  2        4.955   3.790   0.807  0.00  0.00    +0.162 C 
ATOM      7  O   VAL A  1        4.151   3.578   3.500  0.00  0.00    -0.277 OA
ENDROOT
BRANCH   6   8
ATOM      8  C   PRO A  2        3.553   3.256   0.949  0.00  0.00    +0.237 C 
ATOM      9  N   PRO A  3        2.525   3.896   0.358  0.00  0.00    -0.286 N 
ATOM     10  CD  PRO A  3        2.629   5.122  -0.454  0.00  0.00    +0.109 C 
ATOM     11  CG  PRO A  3        1.226   5.774  -0.368  0.00  0.00    +0.021 C 
ATOM     12  CB  PRO A  3        0.302   4.529  -0.382  0.00  0.00    +0.035 C 
ATOM     13  CA  PRO A  3        1.114   3.486   0.415  0.00  0.00    +0.184 C 
ATOM     14  O   PRO A  2        3.350   2.250   1.596  0.00  0.00    -0.274 OA
BRANCH  13  15
ATOM     15  C   PRO A  3        0.951   2.124  -0.208  0.00  0.00    +0.325 C 
ATOM     16  O   PRO A  3        1.912   1.545  -0.657  0.00  0.00    -0.249 OA
BRANCH  15  17
ATOM     17  OXT PRO A  3       -0.263   1.552  -0.264  0.00  0.00    -0.479 OA
ATOM     18  HXT PRO A  3       -1.008   2.001   0.084  0.00  0.00    +0.295 HD
ENDBRANCH  15  17
ENDBRANCH  13  15
ENDBRANCH   6   8
BRANCH   1  19
ATOM     19  CA  VAL A  1        6.287   3.095   4.380  0.00  0.00    +0.016 C 
BRANCH  19  20
ATOM     20  N   VAL A  1        5.710   3.585   5.644  0.00  0.00    +0.386 N 
ATOM     21  H1  VAL A  1        5.516   4.589   5.560  0.00  0.00    -0.089 HD
ATOM     22  H2  VAL A  1        6.367   3.436   6.408  0.00  0.00    -0.089 HD
ATOM     23  H3  VAL A  1        4.840   3.094   5.845  0.00  0.00    -0.089 HD
ENDBRANCH  19  20
BRANCH  19  25
ATOM     24  CG1 VAL A  1        7.520   1.294   5.596  0.00  0.00    +0.006 C 
ATOM     25  CB  VAL A  1        6.541   1.588   4.457  0.00  0.00    -0.023 C 
ATOM     26  CG2 VAL A  1        5.221   0.860   4.718  0.00  0.00    +0.006 C 
ENDBRANCH  19  25
ENDBRANCH   1  19
TORSDOF 6
