REMARK  Name = ZINC13686854
REMARK                            x       y       z     vdW  Elec       q    Type
REMARK                         _______ _______ _______ _____ _____    ______ ____
ROOT
ATOM      1  C   LIG    1       -0.140   0.874   2.496  0.00  0.00    +0.024 C 
ATOM      2  C   LIG    1       -0.724   1.577   1.269  0.00  0.00    +0.055 C 
ATOM      3  C   LIG    1       -0.013   1.086   0.008  0.00  0.00    +0.053 C 
ATOM      4  C   LIG    1       -0.738   1.583  -1.216  0.00  0.00    -0.041 A 
ATOM      5  C   LIG    1       -0.075   1.554  -2.434  0.00  0.00    +0.005 A 
ATOM      6  C   LIG    1       -0.704   1.997  -3.581  0.00  0.00    +0.015 A 
ATOM      7  C   LIG    1       -2.001   2.473  -3.514  0.00  0.00    +0.018 A 
ATOM      8 BR   LIG    1       -2.870   3.079  -5.081  0.00  0.00    -0.050 Br
ATOM      9  C   LIG    1       -2.661   2.502  -2.301  0.00  0.00    +0.020 A 
ATOM     10  C   LIG    1       -2.029   2.059  -1.148  0.00  0.00    -0.029 A 
ATOM     11  C   LIG    1       -2.787   2.120   0.152  0.00  0.00    +0.117 C 
ATOM     12  N   LIG    1       -2.154   1.258   1.155  0.00  0.00    -0.309 NA
ATOM     13  H   LIG    1       -2.273   0.207   0.853  0.00  0.00    +0.123 HD
ENDROOT
TORSDOF 0
