REMARK  Name = ZINC13559954
REMARK                            x       y       z     vdW  Elec       q    Type
REMARK                         _______ _______ _______ _____ _____    ______ ____
ROOT
ATOM      1  C   LIG    1        3.711  -0.707  -0.038  0.00  0.00    +0.153 C 
ATOM      2  F   LIG    1        4.815   0.040  -0.463  0.00  0.00    -0.235 F 
ATOM      3  C   LIG    1        3.946  -1.760   1.047  0.00  0.00    +0.069 C 
ATOM      4  C   LIG    1        3.684  -2.194  -0.396  0.00  0.00    +0.096 C 
ENDROOT
BRANCH   1   8
ATOM      5  C   LIG    1       -0.017   1.378   0.010  0.00  0.00    +0.000 A 
ATOM      6  C   LIG    1        1.171   2.086   0.002  0.00  0.00    +0.000 A 
ATOM      7  C   LIG    1        2.377   1.411  -0.013  0.00  0.00    +0.007 A 
ATOM      8  C   LIG    1        2.396   0.029  -0.020  0.00  0.00    -0.009 A 
ATOM      9  C   LIG    1        1.208  -0.679  -0.012  0.00  0.00    +0.007 A 
ATOM     10  C   LIG    1        0.002  -0.004   0.002  0.00  0.00    +0.000 A 
ENDBRANCH   1   8
BRANCH   4  11
ATOM     11  N   LIG    1        4.819  -2.729  -1.160  0.00  0.00    -0.324 NA
ATOM     12  H   LIG    1        4.950  -2.216  -2.019  0.00  0.00    +0.119 HD
ATOM     13  H   LIG    1        4.701  -3.714  -1.342  0.00  0.00    +0.119 HD
ENDBRANCH   4  11
TORSDOF 2
