REMARK  Name = ZINC13675869
REMARK                            x       y       z     vdW  Elec       q    Type
REMARK                         _______ _______ _______ _____ _____    ______ ____
ROOT
ATOM      1  C   LIG    1       -1.077   3.006  -0.881  0.00  0.00    +0.032 C 
ATOM      2  C   LIG    1       -0.778   1.528  -1.135  0.00  0.00    -0.069 C 
ATOM      3  N   LIG    1       -0.012   1.005   0.008  0.00  0.00    +0.382 N 
ATOM      4  H   LIG    1        0.039  -0.092  -0.057  0.00  0.00    -0.085 HD
ATOM      5  H   LIG    1       -0.508   1.295   0.946  0.00  0.00    -0.085 HD
ATOM      6  C   LIG    1        1.350   1.549  -0.003  0.00  0.00    -0.046 C 
ATOM      7  C   LIG    1        1.317   3.052  -0.093  0.00  0.00    -0.059 A 
ATOM      8  C   LIG    1        2.460   3.759   0.252  0.00  0.00    +0.025 A 
ATOM      9  C   LIG    1        2.478   5.137   0.182  0.00  0.00    +0.082 A 
ATOM     10 CL   LIG    1        3.913   6.012   0.618  0.00  0.00    -0.080 Cl
ATOM     11  C   LIG    1        1.345   5.822  -0.237  0.00  0.00    +0.135 A 
ATOM     12  C   LIG    1        0.205   5.115  -0.581  0.00  0.00    +0.051 A 
ATOM     13  C   LIG    1        0.190   3.731  -0.507  0.00  0.00    -0.037 A 
ENDROOT
BRANCH   1  17
ATOM     14  C   LIG    1       -2.714   4.749  -4.421  0.00  0.00    +0.000 A 
ATOM     15  C   LIG    1       -3.452   4.737  -3.252  0.00  0.00    +0.000 A 
ATOM     16  C   LIG    1       -2.922   4.172  -2.107  0.00  0.00    +0.004 A 
ATOM     17  C   LIG    1       -1.655   3.621  -2.130  0.00  0.00    -0.042 A 
ATOM     18  C   LIG    1       -0.915   3.638  -3.298  0.00  0.00    +0.004 A 
ATOM     19  C   LIG    1       -1.447   4.197  -4.445  0.00  0.00    +0.000 A 
ENDBRANCH   1  17
BRANCH  11  20
ATOM     20  O   LIG    1        1.356   7.179  -0.311  0.00  0.00    -0.505 OA
ATOM     21  H   LIG    1        0.590   7.638  -0.594  0.00  0.00    +0.292 HD
ENDBRANCH  11  20
TORSDOF 2
