REMARK  Name = ZINC13604422
REMARK                            x       y       z     vdW  Elec       q    Type
REMARK                         _______ _______ _______ _____ _____    ______ ____
ROOT
ATOM      1  N   LIG    1       -1.124   2.443   0.050  0.00  0.00    -0.277 N 
ATOM      2  C   LIG    1       -1.365   3.854   0.324  0.00  0.00    +0.113 C 
ATOM      3  C   LIG    1       -0.710   4.770  -0.680  0.00  0.00    +0.165 C 
ATOM      4  C   LIG    1        0.596   4.283  -1.266  0.00  0.00    +0.165 C 
ATOM      5  C   LIG    1        1.556   3.776  -0.188  0.00  0.00    +0.113 C 
ATOM      6  N   LIG    1        1.270   2.377   0.117  0.00  0.00    -0.277 N 
ATOM      7  C   LIG    1        0.063   1.846   0.218  0.00  0.00    +0.306 C 
ATOM      8  O   LIG    1        0.039   0.643   0.434  0.00  0.00    -0.252 OA
ENDROOT
BRANCH   3   9
ATOM      9  O   LIG    1       -1.633   4.979  -1.762  0.00  0.00    -0.387 OA
ATOM     10  H   LIG    1       -1.337   5.630  -2.412  0.00  0.00    +0.210 HD
ENDBRANCH   3   9
BRANCH   4  11
ATOM     11  O   LIG    1        1.221   5.354  -1.986  0.00  0.00    -0.387 OA
ATOM     12  H   LIG    1        0.673   5.729  -2.689  0.00  0.00    +0.210 HD
ENDBRANCH   4  11
BRANCH   1  13
ATOM     13  C   LIG    1       -2.249   1.624  -0.436  0.00  0.00    +0.137 C 
BRANCH  13  14
ATOM     14  C   LIG    1       -2.828   0.813   0.725  0.00  0.00    +0.178 C 
BRANCH  14  16
ATOM     15  C   LIG    1       -3.793   1.048   2.906  0.00  0.00    +0.194 C 
ATOM     16  O   LIG    1       -3.329   1.703   1.724  0.00  0.00    -0.381 OA
ENDBRANCH  14  16
ENDBRANCH  13  14
ENDBRANCH   1  13
BRANCH   2  17
ATOM     17  C   LIG    1       -2.883   4.103   0.297  0.00  0.00    +0.060 C 
BRANCH  17  18
ATOM     18  C   LIG    1       -3.171   5.499   0.785  0.00  0.00    -0.046 A 
ATOM     19  C   LIG    1       -3.270   5.751   2.141  0.00  0.00    +0.004 A 
ATOM     20  C   LIG    1       -3.530   7.033   2.589  0.00  0.00    +0.000 A 
ATOM     21  C   LIG    1       -3.702   8.061   1.680  0.00  0.00    +0.000 A 
ATOM     22  C   LIG    1       -3.609   7.808   0.325  0.00  0.00    +0.000 A 
ATOM     23  C   LIG    1       -3.343   6.527  -0.123  0.00  0.00    +0.004 A 
ENDBRANCH  17  18
ENDBRANCH   2  17
BRANCH   5  24
ATOM     24  C   LIG    1        1.535   4.637   1.065  0.00  0.00    +0.060 C 
BRANCH  24  25
ATOM     25  C   LIG    1        2.669   4.232   1.972  0.00  0.00    -0.046 A 
ATOM     26  C   LIG    1        2.473   3.252   2.927  0.00  0.00    +0.004 A 
ATOM     27  C   LIG    1        3.515   2.877   3.755  0.00  0.00    +0.000 A 
ATOM     28  C   LIG    1        4.748   3.489   3.635  0.00  0.00    +0.000 A 
ATOM     29  C   LIG    1        4.942   4.473   2.683  0.00  0.00    +0.000 A 
ATOM     30  C   LIG    1        3.902   4.844   1.851  0.00  0.00    +0.004 A 
ENDBRANCH  24  25
ENDBRANCH   5  24
BRANCH   6  31
ATOM     31  C   LIG    1        2.416   1.487   0.331  0.00  0.00    +0.137 C 
BRANCH  31  32
ATOM     32  C   LIG    1        2.834   0.865  -1.004  0.00  0.00    +0.178 C 
BRANCH  32  33
ATOM     33  O   LIG    1        3.310   1.890  -1.878  0.00  0.00    -0.381 OA
ATOM     34  C   LIG    1        3.728   1.414  -3.159  0.00  0.00    +0.194 C 
ENDBRANCH  32  33
ENDBRANCH  31  32
ENDBRANCH   6  31
TORSDOF 12
