REMARK  Name = ZINC13737355
REMARK                            x       y       z     vdW  Elec       q    Type
REMARK                         _______ _______ _______ _____ _____    ______ ____
ROOT
ATOM      1  C   LIG    1        6.935   1.487   7.121  0.00  0.00    +0.053 C 
ENDROOT
BRANCH   1   2
ATOM      2  C   LIG    1        7.601   0.837   5.936  0.00  0.00    -0.027 C 
ATOM      3  C   LIG    1        6.948  -0.043   5.218  0.00  0.00    -0.031 C 
BRANCH   3   4
ATOM      4  C   LIG    1        5.482  -0.285   5.473  0.00  0.00    +0.027 C 
BRANCH   4   5
ATOM      5  C   LIG    1        4.708  -0.154   4.161  0.00  0.00    +0.013 C 
BRANCH   5   6
ATOM      6  C   LIG    1        3.220  -0.399   4.420  0.00  0.00    +0.096 C 
BRANCH   6   7
ATOM      7  C   LIG    1        2.457  -0.270   3.127  0.00  0.00    +0.213 C 
ATOM      8  N   LIG    1        1.121  -0.447   3.113  0.00  0.00    -0.313 N 
ATOM      9  H   LIG    1        0.650  -0.656   3.935  0.00  0.00    +0.149 HD
ATOM     10  O   LIG    1        3.045  -0.008   2.099  0.00  0.00    -0.276 OA
BRANCH   8  11
ATOM     11  C   LIG    1        0.379  -0.322   1.856  0.00  0.00    +0.135 C 
BRANCH  11  12
ATOM     12  C   LIG    1       -1.109  -0.567   2.115  0.00  0.00    +0.128 C 
ATOM     13  C   LIG    1       -1.867  -0.560   0.786  0.00  0.00    +0.039 C 
BRANCH  12  14
ATOM     14  O   LIG    1       -1.622   0.465   2.961  0.00  0.00    -0.391 OA
ATOM     15  H   LIG    1       -1.540   1.354   2.591  0.00  0.00    +0.210 HD
ENDBRANCH  12  14
ENDBRANCH  11  12
ENDBRANCH   8  11
ENDBRANCH   6   7
ENDBRANCH   5   6
ENDBRANCH   4   5
ENDBRANCH   3   4
ENDBRANCH   1   2
BRANCH   1  17
ATOM     16  C   LIG    1        8.131   2.350   9.066  0.00  0.00    -0.027 C 
ATOM     17  C   LIG    1        7.799   1.310   8.342  0.00  0.00    -0.027 C 
BRANCH  16  18
ATOM     18  C   LIG    1        7.519   3.696   8.777  0.00  0.00    +0.053 C 
BRANCH  18  20
ATOM     19  C   LIG    1        7.232   5.450  10.451  0.00  0.00    -0.027 C 
ATOM     20  C   LIG    1        6.906   4.251  10.037  0.00  0.00    -0.027 C 
BRANCH  19  21
ATOM     21  C   LIG    1        8.080   6.343   9.583  0.00  0.00    +0.053 C 
BRANCH  21  23
ATOM     22  C   LIG    1        8.028   8.781   9.686  0.00  0.00    -0.031 C 
ATOM     23  C   LIG    1        7.392   7.671   9.404  0.00  0.00    -0.027 C 
BRANCH  22  24
ATOM     24  C   LIG    1        9.494   8.743  10.031  0.00  0.00    +0.027 C 
BRANCH  24  25
ATOM     25  C   LIG    1       10.252   9.735   9.146  0.00  0.00    +0.004 C 
BRANCH  25  26
ATOM     26  C   LIG    1       11.741   9.697   9.496  0.00  0.00    +0.000 C 
BRANCH  26  28
ATOM     27  C   LIG    1       13.988  10.650   8.961  0.00  0.00    +0.004 C 
ATOM     28  C   LIG    1       12.499  10.688   8.611  0.00  0.00    -0.003 C 
ENDBRANCH  26  28
ENDBRANCH  25  26
ENDBRANCH  24  25
ENDBRANCH  22  24
ENDBRANCH  21  23
ENDBRANCH  19  21
ENDBRANCH  18  20
ENDBRANCH  16  18
ENDBRANCH   1  17
TORSDOF 17
