REMARK  Name = ZINC13581282
REMARK                            x       y       z     vdW  Elec       q    Type
REMARK                         _______ _______ _______ _____ _____    ______ ____
ROOT
ATOM      1  C   LIG    1        1.202  10.068   2.623  0.00  0.00    +0.125 C 
ATOM      2  C   LIG    1        2.468   9.489   2.791  0.00  0.00    +0.038 C 
ATOM      3  C   LIG    1        2.621   8.142   2.658  0.00  0.00    -0.007 C 
ATOM      4  C   LIG    1        3.971   7.496   2.835  0.00  0.00    +0.008 C 
ATOM      5  C   LIG    1        1.484   7.367   2.350  0.00  0.00    +0.011 C 
ATOM      6  C   LIG    1        1.572   5.975   2.204  0.00  0.00    +0.027 C 
ATOM      7  C   LIG    1        0.439   5.252   1.899  0.00  0.00    +0.073 C 
ATOM      8  C   LIG    1       -0.794   5.894   1.743  0.00  0.00    +0.024 C 
ATOM      9  C   LIG    1       -0.903   7.242   1.885  0.00  0.00    +0.021 C 
ATOM     10  C   LIG    1        0.233   8.011   2.192  0.00  0.00    +0.059 C 
ATOM     11  N   LIG    1        0.144   9.339   2.335  0.00  0.00    -0.298 NA
ATOM     12  H   LIG    1       -0.837   9.820   2.208  0.00  0.00    +0.124 HD
ENDROOT
BRANCH   1  16
ATOM     13  N   LIG    1        0.052  13.827   3.943  0.00  0.00    -0.300 NA
ATOM     14  C   LIG    1       -0.431  13.377   2.630  0.00  0.00    +0.100 C 
ATOM     15  C   LIG    1       -0.333  11.852   2.547  0.00  0.00    +0.101 C 
ATOM     16  N   LIG    1        1.062  11.442   2.761  0.00  0.00    -0.285 NA
ATOM     17  C   LIG    1        1.544  11.891   4.074  0.00  0.00    +0.101 C 
ATOM     18  C   LIG    1        1.446  13.416   4.157  0.00  0.00    +0.100 C 
BRANCH  13  20
ATOM     19  C   LIG    1        0.177  15.678   5.542  0.00  0.00    +0.020 C 
ATOM     20  C   LIG    1       -0.097  15.281   4.090  0.00  0.00    +0.081 C 
ENDBRANCH  13  20
ENDBRANCH   1  16
BRANCH   7  21
ATOM     21  N   LIG    1        0.522   3.863   1.748  0.00  0.00    -0.309 N 
ATOM     22  H   LIG    1        1.233   3.285   2.356  0.00  0.00    +0.149 HD
ATOM     23  C   LIG    1       -0.270   3.233   0.857  0.00  0.00    +0.254 C 
ATOM     24  O   LIG    1       -0.987   3.877   0.121  0.00  0.00    -0.272 OA
BRANCH  23  25
ATOM     25  C   LIG    1       -0.264   1.728   0.776  0.00  0.00    +0.256 C 
ATOM     26  C   LIG    1        1.110   1.248   0.306  0.00  0.00    +0.062 C 
BRANCH  25  27
ATOM     27  O   LIG    1       -1.262   1.298  -0.152  0.00  0.00    -0.478 OA
BRANCH  27  28
ATOM     28  C   LIG    1       -1.742   0.035  -0.001  0.00  0.00    +0.140 A 
ATOM     29  C   LIG    1       -1.301  -0.754   1.051  0.00  0.00    +0.048 A 
ATOM     30  C   LIG    1       -1.793  -2.036   1.206  0.00  0.00    +0.023 A 
ATOM     31  C   LIG    1       -2.717  -2.537   0.306  0.00  0.00    +0.043 A 
ATOM     32 CL   LIG    1       -3.329  -4.150   0.500  0.00  0.00    -0.083 Cl
ATOM     33  C   LIG    1       -3.155  -1.754  -0.747  0.00  0.00    +0.043 A 
ATOM     34  C   LIG    1       -2.669  -0.469  -0.903  0.00  0.00    +0.084 A 
ATOM     35 CL   LIG    1       -3.217   0.513  -2.225  0.00  0.00    -0.080 Cl
ENDBRANCH  27  28
ENDBRANCH  25  27
ENDBRANCH  23  25
ENDBRANCH   7  21
TORSDOF 6
