REMARK  Name = ZINC13559955
REMARK                            x       y       z     vdW  Elec       q    Type
REMARK                         _______ _______ _______ _____ _____    ______ ____
ROOT
ATOM      1  C   LIG    1        3.615  -0.921   0.062  0.00  0.00    +0.153 C 
ATOM      2  F   LIG    1        4.160  -0.933  -1.227  0.00  0.00    -0.235 F 
ATOM      3  C   LIG    1        4.008  -2.059   1.006  0.00  0.00    +0.069 C 
ATOM      4  C   LIG    1        4.568  -0.653   1.229  0.00  0.00    +0.096 C 
ENDROOT
BRANCH   1   8
ATOM      5  C   LIG    1       -0.360   0.613   0.366  0.00  0.00    +0.000 A 
ATOM      6  C   LIG    1        0.695   1.471   0.116  0.00  0.00    +0.000 A 
ATOM      7  C   LIG    1        1.981   0.975   0.018  0.00  0.00    +0.007 A 
ATOM      8  C   LIG    1        2.213  -0.380   0.170  0.00  0.00    -0.009 A 
ATOM      9  C   LIG    1        1.158  -1.238   0.421  0.00  0.00    +0.007 A 
ATOM     10  C   LIG    1       -0.128  -0.742   0.517  0.00  0.00    +0.000 A 
ENDBRANCH   1   8
BRANCH   4  11
ATOM     11  N   LIG    1        4.045   0.112   2.369  0.00  0.00    -0.324 NA
ATOM     12  H   LIG    1        3.766   1.039   2.085  0.00  0.00    +0.119 HD
ATOM     13  H   LIG    1        4.720   0.150   3.118  0.00  0.00    +0.119 HD
ENDBRANCH   4  11
TORSDOF 2
