REMARK  Name = ZINC13643098
REMARK                            x       y       z     vdW  Elec       q    Type
REMARK                         _______ _______ _______ _____ _____    ______ ____
ROOT
ATOM      1  C   LIG    1       -0.013   1.086   0.008  0.00  0.00    +0.005 C 
ATOM      2  C   LIG    1        1.335   1.811  -0.001  0.00  0.00    +0.021 C 
ATOM      3  C   LIG    1        0.484   1.792   1.271  0.00  0.00    +0.055 C 
ENDROOT
BRANCH   3   4
ATOM      4  C   LIG    1        0.957   0.928   2.411  0.00  0.00    +0.309 C 
ATOM      5  O   LIG    1        0.934  -0.276   2.307  0.00  0.00    -0.250 OA
BRANCH   4   6
ATOM      6  O   LIG    1        1.403   1.495   3.543  0.00  0.00    -0.480 OA
ATOM      7  H   LIG    1        1.421   2.428   3.624  0.00  0.00    +0.295 HD
ENDBRANCH   4   6
ENDBRANCH   3   4
BRANCH   1   8
ATOM      8  C   LIG    1       -1.169   1.734  -0.756  0.00  0.00    +0.007 C 
BRANCH   8  10
ATOM      9  C   LIG    1       -2.830   1.409  -2.594  0.00  0.00    +0.007 C 
ATOM     10  C   LIG    1       -1.595   0.821  -1.907  0.00  0.00    -0.017 C 
ATOM     11  C   LIG    1       -0.454   0.709  -2.919  0.00  0.00    +0.007 C 
ENDBRANCH   8  10
ENDBRANCH   1   8
BRANCH   3  12
ATOM     12  C   LIG    1       -0.213   3.093   1.674  0.00  0.00    -0.068 C 
BRANCH  12  13
ATOM     13  N   LIG    1        0.395   3.598   2.917  0.00  0.00    +0.379 N 
ATOM     14  H   LIG    1        0.254   2.909   3.666  0.00  0.00    -0.090 HD
ATOM     15  H   LIG    1       -0.043   4.477   3.188  0.00  0.00    -0.090 HD
ATOM     16  H   LIG    1        1.394   3.745   2.784  0.00  0.00    -0.090 HD
ENDBRANCH  12  13
ENDBRANCH   3  12
TORSDOF 6
