REMARK  Name = ZINC13679046
REMARK                            x       y       z     vdW  Elec       q    Type
REMARK                         _______ _______ _______ _____ _____    ______ ____
ROOT
ATOM      1  N   LIG    1        0.634  -1.958  -1.325  0.00  0.00    -0.265 N 
ATOM      2  C   LIG    1       -0.365  -2.670  -1.938  0.00  0.00    +0.072 A 
ATOM      3  C   LIG    1       -1.519  -2.309  -2.628  0.00  0.00    +0.073 A 
ATOM      4  C   LIG    1       -2.345  -3.291  -3.139  0.00  0.00    +0.122 A 
ATOM      5  C   LIG    1       -2.033  -4.640  -2.967  0.00  0.00    +0.046 A 
ATOM      6  C   LIG    1       -0.907  -5.011  -2.294  0.00  0.00    +0.015 A 
ATOM      7  C   LIG    1       -0.055  -4.033  -1.768  0.00  0.00    +0.020 A 
ATOM      8  C   LIG    1        1.194  -4.078  -1.015  0.00  0.00    +0.143 A 
ATOM      9  N   LIG    1        1.564  -2.851  -0.782  0.00  0.00    -0.179 NA
ENDROOT
BRANCH   4  10
ATOM     10  O   LIG    1       -3.471  -2.941  -3.814  0.00  0.00    -0.495 OA
ATOM     11  C   LIG    1       -4.283  -4.003  -4.317  0.00  0.00    +0.277 C 
ENDBRANCH   4  10
BRANCH   1  12
ATOM     12  C   LIG    1        0.718  -0.497  -1.257  0.00  0.00    +0.128 C 
BRANCH  12  14
ATOM     13  C   LIG    1       -0.019   1.526   0.010  0.00  0.00    -0.012 C 
ATOM     14  C   LIG    1        0.002  -0.004   0.002  0.00  0.00    -0.057 C 
BRANCH  14  15
ATOM     15  N   LIG    1        0.699  -0.480   1.210  0.00  0.00    +0.381 N 
ATOM     16  H   LIG    1        0.222  -0.111   2.042  0.00  0.00    -0.090 HD
ATOM     17  H   LIG    1        1.664  -0.154   1.208  0.00  0.00    -0.090 HD
ATOM     18  H   LIG    1        0.684  -1.498   1.243  0.00  0.00    -0.090 HD
ENDBRANCH  14  15
ENDBRANCH  12  14
ENDBRANCH   1  12
TORSDOF 4
