REMARK  Name = ZINC13588156
REMARK                            x       y       z     vdW  Elec       q    Type
REMARK                         _______ _______ _______ _____ _____    ______ ____
ROOT
ATOM      1  C   LIG    1        3.657   2.161  -0.022  0.00  0.00    +0.022 A 
ATOM      2  C   LIG    1        3.845   3.508  -0.022  0.00  0.00    +0.044 A 
ATOM      3  C   LIG    1        5.146   4.032  -0.027  0.00  0.00    +0.084 A 
ATOM      4  C   LIG    1        6.187   3.077  -0.043  0.00  0.00    +0.078 A 
ATOM      5  C   LIG    1        7.514   3.467  -0.055  0.00  0.00    +0.134 A 
ATOM      6  N   LIG    1        7.791   4.771  -0.051  0.00  0.00    -0.220 NA
ATOM      7  C   LIG    1        6.809   5.656  -0.036  0.00  0.00    +0.223 A 
ATOM      8  N   LIG    1        5.542   5.330  -0.025  0.00  0.00    -0.235 NA
ATOM      9  S   LIG    1        5.326   1.527  -0.043  0.00  0.00    -0.083 S 
ENDROOT
BRANCH   1  13
ATOM     10  C   LIG    1        0.002  -0.004   0.002  0.00  0.00    +0.000 A 
ATOM     11  C   LIG    1       -0.017   1.379   0.010  0.00  0.00    +0.001 A 
ATOM     12  C   LIG    1        1.167   2.088   0.002  0.00  0.00    +0.009 A 
ATOM     13  C   LIG    1        2.385   1.407  -0.013  0.00  0.00    -0.011 A 
ATOM     14  C   LIG    1        2.397   0.012  -0.021  0.00  0.00    +0.009 A 
ATOM     15  C   LIG    1        1.206  -0.685  -0.013  0.00  0.00    +0.001 A 
ENDBRANCH   1  13
BRANCH   5  16
ATOM     16  N   LIG    1        8.531   2.526  -0.070  0.00  0.00    -0.342 N 
ATOM     17  H   LIG    1        9.458   2.812  -0.078  0.00  0.00    +0.144 HD
ATOM     18  H   LIG    1        8.316   1.580  -0.072  0.00  0.00    +0.144 HD
ENDBRANCH   5  16
TORSDOF 2
