REMARK  Name = ZINC13675944
REMARK                            x       y       z     vdW  Elec       q    Type
REMARK                         _______ _______ _______ _____ _____    ______ ____
ROOT
ATOM      1  C   LIG    1        1.884   3.111   0.452  0.00  0.00    +0.202 C 
ATOM      2  N   LIG    1        1.442   2.158  -0.392  0.00  0.00    -0.291 N 
ATOM      3  C   LIG    1        0.051   1.992  -0.848  0.00  0.00    +0.108 C 
ATOM      4  C   LIG    1       -0.061   0.499  -1.246  0.00  0.00    +0.021 C 
ATOM      5  C   LIG    1        1.334   0.238  -1.873  0.00  0.00    +0.033 C 
ATOM      6  C   LIG    1        2.269   1.111  -1.010  0.00  0.00    +0.162 C 
ATOM      7  O   LIG    1        3.035   3.097   0.834  0.00  0.00    -0.277 OA
ENDROOT
BRANCH   6   8
ATOM      8  C   LIG    1        3.330   1.737  -1.877  0.00  0.00    +0.231 C 
ATOM      9  N   LIG    1        4.196   0.956  -2.554  0.00  0.00    -0.328 N 
ATOM     10  H   LIG    1        4.879   1.359  -3.112  0.00  0.00    +0.145 HD
ATOM     11  H   LIG    1        4.135  -0.010  -2.482  0.00  0.00    +0.145 HD
ATOM     12  O   LIG    1        3.406   2.944  -1.967  0.00  0.00    -0.274 OA
ENDBRANCH   6   8
BRANCH   1  13
ATOM     13  C   LIG    1        0.948   4.196   0.920  0.00  0.00    +0.016 C 
BRANCH  13  14
ATOM     14  N   LIG    1        1.289   4.613   2.291  0.00  0.00    +0.386 N 
ATOM     15  H   LIG    1        0.662   5.374   2.578  0.00  0.00    -0.089 HD
ATOM     16  H   LIG    1        2.252   4.945   2.326  0.00  0.00    -0.089 HD
ATOM     17  H   LIG    1        1.177   3.830   2.933  0.00  0.00    -0.089 HD
ENDBRANCH  13  14
BRANCH  13  19
ATOM     18  C   LIG    1        0.570   5.021  -1.408  0.00  0.00    +0.006 C 
ATOM     19  C   LIG    1        1.062   5.405  -0.011  0.00  0.00    -0.023 C 
ATOM     20  C   LIG    1        0.207   6.550   0.534  0.00  0.00    +0.006 C 
ENDBRANCH  13  19
ENDBRANCH   1  13
TORSDOF 4
