REMARK  Name = ZINC13739904
REMARK                            x       y       z     vdW  Elec       q    Type
REMARK                         _______ _______ _______ _____ _____    ______ ____
ROOT
ATOM      1  C   LIG    1        2.472   1.005  -0.020  0.00  0.00    +0.115 C 
ATOM      2  C   LIG    1        1.181   1.782   0.000  0.00  0.00    -0.019 A 
ATOM      3  C   LIG    1       -0.013   1.076   0.008  0.00  0.00    +0.052 A 
ATOM      4  C   LIG    1       -1.223   1.748   0.017  0.00  0.00    +0.135 A 
ATOM      5  C   LIG    1       -1.240   3.136   0.028  0.00  0.00    +0.083 A 
ATOM      6 CL   LIG    1       -2.752   3.989   0.045  0.00  0.00    -0.080 Cl
ATOM      7  C   LIG    1       -0.050   3.836   0.021  0.00  0.00    +0.027 A 
ATOM      8  C   LIG    1        1.162   3.160   0.009  0.00  0.00    -0.040 A 
ATOM      9  C   LIG    1        2.434   3.969   0.007  0.00  0.00    +0.050 C 
ATOM     10  C   LIG    1        3.610   3.091  -0.422  0.00  0.00    +0.086 C 
ATOM     11  N   LIG    1        3.592   1.860   0.384  0.00  0.00    -0.305 NA
ATOM     12  H   LIG    1        3.485   2.127   1.446  0.00  0.00    +0.123 HD
ENDROOT
BRANCH   1  16
ATOM     13  C   LIG    1        2.174  -2.297   2.673  0.00  0.00    +0.000 A 
ATOM     14  C   LIG    1        1.996  -2.493   1.317  0.00  0.00    +0.000 A 
ATOM     15  C   LIG    1        2.092  -1.425   0.445  0.00  0.00    +0.005 A 
ATOM     16  C   LIG    1        2.366  -0.160   0.930  0.00  0.00    -0.026 A 
ATOM     17  C   LIG    1        2.549   0.036   2.286  0.00  0.00    +0.005 A 
ATOM     18  C   LIG    1        2.449  -1.032   3.158  0.00  0.00    +0.000 A 
ENDBRANCH   1  16
BRANCH   4  19
ATOM     19  O   LIG    1       -2.390   1.051   0.021  0.00  0.00    -0.505 OA
ATOM     20  H   LIG    1       -3.351   1.587   0.028  0.00  0.00    +0.292 HD
ENDBRANCH   4  19
TORSDOF 2
