REMARK  Name = ZINC13737356
REMARK                            x       y       z     vdW  Elec       q    Type
REMARK                         _______ _______ _______ _____ _____    ______ ____
ROOT
ATOM      1  C   UNK A  0       -0.060  -1.917   2.034  0.00  0.00    +0.053 C 
ENDROOT
BRANCH   1   2
ATOM      2  C   UNK A  0        0.203  -0.434   2.099  0.00  0.00    -0.027 C 
ATOM      3  C   UNK A  0        0.980   0.133   1.210  0.00  0.00    -0.031 C 
BRANCH   3   4
ATOM      4  C   UNK A  0        1.479  -0.661   0.030  0.00  0.00    +0.027 C 
BRANCH   4   5
ATOM      5  C   UNK A  0        1.164   0.095  -1.263  0.00  0.00    +0.013 C 
BRANCH   5   6
ATOM      6  C   UNK A  0        1.670  -0.711  -2.461  0.00  0.00    +0.096 C 
BRANCH   6   7
ATOM      7  C   UNK A  0        1.361   0.034  -3.734  0.00  0.00    +0.213 C 
ATOM      8  N   ALA A  1        1.717  -0.489  -4.924  0.00  0.00    -0.311 N 
ATOM      9  H   ALA A  1        2.172  -1.344  -4.961  0.00  0.00    +0.149 HD
ATOM     10  O   UNK A  0        0.791   1.104  -3.688  0.00  0.00    -0.276 OA
BRANCH   8  11
ATOM     11  CA  ALA A  1        1.416   0.235  -6.162  0.00  0.00    +0.095 C 
ATOM     12  CB  ALA A  1        2.525   1.251  -6.441  0.00  0.00    +0.030 C 
BRANCH  11  13
ATOM     13  C   ALA A  1        1.327  -0.756  -7.324  0.00  0.00    +0.177 C 
BRANCH  13  14
ATOM     14  O   ALA A  1        2.606  -1.355  -7.538  0.00  0.00    -0.393 OA
ATOM     15  H   ALA A  1        2.624  -1.996  -8.261  0.00  0.00    +0.209 HD
ENDBRANCH  13  14
ENDBRANCH  11  13
ENDBRANCH   8  11
ENDBRANCH   6   7
ENDBRANCH   5   6
ENDBRANCH   4   5
ENDBRANCH   3   4
ENDBRANCH   1   2
BRANCH   1  17
ATOM     16  C   UNK A  0       -0.619  -3.299   3.968  0.00  0.00    -0.027 C 
ATOM     17  C   UNK A  0        0.266  -2.543   3.365  0.00  0.00    -0.027 C 
BRANCH  16  18
ATOM     18  C   UNK A  0       -1.895  -3.675   3.260  0.00  0.00    +0.053 C 
BRANCH  18  20
ATOM     19  C   UNK A  0       -3.163  -5.708   3.732  0.00  0.00    -0.027 C 
ATOM     20  C   UNK A  0       -2.056  -5.174   3.279  0.00  0.00    -0.027 C 
BRANCH  19  21
ATOM     21  C   UNK A  0       -4.341  -4.830   4.068  0.00  0.00    +0.053 C 
BRANCH  21  23
ATOM     22  C   UNK A  0       -6.660  -5.592   4.013  0.00  0.00    -0.031 C 
ATOM     23  C   UNK A  0       -5.564  -5.330   3.344  0.00  0.00    -0.027 C 
BRANCH  22  24
ATOM     24  C   UNK A  0       -6.753  -5.239   5.475  0.00  0.00    +0.027 C 
BRANCH  24  25
ATOM     25  C   UNK A  0       -8.017  -4.413   5.721  0.00  0.00    +0.004 C 
BRANCH  25  26
ATOM     26  C   UNK A  0       -8.111  -4.055   7.205  0.00  0.00    +0.000 C 
BRANCH  26  28
ATOM     27  C   UNK A  0       -9.469  -2.871   8.936  0.00  0.00    +0.004 C 
ATOM     28  C   UNK A  0       -9.375  -3.229   7.451  0.00  0.00    -0.003 C 
ENDBRANCH  26  28
ENDBRANCH  25  26
ENDBRANCH  24  25
ENDBRANCH  22  24
ENDBRANCH  21  23
ENDBRANCH  19  21
ENDBRANCH  18  20
ENDBRANCH  16  18
ENDBRANCH   1  17
TORSDOF 17
