REMARK  Name = ZINC13560962
REMARK                            x       y       z     vdW  Elec       q    Type
REMARK                         _______ _______ _______ _____ _____    ______ ____
ROOT
ATOM      1  C   LIG    1        1.296  -0.376  -0.012  0.00  0.00    +0.033 A 
ATOM      2  N   LIG    1        2.046   0.735  -0.013  0.00  0.00    -0.350 N 
ATOM      3  H   LIG    1        3.073   0.759  -0.023  0.00  0.00    +0.166 HD
ATOM      4  C   LIG    1        1.268   1.782  -0.001  0.00  0.00    +0.171 A 
ATOM      5  N   LIG    1       -0.017   1.365   0.009  0.00  0.00    -0.352 N 
ATOM      6  H   LIG    1       -0.829   1.947   0.020  0.00  0.00    +0.166 HD
ATOM      7  C   LIG    1        0.002  -0.004   0.002  0.00  0.00    +0.105 A 
ENDROOT
BRANCH   1   8
ATOM      8  C   LIG    1        1.810  -1.793  -0.025  0.00  0.00    +0.057 C 
BRANCH   8   9
ATOM      9  C   LIG    1        2.751  -1.983  -1.217  0.00  0.00    +0.034 C 
BRANCH   9  10
ATOM     10  C   LIG    1        3.273  -3.421  -1.229  0.00  0.00    +0.160 C 
BRANCH  10  12
ATOM     11  C   LIG    1        4.697  -4.916  -2.447  0.00  0.00    +0.193 C 
ATOM     12  O   LIG    1        4.151  -3.600  -2.342  0.00  0.00    -0.383 OA
ENDBRANCH  10  12
ENDBRANCH   9  10
ENDBRANCH   8   9
ENDBRANCH   1   8
TORSDOF 4
