REMARK  Name = ZINC13684515
REMARK                            x       y       z     vdW  Elec       q    Type
REMARK                         _______ _______ _______ _____ _____    ______ ____
ROOT
ATOM      1  C   LIG    1        2.893   2.071  -2.237  0.00  0.00    +0.044 C 
ATOM      2  C   LIG    1        3.288   1.190  -1.080  0.00  0.00    -0.039 C 
ATOM      3  C   LIG    1        2.481   1.072  -0.015  0.00  0.00    -0.035 C 
ATOM      4  C   LIG    1        2.877   0.229   1.165  0.00  0.00    +0.041 C 
ATOM      5  C   LIG    1        3.643  -1.013   0.705  0.00  0.00    +0.040 C 
ATOM      6  C   LIG    1        4.755  -0.614  -0.229  0.00  0.00    -0.040 A 
ATOM      7  C   LIG    1        5.948  -1.302  -0.234  0.00  0.00    +0.004 A 
ATOM      8  C   LIG    1        6.946  -0.953  -1.129  0.00  0.00    +0.000 A 
ATOM      9  C   LIG    1        6.751   0.083  -2.025  0.00  0.00    +0.001 A 
ATOM     10  C   LIG    1        5.563   0.786  -2.026  0.00  0.00    +0.008 A 
ATOM     11  C   LIG    1        4.564   0.454  -1.112  0.00  0.00    -0.019 A 
ENDROOT
BRANCH   3  12
ATOM     12  C   LIG    1        1.191   1.785   0.000  0.00  0.00    -0.003 A 
ATOM     13  C   LIG    1        1.150   3.186   0.008  0.00  0.00    +0.011 A 
ATOM     14  C   LIG    1       -0.086   3.806   0.023  0.00  0.00    +0.020 A 
ATOM     15  C   LIG    1       -1.232   3.031   0.030  0.00  0.00    +0.111 A 
ATOM     16  N   LIG    1       -1.165   1.713   0.017  0.00  0.00    -0.263 NA
ATOM     17  C   LIG    1       -0.013   1.076   0.008  0.00  0.00    +0.118 A 
ENDBRANCH   3  12
TORSDOF 1
