REMARK  Name = ZINC13633707
REMARK                            x       y       z     vdW  Elec       q    Type
REMARK                         _______ _______ _______ _____ _____    ______ ____
ROOT
ATOM      1  C   LIG    1       -1.073  -2.047   0.002  0.00  0.00    +0.162 A 
ATOM      2  N   LIG    1       -1.125  -0.728   0.009  0.00  0.00    -0.227 NA
ATOM      3  C   LIG    1        0.002  -0.004   0.002  0.00  0.00    +0.077 A 
ATOM      4  C   LIG    1       -0.017   1.398   0.010  0.00  0.00    +0.028 A 
ATOM      5  C   LIG    1        1.159   2.087   0.002  0.00  0.00    +0.002 A 
ATOM      6  C   LIG    1        2.381   1.420  -0.013  0.00  0.00    +0.001 A 
ATOM      7  C   LIG    1        2.436   0.057  -0.021  0.00  0.00    +0.013 A 
ATOM      8  C   LIG    1        1.247  -0.680  -0.013  0.00  0.00    +0.040 A 
ATOM      9  C   LIG    1        1.242  -2.098  -0.021  0.00  0.00    +0.131 A 
ATOM     10  N   LIG    1        0.074  -2.722  -0.012  0.00  0.00    -0.212 NA
ENDROOT
BRANCH   1  14
ATOM     11  C   LIG    1       -4.721  -4.230   0.026  0.00  0.00    +0.000 A 
ATOM     12  C   LIG    1       -4.746  -2.847   0.033  0.00  0.00    +0.001 A 
ATOM     13  C   LIG    1       -3.565  -2.133   0.026  0.00  0.00    +0.011 A 
ATOM     14  C   LIG    1       -2.345  -2.808   0.011  0.00  0.00    +0.019 A 
ATOM     15  C   LIG    1       -2.327  -4.202  -0.002  0.00  0.00    +0.011 A 
ATOM     16  C   LIG    1       -3.514  -4.905   0.011  0.00  0.00    +0.001 A 
ENDBRANCH   1  14
BRANCH   9  17
ATOM     17  N   LIG    1        2.424  -2.808  -0.036  0.00  0.00    -0.326 N 
ATOM     18  H   LIG    1        3.386  -2.276  -0.043  0.00  0.00    +0.148 HD
BRANCH  17  19
ATOM     19  C   LIG    1        2.397  -4.273  -0.043  0.00  0.00    +0.072 C 
ATOM     20  C   LIG    1        2.277  -4.788   1.393  0.00  0.00    +0.022 C 
ATOM     21  C   LIG    1        2.249  -6.318   1.385  0.00  0.00    +0.002 C 
ATOM     22  C   LIG    1        3.541  -6.848   0.760  0.00  0.00    +0.000 C 
ATOM     23  C   LIG    1        3.661  -6.333  -0.676  0.00  0.00    +0.002 C 
ATOM     24  C   LIG    1        3.689  -4.803  -0.669  0.00  0.00    +0.022 C 
ENDBRANCH  17  19
ENDBRANCH   9  17
TORSDOF 3
