REMARK  Name = ZINC13657906
REMARK                            x       y       z     vdW  Elec       q    Type
REMARK                         _______ _______ _______ _____ _____    ______ ____
ROOT
ATOM      1  C   LIG    1       -0.018   1.503   0.010  0.00  0.00    +0.067 C 
ATOM      2  C   LIG    1        0.002  -0.004   0.002  0.00  0.00    +0.062 A 
ATOM      3  C   LIG    1       -1.106  -0.827   0.003  0.00  0.00    +0.172 A 
ATOM      4  C   LIG    1       -0.602  -2.210  -0.008  0.00  0.00    +0.292 A 
ATOM      5  N   LIG    1        0.744  -2.131  -0.014  0.00  0.00    -0.264 N 
ATOM      6  H   LIG    1        1.355  -2.884  -0.021  0.00  0.00    +0.190 HD
ATOM      7  O   LIG    1       -1.271  -3.227  -0.011  0.00  0.00    -0.264 OA
ATOM      8  N   LIG    1        1.112  -0.782  -0.013  0.00  0.00    -0.299 N 
ATOM      9  H   LIG    1        2.025  -0.453  -0.020  0.00  0.00    +0.186 HD
ENDROOT
BRANCH   3  10
ATOM     10  N   LIG    1       -2.409  -0.436   0.012  0.00  0.00    -0.142 NA
ATOM     11  N   LIG    1       -2.705   0.819   0.022  0.00  0.00    -0.148 NA
BRANCH  11  12
ATOM     12  C   LIG    1       -4.016   1.212   0.031  0.00  0.00    +0.104 A 
ATOM     13  C   LIG    1       -5.035   0.257   0.036  0.00  0.00    +0.031 A 
ATOM     14  C   LIG    1       -6.354   0.660   0.046  0.00  0.00    +0.002 A 
ATOM     15  C   LIG    1       -6.669   2.008   0.050  0.00  0.00    +0.002 A 
ATOM     16  C   LIG    1       -5.666   2.960   0.045  0.00  0.00    +0.022 A 
ATOM     17  C   LIG    1       -4.341   2.572   0.042  0.00  0.00    +0.068 A 
ATOM     18 CL   LIG    1       -3.083   3.768   0.043  0.00  0.00    -0.081 Cl
ENDBRANCH  11  12
ENDBRANCH   3  10
TORSDOF 2
