REMARK  Name = ZINC13641427
REMARK                            x       y       z     vdW  Elec       q    Type
REMARK                         _______ _______ _______ _____ _____    ______ ____
ROOT
ATOM      1  C   LIG    1       -0.796   1.665   1.202  0.00  0.00    -0.015 C 
ENDROOT
BRANCH   1   2
ATOM      2  C   LIG    1        0.172   1.093   2.240  0.00  0.00    -0.010 C 
BRANCH   2   4
ATOM      3  C   LIG    1        2.524   1.156   3.081  0.00  0.00    +0.004 C 
ATOM      4  C   LIG    1        1.523   1.802   2.121  0.00  0.00    +0.000 C 
ENDBRANCH   2   4
BRANCH   2   5
ATOM      5  C   LIG    1       -0.396   1.311   3.643  0.00  0.00    +0.000 C 
ATOM      6  C   LIG    1       -0.658   2.802   3.862  0.00  0.00    +0.004 C 
ENDBRANCH   2   5
ENDBRANCH   1   2
BRANCH   1   7
ATOM      7  C   LIG    1       -2.098   0.860   1.223  0.00  0.00    -0.082 C 
BRANCH   7   8
ATOM      8  N   LIG    1       -2.752   1.038   2.531  0.00  0.00    +0.378 N 
ATOM      9  H   LIG    1       -2.135   0.677   3.268  0.00  0.00    -0.090 HD
ATOM     10  H   LIG    1       -3.632   0.526   2.554  0.00  0.00    -0.090 HD
ATOM     11  H   LIG    1       -2.930   2.026   2.701  0.00  0.00    -0.090 HD
ENDBRANCH   7   8
ENDBRANCH   1   7
BRANCH   1  12
ATOM     12  C   LIG    1       -0.164   1.578  -0.188  0.00  0.00    +0.122 C 
BRANCH  12  13
ATOM     13  C   LIG    1       -1.065   2.251  -1.192  0.00  0.00    +0.305 C 
ATOM     14  O   LIG    1       -2.105   2.749  -0.832  0.00  0.00    -0.251 OA
BRANCH  13  15
ATOM     15  O   LIG    1       -0.711   2.297  -2.486  0.00  0.00    -0.481 OA
ATOM     16  H   LIG    1        0.096   1.910  -2.765  0.00  0.00    +0.295 HD
ENDBRANCH  13  15
ENDBRANCH  12  13
ENDBRANCH   1  12
TORSDOF 8
