REMARK  Name = ZINC13742955
REMARK                            x       y       z     vdW  Elec       q    Type
REMARK                         _______ _______ _______ _____ _____    ______ ____
ROOT
ATOM      1  C   LIG    1       -0.729   1.579   1.267  0.00  0.00    +0.106 C 
ENDROOT
BRANCH   1   2
ATOM      2  O   LIG    1       -0.647   3.004   1.334  0.00  0.00    -0.393 OA
ATOM      3  H   LIG    1       -1.107   3.543   2.175  0.00  0.00    +0.210 HD
ENDBRANCH   1   2
BRANCH   1   4
ATOM      4  C   LIG    1       -0.013   1.086   0.008  0.00  0.00    +0.126 C 
BRANCH   4   6
ATOM      5  C   LIG    1       -0.130   0.981  -2.965  0.00  0.00    +0.111 C 
ATOM      6  P   LIG    1       -0.894   1.690  -1.469  0.00  0.00    +0.202 P 
ATOM      7  O   LIG    1       -2.314   1.278  -1.398  0.00  0.00    -0.291 OA
BRANCH   6   8
ATOM      8  O   LIG    1       -0.803   3.296  -1.529  0.00  0.00    -0.344 OA
ATOM      9  H   LIG    1       -1.272   3.617  -2.315  0.00  0.00    +0.218 HD
ENDBRANCH   6   8
ENDBRANCH   4   6
ENDBRANCH   1   4
BRANCH   1  10
ATOM     10  C   LIG    1       -0.064   0.971   2.503  0.00  0.00    -0.054 C 
BRANCH  10  11
ATOM     11  N   LIG    1       -0.823   1.348   3.703  0.00  0.00    +0.380 N 
ATOM     12  H   LIG    1       -0.840   2.444   3.797  0.00  0.00    -0.090 HD
ATOM     13  H   LIG    1       -1.853   0.972   3.618  0.00  0.00    -0.090 HD
ATOM     14  H   LIG    1       -0.345   0.911   4.592  0.00  0.00    -0.090 HD
ENDBRANCH  10  11
ENDBRANCH   1  10
TORSDOF 6
