REMARK  Name = ZINC13650623
REMARK                            x       y       z     vdW  Elec       q    Type
REMARK                         _______ _______ _______ _____ _____    ______ ____
ROOT
ATOM      1  C   LIG    1       -1.214  -2.059  -0.291  0.00  0.00    -0.035 A 
ATOM      2  C   LIG    1       -0.066  -2.781  -0.020  0.00  0.00    +0.050 A 
ATOM      3  C   LIG    1        1.118  -2.116   0.259  0.00  0.00    +0.124 A 
ATOM      4  C   LIG    1        1.154  -0.728   0.267  0.00  0.00    +0.039 A 
ATOM      5  C   LIG    1        0.002  -0.004   0.002  0.00  0.00    +0.128 A 
ATOM      6  O   LIG    1       -0.016   1.354   0.009  0.00  0.00    -0.486 OA
ATOM      7  C   LIG    1        1.227   2.061   0.001  0.00  0.00    +0.108 C 
ATOM      8  C   LIG    1        0.992   3.524   0.382  0.00  0.00    +0.055 C 
ATOM      9  C   LIG    1        1.857   1.983  -1.390  0.00  0.00    +0.055 C 
ATOM     10  C   LIG    1        2.151   1.403   1.025  0.00  0.00    +0.040 C 
ATOM     11  C   LIG    1        3.468   2.162   1.166  0.00  0.00    +0.008 C 
ATOM     12  C   LIG    1        4.327   1.457   2.223  0.00  0.00    +0.006 C 
ATOM     13  C   LIG    1        4.591   0.010   1.808  0.00  0.00    +0.015 C 
ATOM     14  C   LIG    1        3.267  -0.738   1.622  0.00  0.00    +0.014 C 
ATOM     15  C   LIG    1        2.448  -0.022   0.552  0.00  0.00    +0.033 C 
ATOM     16  C   LIG    1       -1.182  -0.680  -0.280  0.00  0.00    +0.050 A 
ENDROOT
BRANCH   1  17
ATOM     17  C   LIG    1       -2.501  -2.780  -0.599  0.00  0.00    -0.010 C 
ATOM     18  C   LIG    1       -2.983  -2.388  -1.997  0.00  0.00    +0.016 C 
ATOM     19  C   LIG    1       -3.561  -2.393   0.434  0.00  0.00    +0.016 C 
BRANCH  17  20
ATOM     20  C   LIG    1       -2.264  -4.291  -0.546  0.00  0.00    +0.011 C 
BRANCH  20  21
ATOM     21  C   LIG    1       -3.571  -5.023  -0.859  0.00  0.00    +0.001 C 
BRANCH  21  22
ATOM     22  C   LIG    1       -3.335  -6.533  -0.806  0.00  0.00    +0.000 C 
BRANCH  22  23
ATOM     23  C   LIG    1       -4.642  -7.265  -1.119  0.00  0.00    -0.000 C 
BRANCH  23  25
ATOM     24  C   LIG    1       -5.713  -9.508  -1.379  0.00  0.00    +0.004 C 
ATOM     25  C   LIG    1       -4.406  -8.776  -1.066  0.00  0.00    -0.003 C 
ENDBRANCH  23  25
ENDBRANCH  22  23
ENDBRANCH  21  22
ENDBRANCH  20  21
ENDBRANCH  17  20
ENDBRANCH   1  17
BRANCH   3  26
ATOM     26  O   LIG    1        2.246  -2.824   0.526  0.00  0.00    -0.506 OA
ATOM     27  H   LIG    1        2.776  -3.030  -0.256  0.00  0.00    +0.292 HD
ENDBRANCH   3  26
BRANCH  13  28
ATOM     28  C   LIG    1        5.415  -0.686   2.894  0.00  0.00    +0.159 C 
BRANCH  28  29
ATOM     29  O   LIG    1        6.704  -0.074   2.979  0.00  0.00    -0.395 OA
ATOM     30  H   LIG    1        7.281  -0.466   3.649  0.00  0.00    +0.209 HD
ENDBRANCH  28  29
ENDBRANCH  13  28
TORSDOF 9
