REMARK  Name = ZINC13603574
REMARK                            x       y       z     vdW  Elec       q    Type
REMARK                         _______ _______ _______ _____ _____    ______ ____
ROOT
ATOM      1  C   LIG    1       -2.066   3.725   2.320  0.00  0.00    +0.191 C 
ENDROOT
BRANCH   1   5
ATOM      2  C   LIG    1       -5.189   6.335   1.024  0.00  0.00    +0.000 A 
ATOM      3  C   LIG    1       -5.444   4.988   1.201  0.00  0.00    +0.000 A 
ATOM      4  C   LIG    1       -4.433   4.143   1.620  0.00  0.00    +0.007 A 
ATOM      5  C   LIG    1       -3.168   4.646   1.863  0.00  0.00    -0.005 A 
ATOM      6  C   LIG    1       -2.915   5.994   1.691  0.00  0.00    +0.007 A 
ATOM      7  C   LIG    1       -3.924   6.838   1.266  0.00  0.00    +0.000 A 
ENDBRANCH   1   5
BRANCH   1   8
ATOM      8  O   LIG    1       -2.627   2.649   3.074  0.00  0.00    -0.373 OA
ATOM      9  H   LIG    1       -3.262   2.111   2.581  0.00  0.00    +0.211 HD
ENDBRANCH   1   8
BRANCH   1  10
ATOM     10  C   LIG    1       -1.343   3.172   1.119  0.00  0.00    +0.344 C 
ATOM     11  O   LIG    1       -1.346   3.784   0.077  0.00  0.00    -0.247 OA
BRANCH  10  12
ATOM     12  O   LIG    1       -0.694   2.001   1.207  0.00  0.00    -0.461 OA
BRANCH  12  13
ATOM     13  C   LIG    1       -0.019   1.530   0.011  0.00  0.00    +0.163 C 
ATOM     14  C   LIG    1        1.424   2.043  -0.001  0.00  0.00    -0.033 C 
ATOM     15  N   LIG    1        2.375   0.911  -0.016  0.00  0.00    +0.382 N 
ATOM     16  H   LIG    1        3.333   1.281  -0.024  0.00  0.00    -0.082 HD
ATOM     17  C   LIG    1        2.191   0.079   1.192  0.00  0.00    -0.078 C 
ATOM     18  C   LIG    1        0.770  -0.490   1.238  0.00  0.00    -0.012 C 
ATOM     19  C   LIG    1        2.167   0.093  -1.229  0.00  0.00    -0.078 C 
ATOM     20  C   LIG    1        0.746  -0.476  -1.254  0.00  0.00    -0.012 C 
ATOM     21  C   LIG    1        0.002  -0.004   0.002  0.00  0.00    +0.024 C 
ENDBRANCH  12  13
ENDBRANCH  10  12
ENDBRANCH   1  10
BRANCH   1  22
ATOM     22  C   LIG    1       -1.082   4.502   3.196  0.00  0.00    +0.079 C 
BRANCH  22  23
ATOM     23  C   LIG    1        0.083   3.615   3.552  0.00  0.00    -0.017 C 
ATOM     24  C   LIG    1        1.307   4.002   3.286  0.00  0.00    +0.041 C 
ATOM     25  I   LIG    1        2.926   2.769   3.781  0.00  0.00    -0.053 I 
ENDBRANCH  22  23
ENDBRANCH   1  22
TORSDOF 7
