REMARK  Name = ZINC13598663
REMARK                            x       y       z     vdW  Elec       q    Type
REMARK                         _______ _______ _______ _____ _____    ______ ____
ROOT
ATOM      1  C   LIG    1        1.107  -6.006  -1.843  0.00  0.00    +0.028 C 
ATOM      2  C   LIG    1        1.645  -6.511  -2.982  0.00  0.00    +0.080 C 
ATOM      3  C   LIG    1        1.765  -7.915  -3.423  0.00  0.00    +0.260 C 
ATOM      4  N   LIG    1        2.341  -8.121  -4.595  0.00  0.00    -0.230 N 
ATOM      5  C   LIG    1        2.795  -7.096  -5.346  0.00  0.00    +0.286 C 
ATOM      6  O   LIG    1        3.339  -7.140  -6.433  0.00  0.00    -0.262 OA
ATOM      7  O   LIG    1        1.355  -8.837  -2.742  0.00  0.00    -0.269 OA
ATOM      8  S   LIG    1        2.394  -5.661  -4.364  0.00  0.00    -0.026 S 
ENDROOT
BRANCH   1  12
ATOM      9  C   LIG    1        0.615  -1.816  -1.409  0.00  0.00    +0.121 A 
ATOM     10  C   LIG    1        0.998  -2.345  -2.636  0.00  0.00    +0.046 A 
ATOM     11  C   LIG    1        1.160  -3.704  -2.782  0.00  0.00    +0.011 A 
ATOM     12  C   LIG    1        0.937  -4.555  -1.692  0.00  0.00    -0.024 A 
ATOM     13  C   LIG    1        0.551  -4.017  -0.459  0.00  0.00    +0.011 A 
ATOM     14  C   LIG    1        0.398  -2.655  -0.322  0.00  0.00    +0.046 A 
BRANCH   9  15
ATOM     15  O   LIG    1        0.457  -0.475  -1.270  0.00  0.00    -0.492 OA
BRANCH  15  17
ATOM     16  C   LIG    1        0.470   1.802  -2.079  0.00  0.00    +0.048 C 
ATOM     17  C   LIG    1        0.696   0.329  -2.427  0.00  0.00    +0.225 C 
ENDBRANCH  15  17
ENDBRANCH   9  15
ENDBRANCH   1  12
BRANCH   4  18
ATOM     18  C   LIG    1        2.490  -9.492  -5.089  0.00  0.00    +0.098 C 
BRANCH  18  19
ATOM     19  C   LIG    1        1.257  -9.876  -5.909  0.00  0.00    -0.067 C 
BRANCH  19  20
ATOM     20  N   LIG    1        1.407 -11.251  -6.404  0.00  0.00    +0.379 N 
ATOM     21  H   LIG    1        2.229 -11.311  -6.986  0.00  0.00    -0.090 HD
ATOM     22  H   LIG    1        0.593 -11.504  -6.945  0.00  0.00    -0.090 HD
ATOM     23  H   LIG    1        1.501 -11.881  -5.622  0.00  0.00    -0.090 HD
ENDBRANCH  19  20
ENDBRANCH  18  19
ENDBRANCH   4  18
TORSDOF 6
