REMARK  Name = ZINC13608474
REMARK                            x       y       z     vdW  Elec       q    Type
REMARK                         _______ _______ _______ _____ _____    ______ ____
ROOT
ATOM      1  C   LIG    1        1.230  -0.645  -0.013  0.00  0.00    +0.023 A 
ATOM      2  C   LIG    1        2.387   0.112  -0.020  0.00  0.00    +0.111 A 
ATOM      3  N   LIG    1        2.335   1.429  -0.013  0.00  0.00    -0.261 NA
ATOM      4  C   LIG    1        1.188   2.079   0.002  0.00  0.00    +0.133 A 
ATOM      5  C   LIG    1       -0.017   1.389   0.010  0.00  0.00    +0.044 A 
ATOM      6  C   LIG    1        0.002  -0.004   0.002  0.00  0.00    -0.041 A 
ENDROOT
BRANCH   5   7
ATOM      7  N   LIG    1       -1.230   2.081   0.019  0.00  0.00    -0.357 N 
ATOM      8  H   LIG    1       -1.235   3.051   0.025  0.00  0.00    +0.142 HD
ATOM      9  H   LIG    1       -2.068   1.592   0.021  0.00  0.00    +0.142 HD
ENDBRANCH   5   7
BRANCH   6  10
ATOM     10  C   LIG    1       -1.281  -0.794   0.009  0.00  0.00    -0.049 C 
BRANCH  10  11
ATOM     11  N   LIG    1       -1.841  -0.813  -1.353  0.00  0.00    +0.381 N 
ATOM     12  H   LIG    1       -2.053   0.148  -1.645  0.00  0.00    -0.090 HD
ATOM     13  H   LIG    1       -2.699  -1.363  -1.371  0.00  0.00    -0.090 HD
ATOM     14  H   LIG    1       -1.167  -1.217  -2.002  0.00  0.00    -0.090 HD
ENDBRANCH  10  11
ENDBRANCH   6  10
TORSDOF 3
