REMARK  Name = ZINC13739967
REMARK                            x       y       z     vdW  Elec       q    Type
REMARK                         _______ _______ _______ _____ _____    ______ ____
ROOT
ATOM      1  C   LIG    1       -0.837   1.636  -1.182  0.00  0.00    -0.033 C 
ATOM      2  N   LIG    1       -1.286   2.969  -0.740  0.00  0.00    +0.384 N 
ATOM      3  H   LIG    1       -0.640   3.685  -1.093  0.00  0.00    -0.085 HD
ATOM      4  H   LIG    1       -2.230   3.152  -1.100  0.00  0.00    -0.085 HD
ATOM      5  C   LIG    1       -1.304   3.004   0.731  0.00  0.00    -0.082 C 
ATOM      6  C   LIG    1       -0.815   1.624   1.222  0.00  0.00    -0.020 C 
ATOM      7  C   LIG    1       -0.013   1.086   0.008  0.00  0.00    -0.013 C 
ENDROOT
BRANCH   1  11
ATOM      8  C   LIG    1        1.175   0.397  -5.689  0.00  0.00    +0.066 C 
ATOM      9  C   LIG    1        1.002   1.265  -4.469  0.00  0.00    +0.047 A 
ATOM     10  C   LIG    1        0.118   0.908  -3.475  0.00  0.00    +0.034 A 
ATOM     11  C   LIG    1        0.028   1.751  -2.411  0.00  0.00    -0.004 A 
ATOM     12  S   LIG    1        1.157   2.994  -2.836  0.00  0.00    +0.005 S 
ATOM     13  N   LIG    1        1.690   2.372  -4.336  0.00  0.00    -0.215 NA
ENDBRANCH   1  11
TORSDOF 1
