REMARK  Name = ZINC13659141
REMARK                            x       y       z     vdW  Elec       q    Type
REMARK                         _______ _______ _______ _____ _____    ______ ____
ROOT
ATOM      1  C   LIG    1       -0.122   1.032   0.532  0.00  0.00    +0.028 C 
ATOM      2  C   LIG    1        0.135  -0.183  -0.017  0.00  0.00    +0.077 C 
ATOM      3  C   LIG    1        1.419  -0.894  -0.172  0.00  0.00    +0.263 C 
ATOM      4  N   LIG    1        1.373  -2.083  -0.749  0.00  0.00    -0.224 N 
ATOM      5  C   LIG    1        0.210  -2.611  -1.182  0.00  0.00    +0.125 C 
ATOM      6  S   LIG    1       -0.052  -4.117  -1.953  0.00  0.00    -0.027 S 
ATOM      7  O   LIG    1        2.468  -0.411   0.215  0.00  0.00    -0.269 OA
ATOM      8  S   LIG    1       -0.990  -1.358  -0.758  0.00  0.00    -0.061 S 
ENDROOT
BRANCH   1  12
ATOM      9  C   LIG    1       -4.001   2.718   0.234  0.00  0.00    +0.120 A 
ATOM     10  C   LIG    1       -3.045   3.319   1.045  0.00  0.00    +0.046 A 
ATOM     11  C   LIG    1       -1.784   2.776   1.146  0.00  0.00    +0.011 A 
ATOM     12  C   LIG    1       -1.465   1.616   0.429  0.00  0.00    -0.024 A 
ATOM     13  C   LIG    1       -2.430   1.018  -0.391  0.00  0.00    +0.011 A 
ATOM     14  C   LIG    1       -3.689   1.566  -0.480  0.00  0.00    +0.046 A 
BRANCH   9  16
ATOM     15  C   LIG    1       -6.176   2.591  -0.714  0.00  0.00    +0.277 C 
ATOM     16  O   LIG    1       -5.243   3.258   0.138  0.00  0.00    -0.495 OA
ENDBRANCH   9  16
ENDBRANCH   1  12
BRANCH   4  17
ATOM     17  C   LIG    1        2.561  -2.808  -0.919  0.00  0.00    +0.043 A 
ATOM     18  C   LIG    1        2.770  -3.978  -0.202  0.00  0.00    +0.027 A 
ATOM     19  C   LIG    1        3.937  -4.695  -0.374  0.00  0.00    +0.047 A 
ATOM     20  C   LIG    1        4.907  -4.241  -1.256  0.00  0.00    +0.117 A 
ATOM     21  C   LIG    1        4.701  -3.069  -1.970  0.00  0.00    +0.047 A 
ATOM     22  C   LIG    1        3.532  -2.354  -1.802  0.00  0.00    +0.027 A 
BRANCH  20  23
ATOM     23  O   LIG    1        6.058  -4.944  -1.421  0.00  0.00    -0.507 OA
ATOM     24  H   LIG    1        6.768  -4.685  -0.817  0.00  0.00    +0.292 HD
ENDBRANCH  20  23
ENDBRANCH   4  17
TORSDOF 4
