REMARK  Name = ZINC13683126
REMARK                            x       y       z     vdW  Elec       q    Type
REMARK                         _______ _______ _______ _____ _____    ______ ____
ROOT
ATOM      1  N   LIG    1       -1.218   6.005   0.048  0.00  0.00    -0.228 N 
ATOM      2  C   LIG    1       -0.057   5.331   0.033  0.00  0.00    +0.254 C 
ATOM      3  C   LIG    1       -0.023   3.857   0.023  0.00  0.00    +0.048 A 
ATOM      4  C   LIG    1        1.182   3.164   0.008  0.00  0.00    +0.014 A 
ATOM      5  C   LIG    1        1.179   1.780   0.000  0.00  0.00    +0.001 A 
ATOM      6  C   LIG    1       -0.013   1.076   0.008  0.00  0.00    +0.001 A 
ATOM      7  C   LIG    1       -1.223   1.747   0.017  0.00  0.00    +0.012 A 
ATOM      8  C   LIG    1       -1.236   3.137   0.031  0.00  0.00    +0.039 A 
ATOM      9  C   LIG    1       -2.500   3.900   0.047  0.00  0.00    +0.249 C 
ATOM     10  O   LIG    1       -3.574   3.334   0.053  0.00  0.00    -0.282 OA
ATOM     11  O   LIG    1        0.989   5.950   0.026  0.00  0.00    -0.270 OA
ATOM     12  C   LIG    1       -2.415   5.394   0.056  0.00  0.00    +0.294 C 
ATOM     13  O   LIG    1       -3.431   6.057   0.070  0.00  0.00    -0.266 OA
ENDROOT
BRANCH   1  14
ATOM     14  C   LIG    1       -1.178   7.469   0.058  0.00  0.00    +0.144 C 
BRANCH  14  16
ATOM     15  C   LIG    1       -2.089   8.840  -1.746  0.00  0.00    +0.005 C 
ATOM     16  C   LIG    1       -1.179   7.981  -1.360  0.00  0.00    -0.015 C 
ENDBRANCH  14  16
ENDBRANCH   1  14
TORSDOF 2
