REMARK  Name = ZINC13643095
REMARK                            x       y       z     vdW  Elec       q    Type
REMARK                         _______ _______ _______ _____ _____    ______ ____
ROOT
ATOM      1  C   LIG    1        2.326   3.947   0.460  0.00  0.00    +0.008 C 
ATOM      2  C   LIG    1        1.269   3.366   1.401  0.00  0.00    +0.021 C 
ATOM      3  C   LIG    1        1.175   3.113  -0.105  0.00  0.00    +0.056 C 
ENDROOT
BRANCH   1   5
ATOM      4  C   LIG    1        1.198   6.093   1.064  0.00  0.00    +0.007 C 
ATOM      5  C   LIG    1        2.295   5.456   0.209  0.00  0.00    -0.013 C 
ATOM      6  C   LIG    1        3.649   6.063   0.581  0.00  0.00    +0.007 C 
ENDBRANCH   1   5
BRANCH   3   7
ATOM      7  C   LIG    1        1.498   1.726  -0.599  0.00  0.00    +0.309 C 
ATOM      8  O   LIG    1        2.631   1.312  -0.539  0.00  0.00    -0.250 OA
BRANCH   7   9
ATOM      9  O   LIG    1        0.526   0.951  -1.105  0.00  0.00    -0.480 OA
ATOM     10  H   LIG    1       -0.353   1.271  -1.150  0.00  0.00    +0.295 HD
ENDBRANCH   7   9
ENDBRANCH   3   7
BRANCH   3  11
ATOM     11  C   LIG    1        0.080   3.850  -0.878  0.00  0.00    -0.068 C 
BRANCH  11  12
ATOM     12  N   LIG    1       -1.126   3.005  -0.927  0.00  0.00    +0.379 N 
ATOM     13  H   LIG    1       -0.907   2.134  -1.425  0.00  0.00    -0.090 HD
ATOM     14  H   LIG    1       -1.873   3.491  -1.420  0.00  0.00    -0.090 HD
ATOM     15  H   LIG    1       -1.433   2.780   0.018  0.00  0.00    -0.090 HD
ENDBRANCH  11  12
ENDBRANCH   3  11
TORSDOF 5
