REMARK  Name = ZINC13610737
REMARK                            x       y       z     vdW  Elec       q    Type
REMARK                         _______ _______ _______ _____ _____    ______ ____
ROOT
ATOM      1  N   LIG    1        4.628   0.885  -0.038  0.00  0.00    -0.286 N 
ATOM      2  C   LIG    1        4.091  -0.368  -0.039  0.00  0.00    +0.203 A 
ATOM      3  N   LIG    1        2.792  -0.296  -0.026  0.00  0.00    -0.231 NA
ATOM      4  C   LIG    1        2.413   1.005  -0.016  0.00  0.00    +0.147 A 
ATOM      5  C   LIG    1        1.178   1.674  -0.000  0.00  0.00    +0.150 A 
ATOM      6  N   LIG    1        1.178   3.003   0.001  0.00  0.00    -0.219 NA
ATOM      7  C   LIG    1        2.307   3.687  -0.001  0.00  0.00    +0.225 A 
ATOM      8  N   LIG    1        3.487   3.103  -0.015  0.00  0.00    -0.216 NA
ATOM      9  C   LIG    1        3.587   1.778  -0.023  0.00  0.00    +0.167 A 
ENDROOT
BRANCH   1  14
ATOM     10  C   LIG    1        8.120  -0.420   2.286  0.00  0.00    +0.047 C 
ATOM     11  C   LIG    1        8.005   0.777   1.340  0.00  0.00    +0.121 C 
ATOM     12  C   LIG    1        8.169   0.325  -0.128  0.00  0.00    +0.180 C 
ATOM     13  O   LIG    1        6.820   0.124  -0.604  0.00  0.00    -0.345 OA
ATOM     14  C   LIG    1        6.055   1.217  -0.051  0.00  0.00    +0.254 C 
ATOM     15  C   LIG    1        6.583   1.377   1.392  0.00  0.00    +0.198 C 
BRANCH  11  16
ATOM     16  O   LIG    1        8.980   1.769   1.670  0.00  0.00    -0.383 OA
ATOM     17  H   LIG    1        9.894   1.463   1.595  0.00  0.00    +0.210 HD
ENDBRANCH  11  16
BRANCH  15  18
ATOM     18  O   LIG    1        6.635   2.758   1.756  0.00  0.00    -0.384 OA
ATOM     19  H   LIG    1        5.775   3.201   1.745  0.00  0.00    +0.210 HD
ENDBRANCH  15  18
BRANCH  12  20
ATOM     20  C   LIG    1        8.958  -0.984  -0.197  0.00  0.00    +0.190 C 
BRANCH  20  21
ATOM     21  O   LIG    1        9.135  -1.362  -1.564  0.00  0.00    -0.392 OA
ATOM     22  H   LIG    1        9.628  -2.185  -1.684  0.00  0.00    +0.210 HD
ENDBRANCH  20  21
ENDBRANCH  12  20
ENDBRANCH   1  14
BRANCH   5  23
ATOM     23  N   LIG    1       -0.011   0.966   0.007  0.00  0.00    -0.324 N 
ATOM     24  H   LIG    1       -0.062   0.391  -0.809  0.00  0.00    +0.148 HD
BRANCH  23  25
ATOM     25  C   LIG    1       -1.290   1.681   0.017  0.00  0.00    +0.072 C 
ATOM     26  C   LIG    1       -1.708   1.995   1.468  0.00  0.00    +0.022 C 
ATOM     27  C   LIG    1       -3.247   1.815   1.467  0.00  0.00    +0.002 C 
ATOM     28  C   LIG    1       -3.448   0.596   0.533  0.00  0.00    +0.002 C 
ATOM     29  C   LIG    1       -2.396   0.792  -0.577  0.00  0.00    +0.022 C 
ENDBRANCH  23  25
ENDBRANCH   5  23
TORSDOF 7
