REMARK  Name = ZINC13646511
REMARK                            x       y       z     vdW  Elec       q    Type
REMARK                         _______ _______ _______ _____ _____    ______ ____
ROOT
ATOM      1  C   LIG    1        2.380  10.658  -1.100  0.00  0.00    +0.106 A 
ATOM      2  C   LIG    1        2.482  11.263  -2.313  0.00  0.00    +0.041 A 
ATOM      3  C   LIG    1        3.322  10.463  -3.124  0.00  0.00    +0.001 A 
ATOM      4  C   LIG    1        3.779  10.579  -4.444  0.00  0.00    +0.010 A 
ATOM      5  C   LIG    1        4.614   9.631  -4.958  0.00  0.00    +0.001 A 
ATOM      6  C   LIG    1        5.006   8.541  -4.191  0.00  0.00    +0.002 A 
ATOM      7  C   LIG    1        4.566   8.402  -2.894  0.00  0.00    +0.026 A 
ATOM      8  C   LIG    1        3.720   9.361  -2.343  0.00  0.00    +0.050 A 
ATOM      9  N   LIG    1        3.128   9.496  -1.109  0.00  0.00    -0.330 N 
ENDROOT
BRANCH   1  12
ATOM     10  N   LIG    1        0.824  12.253  -0.103  0.00  0.00    -0.307 N 
ATOM     11  H   LIG    1        0.722  12.665  -0.975  0.00  0.00    +0.149 HD
ATOM     12  C   LIG    1        1.600  11.160   0.040  0.00  0.00    +0.261 C 
ATOM     13  O   LIG    1        1.654  10.589   1.113  0.00  0.00    -0.269 OA
BRANCH  10  18
ATOM     14  N   LIG    1       -2.194  14.151   2.141  0.00  0.00    +0.381 N 
ATOM     15  H   LIG    1       -2.706  14.215   1.254  0.00  0.00    -0.081 HD
ATOM     16  C   LIG    1       -1.940  12.727   2.446  0.00  0.00    -0.077 C 
ATOM     17  C   LIG    1       -1.197  12.091   1.269  0.00  0.00    +0.004 C 
ATOM     18  C   LIG    1        0.134  12.819   1.059  0.00  0.00    +0.070 C 
ATOM     19  C   LIG    1       -0.139  14.306   0.818  0.00  0.00    +0.004 C 
ATOM     20  C   LIG    1       -0.913  14.877   2.008  0.00  0.00    -0.077 C 
BRANCH  14  22
ATOM     21  C   LIG    1       -4.316  13.974   3.347  0.00  0.00    -0.014 C 
ATOM     22  C   LIG    1       -3.010  14.759   3.212  0.00  0.00    -0.075 C 
ATOM     23  C   LIG    1       -2.257  14.730   4.544  0.00  0.00    -0.014 C 
ENDBRANCH  14  22
ENDBRANCH  10  18
ENDBRANCH   1  12
BRANCH   9  24
ATOM     24  C   LIG    1        3.273   8.566   0.013  0.00  0.00    +0.181 C 
BRANCH  24  25
ATOM     25  C   LIG    1        2.123   7.591   0.008  0.00  0.00    +0.104 A 
ATOM     26  C   LIG    1        2.212   6.187   0.001  0.00  0.00    +0.078 A 
ATOM     27  C   LIG    1        0.903   5.774  -0.003  0.00  0.00    +0.174 A 
ATOM     28  O   LIG    1        0.159   6.896   0.010  0.00  0.00    -0.354 OA
ATOM     29  N   LIG    1        0.853   7.886   0.017  0.00  0.00    -0.081 NA
BRANCH  27  30
ATOM     30  C   LIG    1        0.412   4.389  -0.014  0.00  0.00    +0.058 A 
ATOM     31  C   LIG    1       -0.890   3.925  -0.013  0.00  0.00    +0.021 A 
ATOM     32  C   LIG    1       -1.102   2.566  -0.030  0.00  0.00    +0.028 A 
ATOM     33  C   LIG    1       -0.031   1.727  -0.036  0.00  0.00    +0.079 A 
ATOM     34 CL   LIG    1       -0.008  -0.009  -0.052  0.00  0.00    -0.076 Cl
ATOM     35  S   LIG    1        1.344   2.866  -0.031  0.00  0.00    -0.074 S 
ENDBRANCH  27  30
ENDBRANCH  24  25
ENDBRANCH   9  24
TORSDOF 6
