REMARK  Name = ZINC13704320
REMARK                            x       y       z     vdW  Elec       q    Type
REMARK                         _______ _______ _______ _____ _____    ______ ____
ROOT
ATOM      1  C   LIG    1        0.386   9.535   0.044  0.00  0.00    +0.095 A 
ATOM      2  C   LIG    1       -0.039   8.193   0.037  0.00  0.00    +0.074 A 
ATOM      3  C   LIG    1        1.069   7.406   0.028  0.00  0.00    +0.129 A 
ATOM      4  N   LIG    1        2.157   8.225   0.021  0.00  0.00    -0.218 N 
ATOM      5  N   LIG    1        1.703   9.549   0.031  0.00  0.00    -0.165 NA
ENDROOT
BRANCH   1   9
ATOM      6  C   LIG    1       -2.145  12.952   0.084  0.00  0.00    +0.000 A 
ATOM      7  C   LIG    1       -0.771  13.112   0.071  0.00  0.00    +0.001 A 
ATOM      8  C   LIG    1        0.055  12.006   0.058  0.00  0.00    +0.010 A 
ATOM      9  C   LIG    1       -0.497  10.727   0.058  0.00  0.00    +0.002 A 
ATOM     10  C   LIG    1       -1.882  10.572   0.065  0.00  0.00    +0.010 A 
ATOM     11  C   LIG    1       -2.698  11.684   0.084  0.00  0.00    +0.001 A 
ENDBRANCH   1   9
BRANCH   4  12
ATOM     12  C   LIG    1        3.497   7.814   0.007  0.00  0.00    +0.067 A 
ATOM     13  C   LIG    1        3.881   6.669   0.693  0.00  0.00    +0.028 A 
ATOM     14  C   LIG    1        5.201   6.263   0.673  0.00  0.00    +0.002 A 
ATOM     15  C   LIG    1        6.142   7.002  -0.021  0.00  0.00    +0.000 A 
ATOM     16  C   LIG    1        5.763   8.146  -0.700  0.00  0.00    +0.002 A 
ATOM     17  C   LIG    1        4.444   8.553  -0.688  0.00  0.00    +0.028 A 
ENDBRANCH   4  12
BRANCH   3  18
ATOM     18  N   LIG    1        1.088   6.012   0.022  0.00  0.00    -0.266 N 
ATOM     19  H   LIG    1        1.934   5.539   0.011  0.00  0.00    +0.157 HD
ATOM     20  C   LIG    1       -0.070   5.323   0.030  0.00  0.00    +0.249 C 
ATOM     21  O   LIG    1       -1.131   5.916   0.043  0.00  0.00    -0.270 OA
BRANCH  20  22
ATOM     22  C   LIG    1       -0.050   3.845   0.023  0.00  0.00    +0.038 A 
ATOM     23  C   LIG    1        1.167   3.160   0.007  0.00  0.00    +0.013 A 
ATOM     24  C   LIG    1        1.178   1.781   0.000  0.00  0.00    +0.001 A 
ATOM     25  C   LIG    1       -0.013   1.076   0.008  0.00  0.00    +0.012 A 
ATOM     26  C   LIG    1       -1.222   1.748   0.017  0.00  0.00    +0.056 A 
ATOM     27  C   LIG    1       -1.247   3.127   0.031  0.00  0.00    +0.025 A 
BRANCH  26  28
ATOM     28  C   LIG    1       -2.513   0.972   0.019  0.00  0.00    +0.417 C 
ATOM     29  F   LIG    1       -3.258   1.304  -1.118  0.00  0.00    -0.166 F 
ATOM     30  F   LIG    1       -3.248   1.290   1.166  0.00  0.00    -0.166 F 
ATOM     31  F   LIG    1       -2.234  -0.399   0.010  0.00  0.00    -0.166 F 
ENDBRANCH  26  28
ENDBRANCH  20  22
ENDBRANCH   3  18
TORSDOF 5
