REMARK  Name = ZINC13588117
REMARK                            x       y       z     vdW  Elec       q    Type
REMARK                         _______ _______ _______ _____ _____    ______ ____
ROOT
ATOM      1  C   LIG    1        2.876   4.205  -1.448  0.00  0.00    +0.164 C 
ENDROOT
BRANCH   1   8
ATOM      2  C   LIG    1        8.086   1.393   1.630  0.00  0.00    +0.162 A 
ATOM      3  C   LIG    1        8.077   2.740   1.321  0.00  0.00    +0.053 A 
ATOM      4  C   LIG    1        7.209   3.240   0.357  0.00  0.00    -0.038 A 
ATOM      5  C   LIG    1        6.358   2.382  -0.303  0.00  0.00    -0.023 A 
ATOM      6  C   LIG    1        5.404   2.856  -1.371  0.00  0.00    +0.143 C 
ATOM      7  N   LIG    1        5.345   4.322  -1.367  0.00  0.00    -0.295 N 
ATOM      8  C   LIG    1        4.170   4.976  -1.454  0.00  0.00    +0.237 C 
ATOM      9  O   LIG    1        4.155   6.186  -1.538  0.00  0.00    -0.274 OA
ATOM     10  C   LIG    1        6.622   5.049  -1.269  0.00  0.00    +0.113 C 
ATOM     11  C   LIG    1        6.360   1.028   0.006  0.00  0.00    +0.054 A 
ATOM     12  C   LIG    1        7.238   4.723   0.096  0.00  0.00    +0.054 C 
ATOM     13  C   LIG    1        7.218   0.529   0.969  0.00  0.00    +0.162 A 
BRANCH   2  15
ATOM     14  C   LIG    1        9.800   1.860   3.210  0.00  0.00    +0.277 C 
ATOM     15  O   LIG    1        8.939   0.914   2.574  0.00  0.00    -0.491 OA
ENDBRANCH   2  15
BRANCH  13  16
ATOM     16  O   LIG    1        7.214  -0.798   1.267  0.00  0.00    -0.491 OA
ATOM     17  C   LIG    1        6.296  -1.622   0.546  0.00  0.00    +0.277 C 
ENDBRANCH  13  16
ENDBRANCH   1   8
BRANCH   1  18
ATOM     18  N   LIG    1        1.837   4.989  -2.120  0.00  0.00    -0.300 N 
ATOM     19  H   LIG    1        1.908   5.955  -2.159  0.00  0.00    +0.150 HD
ATOM     20  C   LIG    1        0.782   4.367  -2.683  0.00  0.00    +0.245 C 
ATOM     21  O   LIG    1        0.693   3.156  -2.634  0.00  0.00    -0.270 OA
BRANCH  20  22
ATOM     22  C   LIG    1       -0.267   5.159  -3.362  0.00  0.00    +0.037 A 
ATOM     23  C   LIG    1       -0.170   6.550  -3.415  0.00  0.00    +0.013 A 
ATOM     24  C   LIG    1       -1.149   7.282  -4.054  0.00  0.00    +0.001 A 
ATOM     25  C   LIG    1       -2.231   6.641  -4.632  0.00  0.00    +0.000 A 
ATOM     26  C   LIG    1       -2.336   5.263  -4.577  0.00  0.00    +0.001 A 
ATOM     27  C   LIG    1       -1.360   4.518  -3.946  0.00  0.00    +0.013 A 
ENDBRANCH  20  22
ENDBRANCH   1  18
BRANCH   1  28
ATOM     28  C   LIG    1        2.453   3.930  -0.003  0.00  0.00    +0.067 C 
BRANCH  28  29
ATOM     29  C   LIG    1        1.236   3.041   0.004  0.00  0.00    -0.045 A 
ATOM     30  C   LIG    1        1.384   1.667   0.030  0.00  0.00    +0.004 A 
ATOM     31  C   LIG    1        0.268   0.851   0.036  0.00  0.00    +0.000 A 
ATOM     32  C   LIG    1       -0.996   1.409   0.011  0.00  0.00    +0.000 A 
ATOM     33  C   LIG    1       -1.144   2.784  -0.010  0.00  0.00    +0.000 A 
ATOM     34  C   LIG    1       -0.028   3.599  -0.016  0.00  0.00    +0.004 A 
ENDBRANCH  28  29
ENDBRANCH   1  28
TORSDOF 7
