REMARK  Name = ZINC13671923
REMARK                            x       y       z     vdW  Elec       q    Type
REMARK                         _______ _______ _______ _____ _____    ______ ____
ROOT
ATOM      1  C   LIG    1       -4.371  -2.826  -1.659  0.00  0.00    +0.122 A 
ATOM      2  C   LIG    1       -5.099  -2.306  -2.739  0.00  0.00    +0.047 A 
ATOM      3  C   LIG    1       -5.851  -3.138  -3.514  0.00  0.00    -0.038 A 
ATOM      4  C   LIG    1       -6.642  -2.603  -4.679  0.00  0.00    +0.044 C 
ATOM      5  C   LIG    1       -5.869  -4.512  -3.197  0.00  0.00    +0.005 A 
ATOM      6  C   LIG    1       -6.621  -5.422  -3.954  0.00  0.00    +0.033 A 
ATOM      7  C   LIG    1       -6.614  -6.757  -3.614  0.00  0.00    +0.034 A 
ATOM      8  C   LIG    1       -5.864  -7.208  -2.522  0.00  0.00    +0.025 A 
ATOM      9  C   LIG    1       -5.128  -6.344  -1.774  0.00  0.00    +0.030 A 
ATOM     10  C   LIG    1       -5.112  -4.975  -2.093  0.00  0.00    +0.073 A 
ATOM     11  N   LIG    1       -4.388  -4.111  -1.371  0.00  0.00    -0.232 NA
ENDROOT
BRANCH   1  16
ATOM     12  N   LIG    1       -1.419  -0.486   0.026  0.00  0.00    +0.382 N 
ATOM     13  H   LIG    1       -1.921  -0.093   0.809  0.00  0.00    -0.082 HD
ATOM     14  C   LIG    1       -2.085  -0.097  -1.223  0.00  0.00    -0.060 C 
ATOM     15  C   LIG    1       -3.555  -0.527  -1.173  0.00  0.00    +0.088 C 
ATOM     16  N   LIG    1       -3.610  -1.967  -0.879  0.00  0.00    -0.319 N 
ATOM     17  C   LIG    1       -2.835  -2.471   0.265  0.00  0.00    +0.088 C 
ATOM     18  C   LIG    1       -1.399  -1.950   0.147  0.00  0.00    -0.060 C 
BRANCH  12  20
ATOM     19  C   LIG    1       -0.062   1.552   0.024  0.00  0.00    -0.017 C 
ATOM     20  C   LIG    1       -0.041   0.022   0.024  0.00  0.00    -0.082 C 
ENDBRANCH  12  20
ENDBRANCH   1  16
BRANCH   7  21
ATOM     21  N   LIG    1       -7.362  -7.668  -4.366  0.00  0.00    -0.282 N 
ATOM     22  H   LIG    1       -7.784  -8.426  -3.931  0.00  0.00    +0.155 HD
ATOM     23  C   LIG    1       -7.498  -7.494  -5.696  0.00  0.00    +0.241 C 
ATOM     24  O   LIG    1       -6.891  -6.601  -6.258  0.00  0.00    -0.270 OA
BRANCH  23  25
ATOM     25  C   LIG    1       -8.375  -8.378  -6.463  0.00  0.00    +0.068 C 
ATOM     26  C   LIG    1       -8.511  -8.203  -7.795  0.00  0.00    +0.013 C 
BRANCH  26  27
ATOM     27  C   LIG    1       -9.393  -9.091  -8.566  0.00  0.00    -0.025 A 
ATOM     28  C   LIG    1      -10.096 -10.115  -7.921  0.00  0.00    +0.011 A 
ATOM     29  C   LIG    1      -10.920 -10.944  -8.649  0.00  0.00    +0.046 A 
ATOM     30  C   LIG    1      -11.054 -10.766 -10.021  0.00  0.00    +0.120 A 
ATOM     31  C   LIG    1      -10.358  -9.751 -10.666  0.00  0.00    +0.046 A 
ATOM     32  C   LIG    1       -9.535  -8.912  -9.947  0.00  0.00    +0.011 A 
BRANCH  30  33
ATOM     33  O   LIG    1      -11.868 -11.586 -10.733  0.00  0.00    -0.495 OA
ATOM     34  C   LIG    1      -11.960 -11.348 -12.139  0.00  0.00    +0.277 C 
ENDBRANCH  30  33
ENDBRANCH  26  27
ENDBRANCH  23  25
ENDBRANCH   7  21
TORSDOF 6
