REMARK  Name = ZINC13588925
REMARK                            x       y       z     vdW  Elec       q    Type
REMARK                         _______ _______ _______ _____ _____    ______ ____
ROOT
ATOM      1  C   LIG    1        3.854  -3.296  -0.052  0.00  0.00    +0.069 A 
ATOM      2  C   LIG    1        4.357  -4.014  -1.240  0.00  0.00    +0.014 A 
ATOM      3  C   LIG    1        4.220  -3.818  -2.612  0.00  0.00    +0.025 A 
ATOM      4  C   LIG    1        4.830  -4.689  -3.490  0.00  0.00    +0.014 A 
ATOM      5  I   LIG    1        4.627  -4.402  -5.556  0.00  0.00    -0.044 I 
ATOM      6  C   LIG    1        5.577  -5.755  -3.011  0.00  0.00    +0.016 A 
ATOM      7  C   LIG    1        5.720  -5.958  -1.655  0.00  0.00    +0.027 A 
ATOM      8  C   LIG    1        5.113  -5.091  -0.754  0.00  0.00    +0.050 A 
ATOM      9  N   LIG    1        5.082  -5.045   0.630  0.00  0.00    -0.325 N 
ATOM     10  H   LIG    1        5.527  -5.679   1.214  0.00  0.00    +0.169 HD
ATOM     11  C   LIG    1        4.348  -3.988   1.056  0.00  0.00    +0.201 A 
ENDROOT
BRANCH   1  18
ATOM     12  C   LIG    1       -0.017   1.376   0.010  0.00  0.00    +0.001 A 
ATOM     13  C   LIG    1        1.172   2.087   0.002  0.00  0.00    +0.002 A 
ATOM     14  C   LIG    1        2.384   1.428  -0.013  0.00  0.00    +0.026 A 
ATOM     15  C   LIG    1        2.423   0.037  -0.021  0.00  0.00    +0.049 A 
ATOM     16  C   LIG    1        1.219  -0.678  -0.013  0.00  0.00    +0.029 A 
ATOM     17  C   LIG    1        1.578  -2.115  -0.024  0.00  0.00    +0.140 A 
ATOM     18  C   LIG    1        3.047  -2.143  -0.039  0.00  0.00    +0.082 A 
ATOM     19  N   LIG    1        3.487  -0.854  -0.036  0.00  0.00    -0.352 N 
ATOM     20  H   LIG    1        4.421  -0.593  -0.044  0.00  0.00    +0.166 HD
ATOM     21  C   LIG    1        0.002  -0.004   0.002  0.00  0.00    +0.012 A 
BRANCH  17  22
ATOM     22  N   LIG    1        0.759  -3.143  -0.021  0.00  0.00    -0.028 NA
ATOM     23  O   LIG    1       -0.445  -2.963  -0.008  0.00  0.00    -0.143 OA
ENDBRANCH  17  22
ENDBRANCH   1  18
BRANCH  11  24
ATOM     24  O   LIG    1        4.126  -3.659   2.346  0.00  0.00    -0.493 OA
ATOM     25  H   LIG    1        3.338  -4.071   2.727  0.00  0.00    +0.294 HD
ENDBRANCH  11  24
TORSDOF 3
