REMARK  Name = ZINC13686718
REMARK                            x       y       z     vdW  Elec       q    Type
REMARK                         _______ _______ _______ _____ _____    ______ ____
ROOT
ATOM      1  C   LIG    1        0.002  -0.004   0.002  0.00  0.00    +0.047 A 
ATOM      2  C   LIG    1       -1.168  -0.725   0.009  0.00  0.00    +0.039 A 
ATOM      3  C   LIG    1       -1.099  -2.105   0.001  0.00  0.00    +0.022 A 
ATOM      4  S   LIG    1        0.660  -2.401  -0.017  0.00  0.00    -0.082 S 
ATOM      5  C   LIG    1        1.210  -0.703  -0.019  0.00  0.00    +0.095 A 
ENDROOT
BRANCH   3   6
ATOM      6  C   LIG    1       -2.204  -3.087   0.006  0.00  0.00    -0.011 A 
ATOM      7  C   LIG    1       -3.530  -2.651   0.026  0.00  0.00    +0.012 A 
ATOM      8  C   LIG    1       -4.556  -3.571   0.025  0.00  0.00    +0.039 A 
ATOM      9  C   LIG    1       -4.274  -4.928   0.016  0.00  0.00    +0.123 A 
ATOM     10  F   LIG    1       -5.283  -5.826   0.021  0.00  0.00    -0.205 F 
ATOM     11  C   LIG    1       -2.959  -5.367   0.001  0.00  0.00    +0.039 A 
ATOM     12  C   LIG    1       -1.925  -4.455  -0.004  0.00  0.00    +0.012 A 
ENDBRANCH   3   6
BRANCH   5  13
ATOM     13  C   LIG    1        2.530  -0.196  -0.034  0.00  0.00    +0.250 C 
ATOM     14  N   LIG    1        3.577  -1.044  -0.053  0.00  0.00    -0.325 N 
ATOM     15  H   LIG    1        4.482  -0.696  -0.064  0.00  0.00    +0.145 HD
ATOM     16  H   LIG    1        3.425  -2.002  -0.056  0.00  0.00    +0.145 HD
ATOM     17  O   LIG    1        2.720   1.007  -0.031  0.00  0.00    -0.270 OA
ENDBRANCH   5  13
BRANCH   1  19
ATOM     18  C   LIG    1       -1.295   2.104   0.020  0.00  0.00    +0.125 C 
ATOM     19  N   LIG    1       -0.017   1.389   0.010  0.00  0.00    -0.346 N 
ATOM     20  H   LIG    1        0.817   1.885   0.004  0.00  0.00    +0.146 HD
ENDBRANCH   1  19
TORSDOF 3
