REMARK  Name = ZINC13588587
REMARK                            x       y       z     vdW  Elec       q    Type
REMARK                         _______ _______ _______ _____ _____    ______ ____
ROOT
ATOM      1  N   LIG    1       -1.191   1.869   0.018  0.00  0.00    -0.271 N 
ATOM      2  H   LIG    1       -1.204   2.839   0.023  0.00  0.00    +0.153 HD
ATOM      3  C   LIG    1       -0.014   1.211   0.009  0.00  0.00    +0.401 C 
ATOM      4  O   LIG    1        0.002  -0.004   0.002  0.00  0.00    -0.226 OA
ENDROOT
BRANCH   1   5
ATOM      5  CA  LIG    1       -2.449   1.119   0.020  0.00  0.00    +0.143 C 
BRANCH   5   6
ATOM      6  C   LIG    1       -2.824   0.763  -1.396  0.00  0.00    +0.245 C 
ATOM      7  O   LIG    1       -2.113   1.101  -2.312  0.00  0.00    -0.299 OA
ENDBRANCH   5   6
BRANCH   5   8
ATOM      8  C   LIG    1       -3.554   1.978   0.639  0.00  0.00    +0.056 C 
BRANCH   8  11
ATOM      9  C   LIG    1       -3.431   4.618   1.615  0.00  0.00    +0.035 C 
ATOM     10  C   LIG    1       -3.181   3.459   2.545  0.00  0.00    -0.034 C 
ATOM     11  C   LIG    1       -3.238   2.231   2.091  0.00  0.00    -0.029 C 
ENDBRANCH   8  11
ENDBRANCH   5   8
ENDBRANCH   1   5
BRANCH   3  12
ATOM     12  O   LIG    1        1.142   1.900   0.001  0.00  0.00    -0.445 OA
BRANCH  12  13
ATOM     13  C   LIG    1        2.371   1.126  -0.015  0.00  0.00    +0.107 C 
ATOM     14  C   LIG    1        2.429   0.237   1.229  0.00  0.00    +0.055 C 
ATOM     15  C   LIG    1        3.571   2.074  -0.021  0.00  0.00    +0.055 C 
ATOM     16  C   LIG    1        2.405   0.250  -1.269  0.00  0.00    +0.055 C 
ENDBRANCH  12  13
ENDBRANCH   3  12
TORSDOF 6
