REMARK  Name = ZINC13643077
REMARK                            x       y       z     vdW  Elec       q    Type
REMARK                         _______ _______ _______ _____ _____    ______ ____
ROOT
ATOM      1  C   LIG    1        2.729   1.466  -0.670  0.00  0.00    -0.014 C 
ATOM      2  C   LIG    1        1.888   2.088  -1.788  0.00  0.00    +0.024 C 
ATOM      3  C   LIG    1        1.329   2.005  -0.366  0.00  0.00    +0.058 C 
ENDROOT
BRANCH   3   4
ATOM      4  C   LIG    1        0.238   0.998  -0.104  0.00  0.00    +0.310 C 
ATOM      5  O   LIG    1        0.486  -0.184  -0.140  0.00  0.00    -0.250 OA
BRANCH   4   6
ATOM      6  O   LIG    1       -1.009   1.415   0.163  0.00  0.00    -0.480 OA
ATOM      7  H   LIG    1       -1.201   2.332   0.191  0.00  0.00    +0.295 HD
ENDBRANCH   4   6
ENDBRANCH   3   4
BRANCH   1   8
ATOM      8  C   LIG    1        3.923   2.272  -0.154  0.00  0.00    +0.008 C 
BRANCH   8  10
ATOM      9  C   LIG    1        5.255   2.855   1.877  0.00  0.00    +0.004 C 
ATOM     10  C   LIG    1        3.980   2.178   1.372  0.00  0.00    -0.003 C 
ENDBRANCH   8  10
ENDBRANCH   1   8
BRANCH   1  11
ATOM     11  C   LIG    1        2.914  -0.052  -0.686  0.00  0.00    +0.008 C 
BRANCH  11  12
ATOM     12  C   LIG    1        4.332  -0.388  -1.151  0.00  0.00    -0.003 C 
ATOM     13  C   LIG    1        4.474  -1.905  -1.300  0.00  0.00    +0.004 C 
ENDBRANCH  11  12
ENDBRANCH   1  11
BRANCH   3  14
ATOM     14  C   LIG    1        1.231   3.307   0.432  0.00  0.00    -0.068 C 
BRANCH  14  15
ATOM     15  N   LIG    1        0.034   4.048  -0.005  0.00  0.00    +0.379 N 
ATOM     16  H   LIG    1       -0.802   3.483   0.190  0.00  0.00    -0.090 HD
ATOM     17  H   LIG    1        0.084   4.234  -1.005  0.00  0.00    -0.090 HD
ATOM     18  H   LIG    1       -0.035   4.929   0.501  0.00  0.00    -0.090 HD
ENDBRANCH  14  15
ENDBRANCH   3  14
TORSDOF 8
