REMARK  Name = ZINC13744891
REMARK                            x       y       z     vdW  Elec       q    Type
REMARK                         _______ _______ _______ _____ _____    ______ ____
ROOT
ATOM      1  C   LIG    1        0.071  -4.222   1.973  0.00  0.00    +0.136 C 
ATOM      2  S   LIG    1        0.071  -4.832   0.374  0.00  0.00    -0.019 S 
ENDROOT
BRANCH   1   3
ATOM      3  N   LIG    1        0.053  -2.891   2.187  0.00  0.00    -0.276 N 
ATOM      4  H   LIG    1        0.053  -2.546   3.093  0.00  0.00    +0.156 HD
BRANCH   3   9
ATOM      5  C   LIG    1       -0.018   1.503   0.010  0.00  0.00    +0.066 C 
ATOM      6  C   LIG    1        0.002  -0.004   0.002  0.00  0.00    +0.047 A 
ATOM      7  C   LIG    1        0.006  -0.706  -1.158  0.00  0.00    +0.071 A 
ATOM      8  S   LIG    1        0.032  -2.379  -0.535  0.00  0.00    -0.060 S 
ATOM      9  C   LIG    1        0.036  -2.015   1.108  0.00  0.00    +0.164 A 
ATOM     10  N   LIG    1        0.023  -0.700   1.124  0.00  0.00    -0.230 NA
ENDBRANCH   3   9
ENDBRANCH   1   3
BRANCH   1  11
ATOM     11  N   LIG    1        0.087  -5.072   3.019  0.00  0.00    -0.326 N 
ATOM     12  H   LIG    1        0.087  -4.726   3.925  0.00  0.00    +0.148 HD
BRANCH  11  13
ATOM     13  C   LIG    1        0.106  -6.518   2.787  0.00  0.00    +0.108 C 
BRANCH  13  14
ATOM     14  C   LIG    1        0.123  -7.250   4.130  0.00  0.00    +0.054 C 
BRANCH  14  15
ATOM     15  C   LIG    1        0.143  -8.738   3.892  0.00  0.00    -0.046 A 
ATOM     16  C   LIG    1       -1.045  -9.436   3.783  0.00  0.00    +0.004 A 
ATOM     17  C   LIG    1       -1.027 -10.801   3.564  0.00  0.00    +0.000 A 
ATOM     18  C   LIG    1        0.179 -11.468   3.454  0.00  0.00    +0.000 A 
ATOM     19  C   LIG    1        1.367 -10.769   3.562  0.00  0.00    +0.000 A 
ATOM     20  C   LIG    1        1.349  -9.404   3.777  0.00  0.00    +0.004 A 
ENDBRANCH  14  15
ENDBRANCH  13  14
ENDBRANCH  11  13
ENDBRANCH   1  11
TORSDOF 6
