REMARK  Name = ZINC13615739
REMARK                            x       y       z     vdW  Elec       q    Type
REMARK                         _______ _______ _______ _____ _____    ______ ____
ROOT
ATOM      1  C   LIG    1        0.831  -1.834  -1.431  0.00  0.00    +0.101 A 
ATOM      2  C   LIG    1        1.389  -2.297  -2.612  0.00  0.00    +0.019 A 
ATOM      3  C   LIG    1        1.521  -3.745  -2.808  0.00  0.00    +0.019 A 
ATOM      4  C   LIG    1        2.084  -4.252  -3.996  0.00  0.00    +0.032 A 
ATOM      5  C   LIG    1        2.542  -3.325  -5.043  0.00  0.00    +0.194 A 
ATOM      6  C   LIG    1        2.412  -1.872  -4.845  0.00  0.00    +0.030 A 
ATOM      7  C   LIG    1        2.843  -0.985  -5.833  0.00  0.00    +0.012 A 
ATOM      8  C   LIG    1        2.717   0.374  -5.639  0.00  0.00    +0.001 A 
ATOM      9  C   LIG    1        2.162   0.870  -4.469  0.00  0.00    +0.001 A 
ATOM     10  C   LIG    1        1.728   0.010  -3.481  0.00  0.00    +0.009 A 
ATOM     11  O   LIG    1        3.029  -3.760  -6.071  0.00  0.00    -0.287 OA
ATOM     12  C   LIG    1        2.200  -5.631  -4.164  0.00  0.00    +0.012 A 
ATOM     13  C   LIG    1        1.764  -6.487  -3.169  0.00  0.00    +0.003 A 
ATOM     14  C   LIG    1        1.211  -5.997  -2.003  0.00  0.00    +0.026 A 
ATOM     15  C   LIG    1        1.083  -4.624  -1.806  0.00  0.00    +0.053 A 
ATOM     16  N   LIG    1        0.529  -4.132  -0.641  0.00  0.00    -0.310 N 
ATOM     17  C   LIG    1        0.080  -5.073   0.387  0.00  0.00    +0.152 C 
ATOM     18  C   LIG    1        1.847  -1.368  -3.656  0.00  0.00    -0.004 A 
ATOM     19  C   LIG    1        0.398  -2.812  -0.423  0.00  0.00    +0.273 A 
ATOM     20  O   LIG    1       -0.091  -2.422   0.622  0.00  0.00    -0.266 OA
ENDROOT
BRANCH   1  21
ATOM     21  N   LIG    1        0.688  -0.476  -1.203  0.00  0.00    -0.339 N 
ATOM     22  H   LIG    1        1.473   0.084  -1.105  0.00  0.00    +0.146 HD
BRANCH  21  24
ATOM     23  C   LIG    1       -0.527   1.618  -0.857  0.00  0.00    +0.024 C 
ATOM     24  C   LIG    1       -0.650   0.114  -1.111  0.00  0.00    +0.098 C 
ENDBRANCH  21  24
ENDBRANCH   1  21
TORSDOF 2
