REMARK  Name = ZINC13675198
REMARK                            x       y       z     vdW  Elec       q    Type
REMARK                         _______ _______ _______ _____ _____    ______ ____
ROOT
ATOM      1  N   LIG    1        2.185   0.697  -0.015  0.00  0.00    -0.224 N 
ATOM      2  C   LIG    1        1.394   1.786  -0.002  0.00  0.00    +0.247 C 
ATOM      3  C   LIG    1       -0.016   1.339   0.009  0.00  0.00    +0.073 C 
ATOM      4  C   LIG    1        0.002  -0.004   0.002  0.00  0.00    +0.073 C 
ATOM      5  O   LIG    1        1.774   2.939   0.000  0.00  0.00    -0.270 OA
ATOM      6  C   LIG    1        1.424  -0.412  -0.014  0.00  0.00    +0.247 C 
ATOM      7  O   LIG    1        1.835  -1.555  -0.024  0.00  0.00    -0.270 OA
ENDROOT
BRANCH   1   8
ATOM      8  C   LIG    1        3.650   0.717  -0.030  0.00  0.00    +0.237 C 
BRANCH   8   9
ATOM      9  C   LIG    1        4.137   0.732  -1.456  0.00  0.00    +0.325 C 
ATOM     10  O   LIG    1        3.343   0.727  -2.366  0.00  0.00    -0.249 OA
BRANCH   9  11
ATOM     11  O   LIG    1        5.454   0.752  -1.714  0.00  0.00    -0.464 OA
BRANCH  11  13
ATOM     12  C   LIG    1        7.379   0.787  -3.206  0.00  0.00    +0.048 C 
ATOM     13  C   LIG    1        5.852   0.765  -3.111  0.00  0.00    +0.229 C 
ENDBRANCH  11  13
ENDBRANCH   9  11
ENDBRANCH   8   9
ENDBRANCH   1   8
TORSDOF 4
