REMARK  Name = ZINC13685546
REMARK                            x       y       z     vdW  Elec       q    Type
REMARK                         _______ _______ _______ _____ _____    ______ ____
ROOT
ATOM      1  C   LIG    1       -1.181  -2.098  -0.102  0.00  0.00    +0.137 A 
ATOM      2  C   LIG    1       -2.381  -2.829  -0.207  0.00  0.00    +0.078 A 
ATOM      3  C   LIG    1       -3.751  -2.489  -0.230  0.00  0.00    +0.147 A 
ATOM      4  N   LIG    1       -4.446  -3.585  -0.345  0.00  0.00    -0.180 NA
ATOM      5  N   LIG    1       -3.583  -4.687  -0.403  0.00  0.00    -0.260 N 
ATOM      6  H   LIG    1       -3.852  -5.615  -0.489  0.00  0.00    +0.191 HD
ATOM      7  C   LIG    1       -2.302  -4.230  -0.318  0.00  0.00    +0.161 A 
ATOM      8  N   LIG    1       -1.101  -4.807  -0.321  0.00  0.00    -0.216 NA
ATOM      9  C   LIG    1       -0.008  -4.083  -0.221  0.00  0.00    +0.225 A 
ATOM     10  N   LIG    1       -0.033  -2.766  -0.119  0.00  0.00    -0.220 NA
ENDROOT
BRANCH   1  11
ATOM     11  N   LIG    1       -1.198  -0.721   0.010  0.00  0.00    -0.299 N 
ATOM     12  H   LIG    1       -2.036  -0.238  -0.067  0.00  0.00    +0.154 HD
BRANCH  11  19
ATOM     13  C   LIG    1        0.182   1.230  -0.333  0.00  0.00    +0.024 A 
ATOM     14  C   LIG    1        1.359   1.917  -0.109  0.00  0.00    +0.017 A 
ATOM     15  C   LIG    1        2.348   1.358   0.681  0.00  0.00    +0.018 A 
ATOM     16 BR   LIG    1        3.958   2.302   0.985  0.00  0.00    -0.050 Br
ATOM     17  C   LIG    1        2.162   0.110   1.248  0.00  0.00    +0.017 A 
ATOM     18  C   LIG    1        0.987  -0.582   1.027  0.00  0.00    +0.024 A 
ATOM     19  C   LIG    1       -0.008  -0.023   0.235  0.00  0.00    +0.032 A 
ENDBRANCH  11  19
ENDBRANCH   1  11
TORSDOF 2
