REMARK  Name = ZINC13583880
REMARK                            x       y       z     vdW  Elec       q    Type
REMARK                         _______ _______ _______ _____ _____    ______ ____
ROOT
ATOM      1  C   LIG    1        1.317   3.650  -0.695  0.00  0.00    +0.014 C 
ATOM      2  C   LIG    1        1.439   2.168  -0.335  0.00  0.00    -0.021 C 
ATOM      3  C   LIG    1        1.951   2.039   1.101  0.00  0.00    +0.014 C 
ATOM      4  C   LIG    1        2.417   1.508  -1.272  0.00  0.00    -0.037 A 
ATOM      5  C   LIG    1        3.583   2.197  -1.577  0.00  0.00    +0.049 A 
ATOM      6  C   LIG    1        4.527   1.640  -2.422  0.00  0.00    +0.117 A 
ATOM      7  C   LIG    1        4.304   0.383  -2.967  0.00  0.00    +0.045 A 
ATOM      8  C   LIG    1        3.144  -0.297  -2.664  0.00  0.00    +0.007 A 
ATOM      9  C   LIG    1        2.196   0.263  -1.817  0.00  0.00    -0.044 A 
ATOM     10  C   LIG    1        0.950  -0.535  -1.535  0.00  0.00    +0.034 C 
ATOM     11  C   LIG    1        0.243  -0.006  -0.289  0.00  0.00    -0.010 C 
ATOM     12  C   LIG    1        0.065   1.509  -0.441  0.00  0.00    -0.059 C 
ENDROOT
BRANCH  12  13
ATOM     13  N   LIG    1       -0.793   2.019   0.649  0.00  0.00    +0.378 N 
ATOM     14  H   LIG    1       -0.215   2.175   1.484  0.00  0.00    -0.082 HD
ATOM     15  C   LIG    1       -1.843   1.028   0.970  0.00  0.00    -0.096 C 
ATOM     16  C   LIG    1       -1.413   3.299   0.248  0.00  0.00    -0.096 C 
ENDBRANCH  12  13
BRANCH   6  17
ATOM     17  O   LIG    1        5.666   2.320  -2.718  0.00  0.00    -0.507 OA
ATOM     18  H   LIG    1        5.594   2.889  -3.496  0.00  0.00    +0.292 HD
ENDBRANCH   6  17
TORSDOF 2
