REMARK  Name = ZINC13641460
REMARK                            x       y       z     vdW  Elec       q    Type
REMARK                         _______ _______ _______ _____ _____    ______ ____
ROOT
ATOM      1  C   LIG    1        0.144  -0.539   1.267  0.00  0.00    -0.015 C 
ENDROOT
BRANCH   1   3
ATOM      2  C   LIG    1       -0.245   1.220  -0.465  0.00  0.00    +0.008 C 
ATOM      3  C   LIG    1       -0.262  -0.284  -0.186  0.00  0.00    -0.010 C 
BRANCH   3   4
ATOM      4  C   LIG    1        0.723  -0.988  -1.122  0.00  0.00    -0.014 C 
ATOM      5  C   LIG    1        0.318  -0.731  -2.575  0.00  0.00    +0.007 C 
ATOM      6  C   LIG    1        0.704  -2.492  -0.845  0.00  0.00    +0.007 C 
ENDBRANCH   3   4
ENDBRANCH   1   3
BRANCH   1   7
ATOM      7  C   LIG    1       -0.915   0.048   2.203  0.00  0.00    -0.082 C 
BRANCH   7   8
ATOM      8  N   LIG    1       -2.190  -0.653   2.000  0.00  0.00    +0.378 N 
ATOM      9  H   LIG    1       -2.852  -0.357   2.701  0.00  0.00    -0.090 HD
ATOM     10  H   LIG    1       -2.043  -1.648   2.075  0.00  0.00    -0.090 HD
ATOM     11  H   LIG    1       -2.551  -0.434   1.083  0.00  0.00    -0.090 HD
ENDBRANCH   7   8
ENDBRANCH   1   7
BRANCH   1  12
ATOM     12  C   LIG    1        1.494   0.127   1.543  0.00  0.00    +0.122 C 
BRANCH  12  13
ATOM     13  C   LIG    1        1.952  -0.226   2.934  0.00  0.00    +0.305 C 
ATOM     14  O   LIG    1        1.263  -0.943   3.640  0.00  0.00    -0.251 OA
BRANCH  13  15
ATOM     15  O   LIG    1        3.012   0.206   3.355  0.00  0.00    -0.481 OA
ATOM     16  H   LIG    1        3.542   0.757   2.813  0.00  0.00    +0.295 HD
ENDBRANCH  13  15
ENDBRANCH  12  13
ENDBRANCH   1  12
TORSDOF 7
