REMARK  Name = ZINC13739198
REMARK                            x       y       z     vdW  Elec       q    Type
REMARK                         _______ _______ _______ _____ _____    ______ ____
ROOT
ATOM      1  C   LIG    1        2.490  -2.490  -4.358  0.00  0.00    +0.143 C 
ATOM      2  N   LIG    1        2.537  -3.792  -4.427  0.00  0.00    -0.155 NA
ENDROOT
BRANCH   2   3
ATOM      3  N   LIG    1        3.110  -4.365  -5.431  0.00  0.00    -0.127 NA
ATOM      4  C   LIG    1        3.157  -5.679  -5.501  0.00  0.00    +0.182 C 
ATOM      5  N   LIG    1        2.650  -6.598  -4.607  0.00  0.00    -0.263 N 
ATOM      6  H   LIG    1        2.193  -6.275  -3.814  0.00  0.00    +0.157 HD
ATOM      7  C   LIG    1        2.762  -7.902  -4.789  0.00  0.00    +0.229 C 
ATOM      8  C   LIG    1        3.489  -8.333  -6.053  0.00  0.00    +0.173 C 
ATOM      9  O   LIG    1        2.314  -8.704  -3.998  0.00  0.00    -0.275 OA
ATOM     10  S   LIG    1        3.888  -6.690  -6.780  0.00  0.00    -0.079 S 
ENDBRANCH   2   3
BRANCH   1  14
ATOM     11  C   LIG    1        0.606  -0.607  -1.055  0.00  0.00    +0.120 A 
ATOM     12  C   LIG    1        1.172   0.165  -2.061  0.00  0.00    +0.046 A 
ATOM     13  C   LIG    1        1.786  -0.441  -3.136  0.00  0.00    +0.013 A 
ATOM     14  C   LIG    1        1.837  -1.837  -3.212  0.00  0.00    -0.005 A 
ATOM     15  C   LIG    1        1.265  -2.610  -2.196  0.00  0.00    +0.013 A 
ATOM     16  C   LIG    1        0.659  -1.993  -1.124  0.00  0.00    +0.046 A 
BRANCH  11  18
ATOM     17  C   LIG    1       -0.017   1.425   0.010  0.00  0.00    +0.277 C 
ATOM     18  O   LIG    1        0.002  -0.004   0.002  0.00  0.00    -0.495 OA
ENDBRANCH  11  18
ENDBRANCH   1  14
TORSDOF 3
