REMARK  Name = ZINC13741323
REMARK                            x       y       z     vdW  Elec       q    Type
REMARK                         _______ _______ _______ _____ _____    ______ ____
ROOT
ATOM      1  C   LIG    1        0.606  -0.607  -1.056  0.00  0.00    +0.122 A 
ATOM      2  C   LIG    1        1.173   0.172  -2.062  0.00  0.00    +0.046 A 
ATOM      3  C   LIG    1        1.784  -0.418  -3.133  0.00  0.00    +0.016 A 
ATOM      4  C   LIG    1        1.842  -1.806  -3.223  0.00  0.00    +0.028 A 
ATOM      5  C   LIG    1        1.272  -2.610  -2.211  0.00  0.00    +0.077 A 
ATOM      6  N   LIG    1        1.322  -3.959  -2.286  0.00  0.00    -0.254 NA
ATOM      7  C   LIG    1        1.879  -4.615  -3.263  0.00  0.00    +0.126 A 
ATOM      8  C   LIG    1        2.491  -3.953  -4.346  0.00  0.00    +0.082 A 
ATOM      9  C   LIG    1        3.150  -4.348  -5.502  0.00  0.00    +0.225 A 
ATOM     10  N   LIG    1        3.517  -3.233  -6.163  0.00  0.00    -0.199 N 
ATOM     11  N   LIG    1        3.107  -2.101  -5.449  0.00  0.00    -0.162 NA
ATOM     12  C   LIG    1        2.490  -2.479  -4.358  0.00  0.00    +0.107 A 
ATOM     13  C   LIG    1        0.656  -1.985  -1.119  0.00  0.00    +0.074 A 
ENDROOT
BRANCH  10  14
ATOM     14  C   LIG    1        4.208  -3.211  -7.382  0.00  0.00    +0.069 A 
ATOM     15  C   LIG    1        5.158  -4.184  -7.661  0.00  0.00    +0.028 A 
ATOM     16  C   LIG    1        5.837  -4.159  -8.864  0.00  0.00    +0.002 A 
ATOM     17  C   LIG    1        5.572  -3.166  -9.789  0.00  0.00    +0.000 A 
ATOM     18  C   LIG    1        4.626  -2.195  -9.513  0.00  0.00    +0.002 A 
ATOM     19  C   LIG    1        3.940  -2.218  -8.315  0.00  0.00    +0.028 A 
ENDBRANCH  10  14
BRANCH   1  21
ATOM     20  C   LIG    1       -0.017   1.425   0.010  0.00  0.00    +0.277 C 
ATOM     21  O   LIG    1        0.002  -0.004   0.002  0.00  0.00    -0.495 OA
ENDBRANCH   1  21
BRANCH   9  22
ATOM     22  O   LIG    1        3.380  -5.624  -5.894  0.00  0.00    -0.492 OA
ATOM     23  H   LIG    1        2.679  -5.998  -6.445  0.00  0.00    +0.294 HD
ENDBRANCH   9  22
TORSDOF 3
