REMARK  Name = ZINC13675230
REMARK                            x       y       z     vdW  Elec       q    Type
REMARK                         _______ _______ _______ _____ _____    ______ ____
ROOT
ATOM      1  C   LIG    1       -0.079   6.003   0.036  0.00  0.00    +0.136 C 
ATOM      2  C   LIG    1       -0.377   6.534   1.453  0.00  0.00    +0.087 C 
ATOM      3  C   LIG    1       -1.673   7.301   1.286  0.00  0.00    +0.069 C 
ATOM      4  N   LIG    1       -2.054   7.242   0.057  0.00  0.00    -0.182 NA
ATOM      5  N   LIG    1       -1.202   6.511  -0.768  0.00  0.00    -0.197 N 
ENDROOT
BRANCH   1  12
ATOM      6  C   LIG    1        1.148   3.822   0.012  0.00  0.00    +0.007 A 
ATOM      7  C   LIG    1        1.167   2.440   0.004  0.00  0.00    +0.020 A 
ATOM      8  C   LIG    1       -0.021   1.732   0.012  0.00  0.00    +0.041 A 
ATOM      9 CL   LIG    1        0.002  -0.004   0.002  0.00  0.00    -0.084 Cl
ATOM     10  C   LIG    1       -1.229   2.407   0.021  0.00  0.00    +0.020 A 
ATOM     11  C   LIG    1       -1.247   3.789   0.035  0.00  0.00    +0.007 A 
ATOM     12  C   LIG    1       -0.059   4.497   0.027  0.00  0.00    -0.025 A 
ENDBRANCH   1  12
BRANCH   3  13
ATOM     13  C   LIG    1       -2.387   8.008   2.365  0.00  0.00    -0.002 A 
ATOM     14  C   LIG    1       -1.879   7.997   3.667  0.00  0.00    +0.012 A 
ATOM     15  C   LIG    1       -2.549   8.664   4.671  0.00  0.00    +0.039 A 
ATOM     16  C   LIG    1       -3.729   9.335   4.393  0.00  0.00    +0.123 A 
ATOM     17  F   LIG    1       -4.384   9.982   5.382  0.00  0.00    -0.205 F 
ATOM     18  C   LIG    1       -4.241   9.345   3.105  0.00  0.00    +0.039 A 
ATOM     19  C   LIG    1       -3.577   8.686   2.092  0.00  0.00    +0.012 A 
ENDBRANCH   3  13
BRANCH   5  20
ATOM     20  C   LIG    1       -1.378   6.302  -2.088  0.00  0.00    +0.151 C 
ATOM     21  S   LIG    1       -0.238   5.377  -2.968  0.00  0.00    -0.017 S 
BRANCH  20  22
ATOM     22  N   LIG    1       -2.452   6.822  -2.715  0.00  0.00    -0.339 N 
ATOM     23  H   LIG    1       -2.579   6.672  -3.665  0.00  0.00    +0.144 HD
ATOM     24  H   LIG    1       -3.098   7.346  -2.217  0.00  0.00    +0.144 HD
ENDBRANCH  20  22
ENDBRANCH   5  20
TORSDOF 4
