REMARK  Name = ZINC13686596
REMARK                            x       y       z     vdW  Elec       q    Type
REMARK                         _______ _______ _______ _____ _____    ______ ____
ROOT
ATOM      1  C   LIG    1       -0.729   1.579   1.267  0.00  0.00    +0.049 C 
ENDROOT
BRANCH   1   7
ATOM      2  C   LIG    1       -0.526  -0.227   2.986  0.00  0.00    +0.004 A 
ATOM      3  C   LIG    1        0.072  -0.783   4.098  0.00  0.00    +0.015 A 
ATOM      4  C   LIG    1        1.129  -0.119   4.723  0.00  0.00    +0.059 A 
ATOM      5  C   LIG    1        1.577   1.101   4.215  0.00  0.00    +0.015 A 
ATOM      6  C   LIG    1        0.974   1.644   3.100  0.00  0.00    +0.004 A 
ATOM      7  C   LIG    1       -0.074   0.981   2.485  0.00  0.00    -0.047 A 
BRANCH   4   8
ATOM      8  C   LIG    1        1.772  -0.706   5.917  0.00  0.00    +0.337 C 
ATOM      9  O   LIG    1        2.692  -0.127   6.459  0.00  0.00    -0.245 OA
BRANCH   8  10
ATOM     10  O   LIG    1        1.337  -1.884   6.405  0.00  0.00    -0.477 OA
ATOM     11  H   LIG    1        0.628  -2.332   5.988  0.00  0.00    +0.295 HD
ENDBRANCH   8  10
ENDBRANCH   4   8
ENDBRANCH   1   7
BRANCH   1  12
ATOM     12  C   LIG    1       -0.013   1.086   0.008  0.00  0.00    +0.102 C 
BRANCH  12  13
ATOM     13  C   LIG    1        1.401   1.607  -0.003  0.00  0.00    +0.308 C 
ATOM     14  O   LIG    1        1.778   2.312  -0.909  0.00  0.00    -0.251 OA
BRANCH  13  15
ATOM     15  O   LIG    1        2.241   1.289   0.994  0.00  0.00    -0.480 OA
ATOM     16  H   LIG    1        1.949   0.742   1.697  0.00  0.00    +0.295 HD
ENDBRANCH  13  15
ENDBRANCH  12  13
BRANCH  12  17
ATOM     17  C   LIG    1       -0.753   1.593  -1.232  0.00  0.00    +0.016 C 
BRANCH  17  18
ATOM     18  C   LIG    1       -0.111   0.998  -2.487  0.00  0.00    +0.011 C 
BRANCH  18  19
ATOM     19  C   LIG    1       -0.851   1.505  -3.727  0.00  0.00    +0.065 C 
BRANCH  19  20
ATOM     20  S   LIG    1       -0.091   0.800  -5.215  0.00  0.00    -0.178 S 
ATOM     21  H   LIG    1       -0.818   1.312  -6.225  0.00  0.00    +0.102 HD
ENDBRANCH  19  20
ENDBRANCH  18  19
ENDBRANCH  17  18
ENDBRANCH  12  17
ENDBRANCH   1  12
TORSDOF 10
