REMARK  Name = ZINC13686584
REMARK                            x       y       z     vdW  Elec       q    Type
REMARK                         _______ _______ _______ _____ _____    ______ ____
ROOT
ATOM      1  C   LIG    1        0.440   2.594  -0.406  0.00  0.00    +0.050 C 
ENDROOT
BRANCH   1   6
ATOM      2  C   LIG    1        0.346  -0.057  -3.094  0.00  0.00    +0.000 A 
ATOM      3  C   LIG    1       -0.788   0.295  -3.804  0.00  0.00    +0.001 A 
ATOM      4  C   LIG    1       -1.533   1.391  -3.420  0.00  0.00    +0.015 A 
ATOM      5  C   LIG    1       -1.139   2.146  -2.313  0.00  0.00    +0.062 A 
ATOM      6  C   LIG    1        0.007   1.785  -1.602  0.00  0.00    -0.033 A 
ATOM      7  C   LIG    1        0.742   0.686  -1.997  0.00  0.00    +0.004 A 
BRANCH   5   8
ATOM      8  C   LIG    1       -1.931   3.321  -1.897  0.00  0.00    +0.337 C 
ATOM      9  O   LIG    1       -1.532   4.035  -0.998  0.00  0.00    -0.245 OA
BRANCH   8  10
ATOM     10  O   LIG    1       -3.096   3.601  -2.513  0.00  0.00    -0.477 OA
ATOM     11  H   LIG    1       -3.403   3.050  -3.206  0.00  0.00    +0.295 HD
ENDBRANCH   8  10
ENDBRANCH   5   8
ENDBRANCH   1   6
BRANCH   1  12
ATOM     12  C   LIG    1        1.187   3.842  -0.878  0.00  0.00    +0.102 C 
BRANCH  12  13
ATOM     13  C   LIG    1        2.455   3.433  -1.582  0.00  0.00    +0.308 C 
ATOM     14  O   LIG    1        3.227   2.675  -1.045  0.00  0.00    -0.251 OA
BRANCH  13  15
ATOM     15  O   LIG    1        2.726   3.911  -2.807  0.00  0.00    -0.480 OA
ATOM     16  H   LIG    1        2.128   4.500  -3.223  0.00  0.00    +0.295 HD
ENDBRANCH  13  15
ENDBRANCH  12  13
BRANCH  12  17
ATOM     17  C   LIG    1        1.533   4.716   0.330  0.00  0.00    +0.016 C 
BRANCH  17  18
ATOM     18  C   LIG    1        2.168   6.022  -0.151  0.00  0.00    +0.011 C 
BRANCH  18  19
ATOM     19  C   LIG    1        2.515   6.896   1.056  0.00  0.00    +0.065 C 
BRANCH  19  20
ATOM     20  S   LIG    1        3.268   8.444   0.486  0.00  0.00    -0.178 S 
ATOM     21  H   LIG    1        3.525   9.118   1.621  0.00  0.00    +0.102 HD
ENDBRANCH  19  20
ENDBRANCH  18  19
ENDBRANCH  17  18
ENDBRANCH  12  17
ENDBRANCH   1  12
TORSDOF 10
