REMARK  Name = ZINC13704010
REMARK                            x       y       z     vdW  Elec       q    Type
REMARK                         _______ _______ _______ _____ _____    ______ ____
ROOT
ATOM      1  C   LIG    1        1.416   2.049   0.006  0.00  0.00    +0.157 C 
ATOM      2  C   LIG    1       -0.002   1.522  -0.230  0.00  0.00    +0.041 C 
ATOM      3  C   LIG    1        0.024  -0.009  -0.229  0.00  0.00    -0.016 C 
ATOM      4  C   LIG    1        0.995  -0.498  -1.306  0.00  0.00    -0.082 C 
ATOM      5  N   LIG    1        2.346   0.025  -1.033  0.00  0.00    +0.381 N 
ATOM      6  H   LIG    1        2.647  -0.284  -0.101  0.00  0.00    -0.086 HD
ATOM      7  H   LIG    1        2.998  -0.334  -1.740  0.00  0.00    -0.086 HD
ATOM      8  C   LIG    1        2.346   1.500  -1.078  0.00  0.00    -0.038 C 
ENDROOT
BRANCH   1   9
ATOM      9  O   LIG    1        1.410   3.477  -0.049  0.00  0.00    -0.489 OA
BRANCH   9  12
ATOM     10  C   LIG    1        4.396   4.115   1.923  0.00  0.00    +0.023 A 
ATOM     11  C   LIG    1        3.415   3.410   1.244  0.00  0.00    +0.049 A 
ATOM     12  C   LIG    1        2.394   4.125   0.628  0.00  0.00    +0.139 A 
ATOM     13  C   LIG    1        2.396   5.510   0.711  0.00  0.00    +0.156 A 
ATOM     14  N   LIG    1        3.345   6.143   1.373  0.00  0.00    -0.260 NA
ATOM     15  C   LIG    1        4.328   5.495   1.967  0.00  0.00    +0.111 A 
ENDBRANCH   9  12
ENDBRANCH   1   9
TORSDOF 2
