REMARK  Name = ZINC13671723
REMARK                            x       y       z     vdW  Elec       q    Type
REMARK                         _______ _______ _______ _____ _____    ______ ____
ROOT
ATOM      1  C   LIG    1       -1.237  -0.789   0.009  0.00  0.00    +0.233 C 
ATOM      2  O   LIG    1       -1.187  -2.003   0.002  0.00  0.00    -0.283 OA
ENDROOT
BRANCH   1   7
ATOM      3  C   LIG    1        1.298  -0.638  -0.014  0.00  0.00    +0.019 A 
ATOM      4  C   LIG    1        2.376   0.169  -0.020  0.00  0.00    +0.046 A 
ATOM      5  S   LIG    1        1.663   1.801  -0.004  0.00  0.00    -0.104 S 
ATOM      6  C   LIG    1       -0.017   1.382   0.010  0.00  0.00    +0.057 A 
ATOM      7  C   LIG    1        0.002  -0.004   0.002  0.00  0.00    +0.033 A 
ENDBRANCH   1   7
BRANCH   1   8
ATOM      8  C   LIG    1       -2.557  -0.098   0.025  0.00  0.00    +0.233 C 
ATOM      9  O   LIG    1       -2.607   1.116   0.033  0.00  0.00    -0.283 OA
BRANCH   8  10
ATOM     10  C   LIG    1       -3.796  -0.883   0.033  0.00  0.00    +0.033 A 
ATOM     11  C   LIG    1       -5.092  -0.249   0.054  0.00  0.00    +0.019 A 
ATOM     12  C   LIG    1       -6.169  -1.056   0.054  0.00  0.00    +0.046 A 
ATOM     13  S   LIG    1       -5.457  -2.688   0.039  0.00  0.00    -0.104 S 
ATOM     14  C   LIG    1       -3.777  -2.269   0.025  0.00  0.00    +0.057 A 
ENDBRANCH   8  10
ENDBRANCH   1   8
TORSDOF 3
