REMARK  Name = ZINC13675232
REMARK                            x       y       z     vdW  Elec       q    Type
REMARK                         _______ _______ _______ _____ _____    ______ ____
ROOT
ATOM      1  C   LIG    1       -1.332   2.114   0.020  0.00  0.00    +0.136 C 
ATOM      2  C   LIG    1       -1.637   2.700  -1.373  0.00  0.00    +0.087 C 
ATOM      3  C   LIG    1       -1.699   4.191  -1.135  0.00  0.00    +0.069 C 
ATOM      4  N   LIG    1       -1.481   4.438   0.110  0.00  0.00    -0.182 NA
ATOM      5  N   LIG    1       -1.254   3.302   0.884  0.00  0.00    -0.197 N 
ENDROOT
BRANCH   1  10
ATOM      6  C   LIG    1        3.711  -0.707  -0.038  0.00  0.00    +0.044 C 
ATOM      7  C   LIG    1        2.396   0.029  -0.022  0.00  0.00    -0.050 A 
ATOM      8  C   LIG    1        1.208  -0.679  -0.013  0.00  0.00    +0.004 A 
ATOM      9  C   LIG    1        0.002  -0.004   0.002  0.00  0.00    +0.006 A 
ATOM     10  C   LIG    1       -0.017   1.378   0.010  0.00  0.00    -0.025 A 
ATOM     11  C   LIG    1        1.171   2.086   0.002  0.00  0.00    +0.006 A 
ATOM     12  C   LIG    1        2.377   1.411  -0.015  0.00  0.00    +0.004 A 
ENDBRANCH   1  10
BRANCH   3  13
ATOM     13  C   LIG    1       -1.967   5.207  -2.170  0.00  0.00    -0.002 A 
ATOM     14  C   LIG    1       -2.184   4.820  -3.494  0.00  0.00    +0.012 A 
ATOM     15  C   LIG    1       -2.440   5.774  -4.456  0.00  0.00    +0.039 A 
ATOM     16  C   LIG    1       -2.472   7.116  -4.113  0.00  0.00    +0.123 A 
ATOM     17  F   LIG    1       -2.718   8.047  -5.061  0.00  0.00    -0.205 F 
ATOM     18  C   LIG    1       -2.252   7.508  -2.802  0.00  0.00    +0.039 A 
ATOM     19  C   LIG    1       -2.000   6.562  -1.830  0.00  0.00    +0.012 A 
ENDBRANCH   3  13
BRANCH   5  20
ATOM     20  C   LIG    1       -1.003   3.293   2.208  0.00  0.00    +0.151 C 
ATOM     21  S   LIG    1       -0.743   1.809   3.020  0.00  0.00    -0.017 S 
BRANCH  20  22
ATOM     22  N   LIG    1       -0.957   4.453   2.893  0.00  0.00    -0.339 N 
ATOM     23  H   LIG    1       -0.776   4.447   3.846  0.00  0.00    +0.144 HD
ATOM     24  H   LIG    1       -1.104   5.294   2.433  0.00  0.00    +0.144 HD
ENDBRANCH  20  22
ENDBRANCH   5  20
TORSDOF 4
