REMARK  Name = ZINC13589050
REMARK                            x       y       z     vdW  Elec       q    Type
REMARK                         _______ _______ _______ _____ _____    ______ ____
ROOT
ATOM      1  O   LIG    1       -2.343   3.866   0.046  0.00  0.00    -0.492 OA
ENDROOT
BRANCH   1   2
ATOM      2  C   LIG    1       -1.187   3.151   0.031  0.00  0.00    +0.138 A 
ATOM      3  C   LIG    1       -1.217   1.760   0.017  0.00  0.00    +0.048 A 
ATOM      4  C   LIG    1       -0.013   1.076   0.008  0.00  0.00    +0.023 A 
ATOM      5  C   LIG    1        1.170   1.791   0.001  0.00  0.00    +0.111 A 
ATOM      6  N   LIG    1        1.164   3.110   0.008  0.00  0.00    -0.260 NA
ATOM      7  C   LIG    1        0.040   3.799   0.023  0.00  0.00    +0.156 A 
ENDBRANCH   1   2
BRANCH   1   8
ATOM      8  C   LIG    1       -2.226   5.290   0.053  0.00  0.00    +0.210 C 
BRANCH   8   9
ATOM      9  C   LIG    1       -3.621   5.917   0.070  0.00  0.00    -0.041 C 
BRANCH   9  11
ATOM     10  C   LIG    1       -5.641   6.162   1.382  0.00  0.00    -0.100 C 
ATOM     11  N   LIG    1       -4.291   5.570   1.338  0.00  0.00    +0.379 N 
ATOM     12  H   LIG    1       -3.737   5.931   2.124  0.00  0.00    -0.086 HD
ATOM     13  H   LIG    1       -4.367   4.549   1.413  0.00  0.00    -0.086 HD
ENDBRANCH   9  11
ENDBRANCH   8   9
ENDBRANCH   1   8
TORSDOF 4
