REMARK  Name = ZINC13738655
REMARK                            x       y       z     vdW  Elec       q    Type
REMARK                         _______ _______ _______ _____ _____    ______ ____
ROOT
ATOM      1  C   LIG    1       -2.351   4.302   0.037  0.00  0.00    -0.038 A 
ATOM      2  C   LIG    1       -2.901   4.737  -1.130  0.00  0.00    +0.004 A 
ATOM      3  C   LIG    1       -4.118   5.415  -1.141  0.00  0.00    +0.001 A 
ATOM      4  C   LIG    1       -4.788   5.671   0.016  0.00  0.00    +0.008 A 
ATOM      5  C   LIG    1       -4.249   5.242   1.241  0.00  0.00    -0.017 A 
ATOM      6  C   LIG    1       -4.914   5.489   2.455  0.00  0.00    +0.012 A 
ATOM      7  C   LIG    1       -4.365   5.060   3.623  0.00  0.00    +0.046 A 
ATOM      8  C   LIG    1       -3.146   4.375   3.636  0.00  0.00    +0.117 A 
ATOM      9  C   LIG    1       -2.474   4.119   2.475  0.00  0.00    +0.054 A 
ATOM     10  C   LIG    1       -3.013   4.548   1.251  0.00  0.00    -0.011 A 
ENDROOT
BRANCH   8  11
ATOM     11  O   LIG    1       -2.623   3.959   4.819  0.00  0.00    -0.507 OA
ATOM     12  H   LIG    1       -2.902   3.071   5.082  0.00  0.00    +0.292 HD
ENDBRANCH   8  11
BRANCH   1  13
ATOM     13  C   LIG    1       -1.036   3.567   0.026  0.00  0.00    +0.054 C 
BRANCH  13  14
ATOM     14  C   LIG    1       -1.295   2.059   0.019  0.00  0.00    +0.109 C 
BRANCH  14  17
ATOM     15  C   LIG    1        1.317  -0.740  -0.015  0.00  0.00    +0.109 C 
ATOM     16  C   LIG    1        0.002  -0.004   0.002  0.00  0.00    +0.210 C 
ATOM     17  N   LIG    1       -0.016   1.344   0.009  0.00  0.00    -0.315 N 
ATOM     18  H   LIG    1        0.817   1.840   0.004  0.00  0.00    +0.149 HD
ATOM     19  O   LIG    1       -1.040  -0.625   0.009  0.00  0.00    -0.276 OA
ENDBRANCH  14  17
ENDBRANCH  13  14
ENDBRANCH   1  13
TORSDOF 4
