REMARK  Name = ZINC13560373
REMARK                            x       y       z     vdW  Elec       q    Type
REMARK                         _______ _______ _______ _____ _____    ______ ____
ROOT
ATOM      1  C   LIG    1        3.655   2.158  -0.022  0.00  0.00    +0.136 A 
ATOM      2  C   LIG    1        3.775   3.519  -0.016  0.00  0.00    +0.050 A 
ATOM      3  C   LIG    1        5.141   3.813  -0.027  0.00  0.00    +0.050 A 
ATOM      4  C   LIG    1        5.809   2.602  -0.040  0.00  0.00    +0.130 A 
ATOM      5  O   LIG    1        4.887   1.616  -0.031  0.00  0.00    -0.455 OA
ENDROOT
BRANCH   4   6
ATOM      6  C   LIG    1        7.210   2.427  -0.054  0.00  0.00    +0.066 C 
ATOM      7  C   LIG    1        7.740   1.170  -0.066  0.00  0.00    +0.082 C 
ATOM      8  C   LIG    1        9.109   0.762  -0.087  0.00  0.00    +0.258 C 
ATOM      9  N   LIG    1        9.370  -0.534  -0.091  0.00  0.00    -0.243 N 
ATOM     10  H   LIG    1       10.292  -0.836  -0.101  0.00  0.00    +0.159 HD
ATOM     11  C   LIG    1        8.371  -1.445  -0.086  0.00  0.00    +0.283 C 
ATOM     12  O   LIG    1        8.447  -2.659  -0.093  0.00  0.00    -0.262 OA
ATOM     13  O   LIG    1       10.008   1.583  -0.097  0.00  0.00    -0.269 OA
ATOM     14  S   LIG    1        6.912  -0.414  -0.066  0.00  0.00    -0.026 S 
ENDBRANCH   4   6
BRANCH   1  17
ATOM     15  C   LIG    1       -0.017   1.379   0.010  0.00  0.00    +0.001 A 
ATOM     16  C   LIG    1        1.166   2.089   0.002  0.00  0.00    +0.011 A 
ATOM     17  C   LIG    1        2.385   1.407  -0.013  0.00  0.00    +0.018 A 
ATOM     18  C   LIG    1        2.397   0.009  -0.021  0.00  0.00    +0.024 A 
ATOM     19  C   LIG    1        1.206  -0.686  -0.013  0.00  0.00    +0.055 A 
ATOM     20  C   LIG    1        0.002  -0.004   0.002  0.00  0.00    +0.012 A 
BRANCH  19  21
ATOM     21  C   LIG    1        1.216  -2.193  -0.021  0.00  0.00    +0.417 C 
ATOM     22  F   LIG    1        1.890  -2.661   1.113  0.00  0.00    -0.166 F 
ATOM     23  F   LIG    1        1.867  -2.650  -1.172  0.00  0.00    -0.166 F 
ATOM     24  F   LIG    1       -0.100  -2.668  -0.010  0.00  0.00    -0.166 F 
ENDBRANCH  19  21
ENDBRANCH   1  17
TORSDOF 3
