REMARK  Name = ZINC13684552
REMARK                            x       y       z     vdW  Elec       q    Type
REMARK                         _______ _______ _______ _____ _____    ______ ____
ROOT
ATOM      1  C   LIG    1        1.173   2.082   0.002  0.00  0.00    +0.000 A 
ATOM      2  C   LIG    1        2.385   1.414  -0.013  0.00  0.00    +0.001 A 
ATOM      3  C   LIG    1        2.417   0.034  -0.027  0.00  0.00    +0.008 A 
ATOM      4  C   LIG    1        1.222  -0.683  -0.026  0.00  0.00    -0.020 A 
ATOM      5  C   LIG    1        0.002  -0.004   0.002  0.00  0.00    -0.040 A 
ATOM      6  C   LIG    1       -1.282  -0.789   0.048  0.00  0.00    +0.042 C 
ATOM      7  C   LIG    1       -1.142  -2.069  -0.773  0.00  0.00    +0.058 C 
ATOM      8  C   LIG    1        0.111  -2.811  -0.397  0.00  0.00    +0.025 C 
ATOM      9  C   LIG    1        1.224  -2.158  -0.064  0.00  0.00    +0.030 C 
ATOM     10  C   LIG    1       -0.017   1.374   0.010  0.00  0.00    +0.004 A 
ENDROOT
BRANCH   8  11
ATOM     11  N   LIG    1        0.109  -4.202  -0.398  0.00  0.00    -0.310 N 
ATOM     12  C   LIG    1        0.837  -5.019  -1.226  0.00  0.00    +0.112 A 
ATOM     13  C   LIG    1        0.538  -6.287  -0.884  0.00  0.00    +0.130 A 
ATOM     14  N   LIG    1       -0.354  -6.252   0.117  0.00  0.00    -0.244 NA
ATOM     15  C   LIG    1       -0.619  -5.010   0.417  0.00  0.00    +0.203 A 
ENDBRANCH   8  11
TORSDOF 1
