REMARK  Name = ZINC13678249
REMARK                            x       y       z     vdW  Elec       q    Type
REMARK                         _______ _______ _______ _____ _____    ______ ____
ROOT
ATOM      1  C   LIG    1       -0.077   5.849   0.035  0.00  0.00    +0.033 C 
ATOM      2  C   LIG    1        0.115   4.806   0.936  0.00  0.00    +0.100 C 
ATOM      3  C   LIG    1        1.332   3.977   0.903  0.00  0.00    +0.255 C 
ATOM      4  N   LIG    1        1.451   2.983   1.807  0.00  0.00    -0.263 N 
ATOM      5  H   LIG    1        2.247   2.428   1.799  0.00  0.00    +0.157 HD
ATOM      6  C   LIG    1        0.496   2.746   2.717  0.00  0.00    +0.143 C 
ATOM      7  N   LIG    1       -0.638   3.457   2.801  0.00  0.00    -0.263 N 
ATOM      8  H   LIG    1       -1.290   3.229   3.482  0.00  0.00    +0.157 HD
ATOM      9  S   LIG    1        0.733   1.463   3.826  0.00  0.00    -0.018 S 
ATOM     10  O   LIG    1        2.206   4.183   0.082  0.00  0.00    -0.270 OA
ATOM     11  C   LIG    1       -0.889   4.484   1.964  0.00  0.00    +0.255 C 
ATOM     12  O   LIG    1       -1.919   5.125   2.054  0.00  0.00    -0.270 OA
ENDROOT
BRANCH   1  16
ATOM     13  C   LIG    1       -3.902   7.274  -0.169  0.00  0.00    +0.020 A 
ATOM     14  C   LIG    1       -2.908   8.245  -0.202  0.00  0.00    +0.017 A 
ATOM     15  C   LIG    1       -1.606   7.854  -0.139  0.00  0.00    +0.016 A 
ATOM     16  C   LIG    1       -1.323   6.488  -0.043  0.00  0.00    +0.014 A 
ATOM     17  S   LIG    1       -2.956   5.765  -0.052  0.00  0.00    -0.089 S 
BRANCH  13  21
ATOM     18  C   LIG    1       -8.116   7.771  -0.326  0.00  0.00    +0.000 A 
ATOM     19  C   LIG    1       -7.576   6.500  -0.227  0.00  0.00    +0.001 A 
ATOM     20  C   LIG    1       -6.208   6.332  -0.176  0.00  0.00    +0.009 A 
ATOM     21  C   LIG    1       -5.368   7.447  -0.223  0.00  0.00    -0.011 A 
ATOM     22  C   LIG    1       -5.920   8.726  -0.317  0.00  0.00    +0.009 A 
ATOM     23  C   LIG    1       -7.290   8.880  -0.374  0.00  0.00    +0.001 A 
ENDBRANCH  13  21
ENDBRANCH   1  16
TORSDOF 2
