REMARK  Name = ZINC13563629
REMARK                            x       y       z     vdW  Elec       q    Type
REMARK                         _______ _______ _______ _____ _____    ______ ____
ROOT
ATOM      1  C   LIG    1        1.374  -2.514  -2.380  0.00  0.00    +0.137 A 
ATOM      2  C   LIG    1        1.567  -3.938  -2.709  0.00  0.00    +0.359 A 
ATOM      3  O   LIG    1        1.723  -4.255  -4.018  0.00  0.00    -0.419 OA
ATOM      4  C   LIG    1        2.412  -3.349  -4.756  0.00  0.00    +0.157 A 
ATOM      5  C   LIG    1        3.077  -3.740  -5.910  0.00  0.00    +0.048 A 
ATOM      6  C   LIG    1        3.758  -2.802  -6.659  0.00  0.00    +0.004 A 
ATOM      7  C   LIG    1        3.782  -1.471  -6.267  0.00  0.00    +0.002 A 
ATOM      8  C   LIG    1        3.141  -1.067  -5.132  0.00  0.00    +0.031 A 
ATOM      9  C   LIG    1        2.449  -2.003  -4.349  0.00  0.00    +0.107 A 
ATOM     10  O   LIG    1        1.587  -4.793  -1.844  0.00  0.00    -0.243 OA
ATOM     11  N   LIG    1        1.834  -1.617  -3.212  0.00  0.00    -0.241 NA
ENDROOT
BRANCH   1  12
ATOM     12  C   LIG    1        0.657  -2.104  -1.120  0.00  0.00    +0.183 C 
BRANCH  12  13
ATOM     13  C   LIG    1        0.598  -0.600  -1.043  0.00  0.00    +0.313 C 
ATOM     14  O   LIG    1        1.088   0.070  -1.921  0.00  0.00    -0.250 OA
BRANCH  13  16
ATOM     15  C   LIG    1       -0.017   1.425   0.010  0.00  0.00    +0.280 C 
ATOM     16  O   LIG    1        0.002  -0.004   0.002  0.00  0.00    -0.468 OA
ENDBRANCH  13  16
ENDBRANCH  12  13
ENDBRANCH   1  12
TORSDOF 3
