REMARK  Name = ZINC13580407
REMARK                            x       y       z     vdW  Elec       q    Type
REMARK                         _______ _______ _______ _____ _____    ______ ____
ROOT
ATOM      1  C   LIG    1       -6.388   1.118  -1.257  0.00  0.00    +0.403 C 
ATOM      2  N   LIG    1       -5.193   0.869  -0.685  0.00  0.00    -0.267 N 
ATOM      3  C   LIG    1       -4.899   1.346   0.673  0.00  0.00    +0.113 C 
ATOM      4  C   LIG    1       -3.597   2.153   0.641  0.00  0.00    +0.041 C 
ATOM      5  C   LIG    1       -2.488   1.300   0.021  0.00  0.00    +0.075 C 
ATOM      6  C   LIG    1       -2.866   0.936  -1.417  0.00  0.00    +0.041 C 
ATOM      7  C   LIG    1       -4.160   0.115  -1.408  0.00  0.00    +0.113 C 
ATOM      8  O   LIG    1       -7.234   1.742  -0.649  0.00  0.00    -0.226 OA
ENDROOT
BRANCH   5   9
ATOM      9  N   LIG    1       -1.234   2.057   0.019  0.00  0.00    -0.326 N 
ATOM     10  H   LIG    1       -1.252   3.026   0.024  0.00  0.00    +0.148 HD
BRANCH   9  11
ATOM     11  C   LIG    1       -0.017   1.385   0.010  0.00  0.00    +0.122 A 
ATOM     12  C   LIG    1        0.002  -0.004   0.002  0.00  0.00    +0.089 A 
ATOM     13  C   LIG    1        1.226  -0.661  -0.013  0.00  0.00    +0.125 A 
ATOM     14  C   LIG    1        2.391   0.105  -0.020  0.00  0.00    +0.065 A 
ATOM     15  C   LIG    1        2.292   1.480  -0.012  0.00  0.00    +0.116 A 
ATOM     16  N   LIG    1        1.114   2.076   0.003  0.00  0.00    -0.240 NA
BRANCH  13  17
ATOM     17  O   LIG    1        1.286  -2.018  -0.021  0.00  0.00    -0.495 OA
ATOM     18  C   LIG    1        2.587  -2.609  -0.037  0.00  0.00    +0.277 C 
ENDBRANCH  13  17
ENDBRANCH   9  11
ENDBRANCH   5   9
BRANCH   1  19
ATOM     19  O   LIG    1       -6.644   0.674  -2.502  0.00  0.00    -0.451 OA
BRANCH  19  21
ATOM     20  C   LIG    1       -8.056   0.399  -4.467  0.00  0.00    +0.048 C 
ATOM     21  C   LIG    1       -7.951   0.980  -3.055  0.00  0.00    +0.230 C 
ENDBRANCH  19  21
ENDBRANCH   1  19
TORSDOF 5
