REMARK  Name = ZINC13743792
REMARK                            x       y       z     vdW  Elec       q    Type
REMARK                         _______ _______ _______ _____ _____    ______ ____
ROOT
ATOM      1  C   LIG    1       -0.617   1.496  -3.603  0.00  0.00    +0.124 A 
ATOM      2  C   LIG    1       -1.760   2.282  -3.644  0.00  0.00    +0.046 A 
ATOM      3  C   LIG    1       -2.299   2.651  -4.861  0.00  0.00    +0.004 A 
ATOM      4  C   LIG    1       -1.701   2.239  -6.037  0.00  0.00    +0.001 A 
ATOM      5  C   LIG    1       -0.562   1.457  -5.999  0.00  0.00    +0.007 A 
ATOM      6  C   LIG    1       -0.015   1.089  -4.785  0.00  0.00    -0.001 A 
ENDROOT
BRANCH   1   7
ATOM      7  O   LIG    1       -0.084   1.132  -2.407  0.00  0.00    -0.492 OA
BRANCH   7   8
ATOM      8  C   LIG    1       -0.753   1.593  -1.232  0.00  0.00    +0.227 C 
BRANCH   8   9
ATOM      9  C   LIG    1       -0.013   1.086   0.008  0.00  0.00    +0.022 C 
BRANCH   9  10
ATOM     10  C   LIG    1       -0.729   1.579   1.267  0.00  0.00    -0.079 C 
BRANCH  10  11
ATOM     11  N   LIG    1       -0.009   1.087   2.457  0.00  0.00    +0.381 N 
ATOM     12  H   LIG    1        0.954   1.442   2.442  0.00  0.00    -0.086 HD
ATOM     13  H   LIG    1        0.004   0.060   2.443  0.00  0.00    -0.086 HD
BRANCH  11  15
ATOM     14  C   LIG    1       -1.809   0.581   4.047  0.00  0.00    -0.014 C 
ATOM     15  C   LIG    1       -0.679   1.548   3.687  0.00  0.00    -0.078 C 
ATOM     16  C   LIG    1        0.340   1.589   4.828  0.00  0.00    -0.014 C 
ENDBRANCH  11  15
ENDBRANCH  10  11
ENDBRANCH   9  10
ENDBRANCH   8   9
ENDBRANCH   7   8
ENDBRANCH   1   7
BRANCH   6  17
ATOM     17  C   LIG    1        1.230   0.241  -4.744  0.00  0.00    +0.074 C 
BRANCH  17  18
ATOM     18  C   LIG    1        0.846  -1.210  -4.608  0.00  0.00    -0.043 A 
ATOM     19  C   LIG    1        0.706  -1.774  -3.354  0.00  0.00    +0.004 A 
ATOM     20  C   LIG    1        0.349  -3.103  -3.229  0.00  0.00    +0.000 A 
ATOM     21  C   LIG    1        0.141  -3.872  -4.359  0.00  0.00    +0.000 A 
ATOM     22  C   LIG    1        0.286  -3.309  -5.614  0.00  0.00    +0.000 A 
ATOM     23  C   LIG    1        0.638  -1.978  -5.738  0.00  0.00    +0.004 A 
ENDBRANCH  17  18
ENDBRANCH   6  17
TORSDOF 8
