REMARK  Name = ZINC13680358
REMARK                            x       y       z     vdW  Elec       q    Type
REMARK                         _______ _______ _______ _____ _____    ______ ____
ROOT
ATOM      1  N   LIG    1       -2.828  -4.058   0.007  0.00  0.00    -0.311 N 
ATOM      2  C   LIG    1       -2.825  -4.722  -1.203  0.00  0.00    +0.056 A 
ATOM      3  C   LIG    1       -2.840  -4.015  -2.401  0.00  0.00    +0.026 A 
ATOM      4  C   LIG    1       -2.836  -4.693  -3.600  0.00  0.00    +0.002 A 
ATOM      5  C   LIG    1       -2.818  -6.081  -3.628  0.00  0.00    +0.001 A 
ATOM      6  C   LIG    1       -2.803  -6.800  -2.454  0.00  0.00    +0.014 A 
ATOM      7  C   LIG    1       -2.806  -6.126  -1.232  0.00  0.00    +0.046 A 
ATOM      8  C   LIG    1       -2.790  -6.864   0.044  0.00  0.00    +0.208 A 
ATOM      9  O   LIG    1       -2.774  -8.083   0.066  0.00  0.00    -0.286 OA
ATOM     10  C   LIG    1       -2.795  -6.110   1.248  0.00  0.00    +0.174 A 
ATOM     11  C   LIG    1       -2.808  -4.722   1.187  0.00  0.00    +0.212 A 
ENDROOT
BRANCH  10  12
ATOM     12  C   LIG    1       -2.780  -6.794   2.552  0.00  0.00    +0.358 C 
ATOM     13  N   LIG    1       -2.791  -6.051   3.614  0.00  0.00    +0.096 NA
ATOM     14  S   LIG    1       -2.765  -6.727   5.127  0.00  0.00    +0.183 S 
ATOM     15  C   LIG    1       -2.301  -8.413   4.897  0.00  0.00    +0.179 A 
ATOM     16  C   LIG    1       -1.903  -9.187   5.963  0.00  0.00    +0.035 A 
ATOM     17  C   LIG    1       -1.541 -10.508   5.759  0.00  0.00    +0.002 A 
ATOM     18  C   LIG    1       -1.580 -11.046   4.485  0.00  0.00    +0.004 A 
ATOM     19  C   LIG    1       -1.979 -10.273   3.413  0.00  0.00    +0.051 A 
ATOM     20  C   LIG    1       -2.345  -8.947   3.613  0.00  0.00    +0.148 A 
ATOM     21  O   LIG    1       -4.105  -6.727   5.599  0.00  0.00    -0.125 OA
ATOM     22  O   LIG    1       -1.704  -6.103   5.837  0.00  0.00    -0.125 OA
ATOM     23  N   LIG    1       -2.762  -8.160   2.542  0.00  0.00    -0.196 N 
ATOM     24  H   LIG    1       -3.062  -8.618   1.724  0.00  0.00    +0.299 HD
ENDBRANCH  10  12
BRANCH  11  25
ATOM     25  O   LIG    1       -2.807  -4.016   2.335  0.00  0.00    -0.493 OA
ATOM     26  H   LIG    1       -2.815  -3.080   2.310  0.00  0.00    +0.294 HD
ENDBRANCH  11  25
BRANCH   1  27
ATOM     27  C   LIG    1       -2.848  -2.593   0.015  0.00  0.00    +0.125 C 
BRANCH  27  28
ATOM     28  C   LIG    1       -1.413  -2.063   0.004  0.00  0.00    +0.022 C 
BRANCH  28  29
ATOM     29  C   LIG    1       -1.433  -0.534   0.013  0.00  0.00    +0.001 C 
BRANCH  29  31
ATOM     30  C   LIG    1       -0.019   1.526   0.010  0.00  0.00    +0.004 C 
ATOM     31  C   LIG    1        0.002  -0.004   0.002  0.00  0.00    -0.003 C 
ENDBRANCH  29  31
ENDBRANCH  28  29
ENDBRANCH  27  28
ENDBRANCH   1  27
TORSDOF 6
