REMARK  Name = ZINC13643145
REMARK                            x       y       z     vdW  Elec       q    Type
REMARK                         _______ _______ _______ _____ _____    ______ ____
ROOT
ATOM      1  C   LIG    1       -3.256   5.093  -5.853  0.00  0.00    +0.249 C 
ATOM      2  N   LIG    1       -3.699   4.249  -6.805  0.00  0.00    -0.265 N 
ATOM      3  H   LIG    1       -3.595   3.291  -6.690  0.00  0.00    +0.157 HD
ATOM      4  O   LIG    1       -3.385   6.294  -5.997  0.00  0.00    -0.270 OA
ENDROOT
BRANCH   2   5
ATOM      5  C   LIG    1       -4.308   4.754  -7.961  0.00  0.00    +0.152 A 
ATOM      6  C   LIG    1       -4.813   3.991  -9.029  0.00  0.00    +0.034 A 
ATOM      7  C   LIG    1       -5.317   4.844  -9.945  0.00  0.00    +0.060 A 
ATOM      8  C   LIG    1       -5.869   4.059 -11.109  0.00  0.00    +0.163 C 
ATOM      9  N   LIG    1       -5.656   2.636 -10.821  0.00  0.00    -0.291 N 
ATOM     10  C   LIG    1       -6.002   1.593 -11.602  0.00  0.00    +0.221 C 
ATOM     11  O   LIG    1       -5.765   0.460 -11.241  0.00  0.00    -0.275 OA
ATOM     12  N   LIG    1       -5.142   6.102  -9.482  0.00  0.00    -0.278 N 
ATOM     13  H   LIG    1       -5.414   6.943  -9.949  0.00  0.00    +0.189 HD
ATOM     14  C   LIG    1       -4.992   2.574  -9.514  0.00  0.00    +0.148 C 
ATOM     15  N   LIG    1       -4.512   6.020  -8.234  0.00  0.00    -0.158 NA
BRANCH  10  16
ATOM     16  C   LIG    1       -6.683   1.835 -12.925  0.00  0.00    +0.138 C 
BRANCH  16  17
ATOM     17  C   LIG    1       -6.960   0.515 -13.597  0.00  0.00    -0.001 A 
ATOM     18  C   LIG    1       -8.055  -0.278 -13.502  0.00  0.00    +0.011 A 
ATOM     19  C   LIG    1       -8.091  -1.460 -14.218  0.00  0.00    +0.008 A 
ATOM     20  C   LIG    1       -7.030  -1.791 -14.993  0.00  0.00    +0.045 A 
ATOM     21  S   LIG    1       -5.933  -0.407 -14.730  0.00  0.00    -0.101 S 
ENDBRANCH  16  17
ENDBRANCH  10  16
ENDBRANCH   2   5
BRANCH   1  25
ATOM     22  C   LIG    1       -1.411   3.563  -2.348  0.00  0.00    +0.030 A 
ATOM     23  C   LIG    1       -1.863   2.689  -3.333  0.00  0.00    +0.024 A 
ATOM     24  C   LIG    1       -2.465   3.182  -4.468  0.00  0.00    +0.015 A 
ATOM     25  C   LIG    1       -2.615   4.562  -4.636  0.00  0.00    +0.037 A 
ATOM     26  C   LIG    1       -2.155   5.437  -3.647  0.00  0.00    +0.015 A 
ATOM     27  C   LIG    1       -1.557   4.938  -2.512  0.00  0.00    +0.024 A 
BRANCH  22  33
ATOM     28  C   LIG    1       -0.062   1.031   2.429  0.00  0.00    -0.096 C 
ATOM     29  N   LIG    1       -0.728   1.551   1.215  0.00  0.00    +0.380 N 
ATOM     30  H   LIG    1       -1.692   1.200   1.187  0.00  0.00    -0.082 HD
ATOM     31  C   LIG    1       -0.754   3.029   1.247  0.00  0.00    -0.060 C 
ATOM     32  C   LIG    1       -1.495   3.536   0.008  0.00  0.00    +0.086 C 
ATOM     33  N   LIG    1       -0.806   3.062  -1.200  0.00  0.00    -0.333 N 
ATOM     34  C   LIG    1       -0.754   1.593  -1.231  0.00  0.00    +0.086 C 
ATOM     35  C   LIG    1       -0.013   1.086   0.008  0.00  0.00    -0.060 C 
ENDBRANCH  22  33
ENDBRANCH   1  25
TORSDOF 5
