REMARK  Name = ZINC13679497
REMARK                            x       y       z     vdW  Elec       q    Type
REMARK                         _______ _______ _______ _____ _____    ______ ____
ROOT
ATOM      1  C   LIG    1       -0.016   1.362   0.009  0.00  0.00    +0.049 A 
ATOM      2  C   LIG    1       -1.253   2.021   0.031  0.00  0.00    +0.092 A 
ATOM      3  N   LIG    1       -1.634   3.311   0.043  0.00  0.00    -0.226 NA
ATOM      4  C   LIG    1       -2.946   3.385   0.063  0.00  0.00    +0.158 A 
ATOM      5  N   LIG    1       -3.481   2.125   0.048  0.00  0.00    -0.335 N 
ATOM      6  H   LIG    1       -4.438   1.896   0.048  0.00  0.00    +0.167 HD
ATOM      7  C   LIG    1       -2.424   1.236   0.033  0.00  0.00    +0.085 A 
ATOM      8  C   LIG    1       -2.308  -0.144   0.024  0.00  0.00    +0.138 A 
ATOM      9  N   LIG    1       -1.116  -0.710   0.009  0.00  0.00    -0.261 NA
ATOM     10  C   LIG    1        0.002  -0.004   0.002  0.00  0.00    +0.113 A 
ENDROOT
BRANCH   4  11
ATOM     11  C   LIG    1       -3.725   4.639   0.082  0.00  0.00    +0.113 A 
ATOM     12  C   LIG    1       -5.092   4.638   0.107  0.00  0.00    +0.078 A 
ATOM     13  S   LIG    1       -5.452   6.279   0.120  0.00  0.00    -0.083 S 
ATOM     14  C   LIG    1       -3.892   6.898   0.094  0.00  0.00    +0.156 A 
ATOM     15  N   LIG    1       -3.136   5.832   0.081  0.00  0.00    -0.244 NA
ENDBRANCH   4  11
TORSDOF 1
