REMARK  Name = ZINC13680669
REMARK                            x       y       z     vdW  Elec       q    Type
REMARK                         _______ _______ _______ _____ _____    ______ ____
ROOT
ATOM      1  C   LIG    1        2.525   1.591  -0.013  0.00  0.00    +0.028 C 
ATOM      2  C   LIG    1        1.288   1.931   0.428  0.00  0.00    +0.078 C 
ATOM      3  C   LIG    1        0.047   1.125   0.472  0.00  0.00    +0.272 C 
ATOM      4  N   LIG    1       -1.029   1.722   0.955  0.00  0.00    -0.189 N 
ATOM      5  C   LIG    1       -0.990   2.997   1.395  0.00  0.00    +0.135 C 
ATOM      6  S   LIG    1       -2.264   3.932   2.054  0.00  0.00    -0.026 S 
ATOM      7  O   LIG    1        0.018  -0.026   0.078  0.00  0.00    -0.268 OA
ATOM      8  S   LIG    1        0.708   3.475   1.118  0.00  0.00    -0.060 S 
ENDROOT
BRANCH   1  14
ATOM      9  C   LIG    1        3.233   3.973  -0.103  0.00  0.00    +0.009 A 
ATOM     10  C   LIG    1        4.210   4.922  -0.192  0.00  0.00    +0.019 A 
ATOM     11  C   LIG    1        5.550   4.539  -0.307  0.00  0.00    +0.052 A 
ATOM     12  C   LIG    1        5.892   3.183  -0.326  0.00  0.00    +0.019 A 
ATOM     13  C   LIG    1        4.917   2.231  -0.231  0.00  0.00    +0.009 A 
ATOM     14  C   LIG    1        3.574   2.614  -0.115  0.00  0.00    -0.024 A 
BRANCH  11  15
ATOM     15  C   LIG    1        6.573   5.536  -0.407  0.00  0.00    +0.099 C 
ATOM     16  N   LIG    1        7.385   6.327  -0.485  0.00  0.00    -0.191 NA
ENDBRANCH  11  15
ENDBRANCH   1  14
BRANCH   4  17
ATOM     17  N   LIG    1       -2.206   1.031   1.015  0.00  0.00    -0.246 NA
ATOM     18  H   LIG    1       -2.464   0.677   0.106  0.00  0.00    +0.141 HD
ATOM     19  H   LIG    1       -2.941   1.603   1.403  0.00  0.00    +0.141 HD
ENDBRANCH   4  17
TORSDOF 3
