REMARK  Name = ZINC13588690
REMARK                            x       y       z     vdW  Elec       q    Type
REMARK                         _______ _______ _______ _____ _____    ______ ____
ROOT
ATOM      1  C   LIG    1       -0.018   1.472   0.010  0.00  0.00    +0.158 C 
ATOM      2  C   LIG    1        1.492   1.814  -0.002  0.00  0.00    +0.253 C 
ATOM      3  O   LIG    1        2.050   0.615  -0.578  0.00  0.00    -0.465 OA
ATOM      4  C   LIG    1        1.193  -0.396  -0.331  0.00  0.00    +0.253 C 
ATOM      5  N   LIG    1        0.002  -0.004   0.002  0.00  0.00    -0.340 N 
ATOM      6  H   LIG    1       -0.748  -0.583   0.211  0.00  0.00    +0.164 HD
ENDROOT
BRANCH   4   7
ATOM      7  N   LIG    1        1.548  -1.719  -0.424  0.00  0.00    -0.315 N 
ATOM      8  H   LIG    1        0.895  -2.411  -0.237  0.00  0.00    +0.147 HD
ATOM      9  H   LIG    1        2.453  -1.962  -0.677  0.00  0.00    +0.147 HD
ENDBRANCH   4   7
TORSDOF 1
