REMARK  Name = ZINC13559818
REMARK                            x       y       z     vdW  Elec       q    Type
REMARK                         _______ _______ _______ _____ _____    ______ ____
ROOT
ATOM      1  C   LIG    1       -1.150   5.451   0.084  0.00  0.00    +0.013 A 
ATOM      2  C   LIG    1       -1.963   6.565   0.102  0.00  0.00    +0.047 A 
ATOM      3  C   LIG    1       -3.343   6.419   0.058  0.00  0.00    +0.128 A 
ATOM      4  C   LIG    1       -3.908   5.153  -0.011  0.00  0.00    +0.047 A 
ATOM      5  C   LIG    1       -3.100   4.036  -0.035  0.00  0.00    +0.013 A 
ATOM      6  C   LIG    1       -1.714   4.179   0.010  0.00  0.00    +0.002 A 
ENDROOT
BRANCH   6   7
ATOM      7  C   LIG    1       -0.842   2.979  -0.015  0.00  0.00    +0.092 A 
ATOM      8  C   LIG    1        0.567   2.977   0.024  0.00  0.00    +0.049 A 
ATOM      9  C   LIG    1        0.980   1.692  -0.018  0.00  0.00    +0.105 A 
ATOM     10  N   LIG    1       -0.114   0.903  -0.082  0.00  0.00    -0.284 N 
ATOM     11  H   LIG    1       -0.116  -0.096  -0.120  0.00  0.00    +0.188 HD
ATOM     12  N   LIG    1       -1.246   1.728  -0.085  0.00  0.00    -0.174 NA
ENDBRANCH   6   7
BRANCH   3  13
ATOM     13  O   LIG    1       -4.142   7.518   0.081  0.00  0.00    -0.456 OA
BRANCH  13  14
ATOM     14  C   LIG    1       -4.920   7.718   1.176  0.00  0.00    +0.129 A 
ATOM     15  C   LIG    1       -4.797   6.884   2.278  0.00  0.00    +0.049 A 
ATOM     16  C   LIG    1       -5.585   7.092   3.393  0.00  0.00    +0.042 A 
ATOM     17  C   LIG    1       -6.507   8.125   3.407  0.00  0.00    +0.124 A 
ATOM     18  F   LIG    1       -7.281   8.324   4.496  0.00  0.00    -0.205 F 
ATOM     19  C   LIG    1       -6.635   8.955   2.307  0.00  0.00    +0.042 A 
ATOM     20  C   LIG    1       -5.844   8.753   1.192  0.00  0.00    +0.049 A 
ENDBRANCH  13  14
ENDBRANCH   3  13
TORSDOF 3
