REMARK  Name = ZINC13673447
REMARK                            x       y       z     vdW  Elec       q    Type
REMARK                         _______ _______ _______ _____ _____    ______ ____
ROOT
ATOM      1  C   LIG    1       -4.934   3.719   0.048  0.00  0.00    +0.008 C 
ATOM      2  C   LIG    1       -4.952   5.062   0.055  0.00  0.00    +0.008 C 
ENDROOT
BRANCH   1   6
ATOM      3  C   LIG    1       -1.229   1.647   0.017  0.00  0.00    +0.027 A 
ATOM      4  C   LIG    1       -1.246   3.038   0.030  0.00  0.00    +0.023 A 
ATOM      5  C   LIG    1       -2.446   3.714   0.035  0.00  0.00    +0.010 A 
ATOM      6  C   LIG    1       -3.648   3.000   0.037  0.00  0.00    -0.025 A 
ATOM      7  C   LIG    1       -3.627   1.602   0.029  0.00  0.00    +0.010 A 
ATOM      8  C   LIG    1       -2.423   0.933   0.019  0.00  0.00    +0.023 A 
BRANCH   3  10
ATOM      9  C   LIG    1        1.248   1.716  -0.001  0.00  0.00    +0.125 C 
ATOM     10  N   LIG    1       -0.011   0.966   0.007  0.00  0.00    -0.347 N 
ATOM     11  H   LIG    1        0.002  -0.004   0.002  0.00  0.00    +0.146 HD
ENDBRANCH   3  10
ENDBRANCH   1   6
BRANCH   2  12
ATOM     12  C   LIG    1       -6.238   5.782   0.066  0.00  0.00    -0.025 A 
ATOM     13  C   LIG    1       -7.440   5.069   0.062  0.00  0.00    +0.011 A 
ATOM     14  C   LIG    1       -8.640   5.746   0.078  0.00  0.00    +0.046 A 
ATOM     15  C   LIG    1       -8.656   7.135   0.086  0.00  0.00    +0.117 A 
ATOM     16  C   LIG    1       -7.464   7.848   0.084  0.00  0.00    +0.046 A 
ATOM     17  C   LIG    1       -6.259   7.179   0.074  0.00  0.00    +0.011 A 
BRANCH  15  18
ATOM     18  O   LIG    1       -9.842   7.798   0.096  0.00  0.00    -0.507 OA
ATOM     19  H   LIG    1      -10.190   7.995  -0.784  0.00  0.00    +0.292 HD
ENDBRANCH  15  18
ENDBRANCH   2  12
TORSDOF 4
