REMARK  Name = ZINC13704662
REMARK                            x       y       z     vdW  Elec       q    Type
REMARK                         _______ _______ _______ _____ _____    ______ ____
ROOT
ATOM      1  C   LIG    1        5.412   4.938  -0.126  0.00  0.00    -0.045 A 
ATOM      2  C   LIG    1        4.582   5.165  -1.210  0.00  0.00    +0.004 A 
ATOM      3  C   LIG    1        3.307   4.639  -1.227  0.00  0.00    +0.009 A 
ATOM      4  C   LIG    1        2.855   3.878  -0.150  0.00  0.00    -0.009 A 
ATOM      5  C   LIG    1        3.694   3.657   0.942  0.00  0.00    +0.009 A 
ATOM      6  C   LIG    1        4.969   4.184   0.946  0.00  0.00    +0.004 A 
ENDROOT
BRANCH   4   7
ATOM      7  C   LIG    1        1.486   3.311  -0.162  0.00  0.00    +0.091 A 
ATOM      8  C   LIG    1        1.290   1.934  -0.222  0.00  0.00    +0.153 A 
ATOM      9  C   LIG    1       -0.021   1.425  -0.231  0.00  0.00    +0.179 A 
ATOM     10  N   LIG    1       -1.046   2.230  -0.191  0.00  0.00    -0.173 NA
ATOM     11  N   LIG    1       -0.879   3.616  -0.126  0.00  0.00    -0.227 N 
ATOM     12  C   LIG    1        0.355   4.159  -0.113  0.00  0.00    +0.279 A 
ATOM     13  O   LIG    1        0.495   5.370  -0.061  0.00  0.00    -0.265 OA
BRANCH   8  14
ATOM     14  O   LIG    1        2.351   1.093  -0.270  0.00  0.00    -0.493 OA
ATOM     15  C   LIG    1        2.521   0.332  -1.467  0.00  0.00    +0.277 C 
ENDBRANCH   8  14
BRANCH  11  16
ATOM     16  C   LIG    1       -2.055   4.488  -0.075  0.00  0.00    +0.175 C 
BRANCH  16  17
ATOM     17  C   LIG    1       -2.479   4.856  -1.499  0.00  0.00    +0.179 C 
BRANCH  17  18
ATOM     18  O   LIG    1       -2.909   3.679  -2.187  0.00  0.00    -0.393 OA
ATOM     19  H   LIG    1       -3.193   3.838  -3.097  0.00  0.00    +0.209 HD
ENDBRANCH  17  18
ENDBRANCH  16  17
ENDBRANCH  11  16
ENDBRANCH   4   7
BRANCH   1  20
ATOM     20  C   LIG    1        6.804   5.515  -0.113  0.00  0.00    +0.069 C 
BRANCH  20  21
ATOM     21  CA  LIG    1        6.775   6.905   0.524  0.00  0.00    +0.189 C 
BRANCH  21  23
ATOM     22  C   LIG    1        5.397   8.893   0.229  0.00  0.00    +0.401 C 
ATOM     23  N   LIG    1        5.987   7.811  -0.316  0.00  0.00    -0.268 N 
ATOM     24  H   LIG    1        5.891   7.632  -1.264  0.00  0.00    +0.153 HD
ATOM     25  O   LIG    1        5.518   9.117   1.417  0.00  0.00    -0.226 OA
BRANCH  22  26
ATOM     26  O   LIG    1        4.674   9.726  -0.543  0.00  0.00    -0.445 OA
BRANCH  26  28
ATOM     27  C   LIG    1        5.159  11.738   0.740  0.00  0.00    +0.055 C 
ATOM     28  C   LIG    1        4.066  10.871   0.112  0.00  0.00    +0.107 C 
ATOM     29  C   LIG    1        3.109  10.386   1.203  0.00  0.00    +0.055 C 
ATOM     30  C   LIG    1        3.290  11.694  -0.918  0.00  0.00    +0.055 C 
ENDBRANCH  26  28
ENDBRANCH  22  26
ENDBRANCH  21  23
BRANCH  21  31
ATOM     31  C   LIG    1        8.181   7.431   0.649  0.00  0.00    +0.326 C 
ATOM     32  O   LIG    1        8.495   8.457   0.093  0.00  0.00    -0.249 OA
BRANCH  31  33
ATOM     33  OXT LIG    1        9.087   6.759   1.378  0.00  0.00    -0.479 OA
ATOM     34  HXT LIG    1        8.844   5.963   1.809  0.00  0.00    +0.295 HD
ENDBRANCH  31  33
ENDBRANCH  21  31
ENDBRANCH  20  21
ENDBRANCH   1  20
TORSDOF 12
