REMARK  Name = ZINC13742937
REMARK                            x       y       z     vdW  Elec       q    Type
REMARK                         _______ _______ _______ _____ _____    ______ ____
ROOT
ATOM      1  C   LIG    1        2.348   1.120  -1.503  0.00  0.00    +0.101 C 
ENDROOT
BRANCH   1   2
ATOM      2  P   LIG    1        1.451   1.638  -0.003  0.00  0.00    +0.266 P 
ATOM      3  O   LIG    1        1.314   3.111   0.006  0.00  0.00    -0.285 OA
BRANCH   2   4
ATOM      4  C   LIG    1        2.377   1.104   1.474  0.00  0.00    +0.425 C 
ATOM      5  F   LIG    1        2.506  -0.289   1.465  0.00  0.00    -0.198 F 
ATOM      6  F   LIG    1        1.688   1.501   2.625  0.00  0.00    -0.198 F 
ENDBRANCH   2   4
BRANCH   2   7
ATOM      7  O   LIG    1       -0.011   0.963   0.007  0.00  0.00    -0.340 OA
ATOM      8  H   LIG    1       -0.504   1.247  -0.779  0.00  0.00    +0.218 HD
ENDBRANCH   2   7
ENDBRANCH   1   2
BRANCH   1   9
ATOM      9  C   LIG    1        1.638   1.675  -2.739  0.00  0.00    -0.010 C 
BRANCH   9  10
ATOM     10  C   LIG    1        2.391   1.240  -3.998  0.00  0.00    -0.086 C 
BRANCH  10  11
ATOM     11  N   LIG    1        1.709   1.773  -5.185  0.00  0.00    +0.378 N 
ATOM     12  H   LIG    1        0.680   1.385  -5.221  0.00  0.00    -0.090 HD
ATOM     13  H   LIG    1        1.685   2.871  -5.133  0.00  0.00    -0.090 HD
ATOM     14  H   LIG    1        2.251   1.460  -6.090  0.00  0.00    -0.090 HD
ENDBRANCH  10  11
ENDBRANCH   9  10
ENDBRANCH   1   9
TORSDOF 6
