REMARK  Name = ZINC13682420
REMARK                            x       y       z     vdW  Elec       q    Type
REMARK                         _______ _______ _______ _____ _____    ______ ____
ROOT
ATOM      1  C   LIG    1        1.252  -4.691  -0.154  0.00  0.00    +0.126 A 
ATOM      2  C   LIG    1        0.047  -5.367  -0.241  0.00  0.00    +0.057 A 
ATOM      3  C   LIG    1        0.074  -6.739  -0.499  0.00  0.00    +0.045 A 
ATOM      4  C   LIG    1        1.330  -7.379  -0.660  0.00  0.00    +0.094 A 
ATOM      5  N   LIG    1        1.349  -8.695  -0.908  0.00  0.00    -0.234 NA
ATOM      6  C   LIG    1        0.235  -9.379  -1.000  0.00  0.00    +0.224 A 
ATOM      7  N   LIG    1       -0.970  -8.849  -0.862  0.00  0.00    -0.220 NA
ATOM      8  C   LIG    1        2.495  -6.609  -0.553  0.00  0.00    +0.141 A 
ATOM      9  C   LIG    1       -1.131  -7.554  -0.613  0.00  0.00    +0.134 A 
ATOM     10  N   LIG    1        2.411  -5.319  -0.315  0.00  0.00    -0.238 NA
ENDROOT
BRANCH   1  12
ATOM     11  C   LIG    1        2.405  -2.628   0.085  0.00  0.00    +0.294 C 
ATOM     12  N   LIG    1        1.249  -3.320   0.103  0.00  0.00    -0.260 N 
ATOM     13  H   LIG    1        0.414  -2.864   0.295  0.00  0.00    +0.157 HD
ATOM     14  O   LIG    1        3.461  -3.212  -0.065  0.00  0.00    -0.260 OA
BRANCH  11  17
ATOM     15  C   LIG    1        2.364   1.425   0.532  0.00  0.00    +0.106 C 
ATOM     16  C   LIG    1        2.379  -0.038   0.371  0.00  0.00    -0.096 C 
ATOM     17  C   LIG    1        2.391  -1.205   0.242  0.00  0.00    -0.008 C 
ENDBRANCH  11  17
ENDBRANCH   1  12
BRANCH   9  18
ATOM     18  N   LIG    1       -2.387  -7.003  -0.469  0.00  0.00    -0.299 N 
ATOM     19  H   LIG    1       -2.486  -6.043  -0.364  0.00  0.00    +0.154 HD
BRANCH  18  20
ATOM     20  C   LIG    1       -3.518  -7.827  -0.473  0.00  0.00    +0.034 A 
ATOM     21  C   LIG    1       -3.440  -9.116   0.037  0.00  0.00    +0.026 A 
ATOM     22  C   LIG    1       -4.558  -9.928   0.032  0.00  0.00    +0.041 A 
ATOM     23  C   LIG    1       -5.755  -9.458  -0.481  0.00  0.00    +0.142 A 
ATOM     24  F   LIG    1       -6.846 -10.254  -0.485  0.00  0.00    -0.204 F 
ATOM     25  C   LIG    1       -5.834  -8.172  -0.992  0.00  0.00    +0.078 A 
ATOM     26 CL   LIG    1       -7.336  -7.586  -1.636  0.00  0.00    -0.081 Cl
ATOM     27  C   LIG    1       -4.720  -7.354  -0.983  0.00  0.00    +0.046 A 
ENDBRANCH  18  20
ENDBRANCH   9  18
TORSDOF 4
