REMARK  Name = ZINC13730720
REMARK                            x       y       z     vdW  Elec       q    Type
REMARK                         _______ _______ _______ _____ _____    ______ ____
ROOT
ATOM      1  C   LIG    1       -0.987   3.470  -0.802  0.00  0.00    +0.012 C 
ATOM      2  C   LIG    1       -1.247   2.206   0.020  0.00  0.00    +0.021 C 
ENDROOT
BRANCH   2   3
ATOM      3  C   LIG    1       -0.016   1.337   0.009  0.00  0.00    +0.060 A 
ATOM      4  C   LIG    1        1.259   1.771  -0.000  0.00  0.00    +0.107 A 
ATOM      5  N   LIG    1        2.056   0.658  -0.014  0.00  0.00    -0.351 N 
ATOM      6  C   LIG    1        1.240  -0.418  -0.012  0.00  0.00    +0.196 A 
ATOM      7  H   LIG    1        3.056   0.645  -0.024  0.00  0.00    +0.166 HD
ATOM      8  N   LIG    1        0.002  -0.004   0.002  0.00  0.00    -0.241 NA
ENDBRANCH   2   3
BRANCH   2   9
ATOM      9  C   LIG    1       -1.584   2.595   1.461  0.00  0.00    -0.070 C 
ATOM     10  C   LIG    1       -2.834   3.478   1.472  0.00  0.00    -0.014 C 
BRANCH   9  11
ATOM     11  N   LIG    1       -1.812   1.370   2.247  0.00  0.00    +0.380 N 
ATOM     12  H   LIG    1       -0.975   0.778   2.200  0.00  0.00    -0.090 HD
ATOM     13  H   LIG    1       -2.605   0.855   1.869  0.00  0.00    -0.090 HD
ATOM     14  H   LIG    1       -1.995   1.609   3.220  0.00  0.00    -0.090 HD
ENDBRANCH   9  11
ENDBRANCH   2   9
TORSDOF 3
