REMARK  Name = ZINC13586844
REMARK                            x       y       z     vdW  Elec       q    Type
REMARK                         _______ _______ _______ _____ _____    ______ ____
ROOT
ATOM      1  C   LIG    1        2.377   1.415  -0.014  0.00  0.00    +0.122 A 
ATOM      2  C   LIG    1        1.158   2.088   0.002  0.00  0.00    +0.046 A 
ATOM      3  C   LIG    1       -0.017   1.392   0.010  0.00  0.00    +0.013 A 
ATOM      4  C   LIG    1        0.002  -0.004   0.002  0.00  0.00    +0.000 A 
ATOM      5  C   LIG    1       -1.042  -1.034   0.007  0.00  0.00    +0.029 A 
ATOM      6  C   LIG    1       -0.423  -2.219  -0.005  0.00  0.00    +0.003 A 
ATOM      7  N   LIG    1        0.943  -2.035  -0.017  0.00  0.00    -0.347 N 
ATOM      8  C   LIG    1        1.905  -3.147  -0.027  0.00  0.00    +0.103 C 
ATOM      9  C   LIG    1        1.167  -4.423   0.394  0.00  0.00    -0.060 C 
ATOM     10  N   LIG    1       -0.059  -4.583  -0.411  0.00  0.00    +0.384 N 
ATOM     11  H   LIG    1        0.169  -4.452  -1.404  0.00  0.00    -0.085 HD
ATOM     12  H   LIG    1       -0.438  -5.526  -0.268  0.00  0.00    -0.085 HD
ATOM     13  C   LIG    1       -1.074  -3.584  -0.008  0.00  0.00    -0.028 C 
ATOM     14  C   LIG    1        1.230  -0.692  -0.013  0.00  0.00    +0.053 A 
ATOM     15  C   LIG    1        2.417   0.034  -0.021  0.00  0.00    +0.072 A 
ENDROOT
BRANCH   1  17
ATOM     16  C   LIG    1        3.429   3.548  -0.014  0.00  0.00    +0.277 C 
ATOM     17  O   LIG    1        3.538   2.123  -0.022  0.00  0.00    -0.495 OA
ENDBRANCH   1  17
TORSDOF 1
