REMARK  Name = ZINC13641781
REMARK                            x       y       z     vdW  Elec       q    Type
REMARK                         _______ _______ _______ _____ _____    ______ ____
ROOT
ATOM      1  C   LIG    1        1.175   2.065   0.002  0.00  0.00    -0.004 A 
ATOM      2  C   LIG    1        1.161   3.448   0.010  0.00  0.00    +0.054 A 
ATOM      3  C   LIG    1       -0.045   4.128   0.025  0.00  0.00    +0.134 A 
ATOM      4  C   LIG    1       -1.244   3.419   0.032  0.00  0.00    +0.053 A 
ATOM      5  C   LIG    1       -1.227   2.032   0.019  0.00  0.00    +0.064 A 
ATOM      6  C   LIG    1       -0.016   1.356   0.009  0.00  0.00    +0.124 A 
ENDROOT
BRANCH   3   7
ATOM      7  O   LIG    1       -0.058   5.489   0.033  0.00  0.00    -0.494 OA
ATOM      8  C   LIG    1        1.209   6.151   0.025  0.00  0.00    +0.277 C 
ENDBRANCH   3   7
BRANCH   4   9
ATOM      9  S   LIG    1       -2.780   4.282   0.051  0.00  0.00    -0.125 S 
ATOM     10  C   LIG    1       -4.025   2.963   0.055  0.00  0.00    +0.090 C 
ENDBRANCH   4   9
BRANCH   6  11
ATOM     11  O   LIG    1        0.002  -0.004   0.002  0.00  0.00    -0.495 OA
ATOM     12  C   LIG    1       -1.262  -0.670   0.011  0.00  0.00    +0.277 C 
ENDBRANCH   6  11
BRANCH   1  13
ATOM     13  C   LIG    1        2.489   1.327  -0.015  0.00  0.00    +0.023 C 
BRANCH  13  15
ATOM     14  C   LIG    1        4.127   0.119  -1.465  0.00  0.00    -0.013 C 
ATOM     15  C   LIG    1        2.859   0.975  -1.457  0.00  0.00    -0.071 C 
BRANCH  15  16
ATOM     16  N   LIG    1        3.100   2.219  -2.212  0.00  0.00    +0.379 N 
ATOM     17  H   LIG    1        2.461   2.949  -1.875  0.00  0.00    -0.086 HD
ATOM     18  H   LIG    1        4.071   2.521  -2.067  0.00  0.00    -0.086 HD
ATOM     19  C   LIG    1        2.869   1.997  -3.652  0.00  0.00    -0.100 C 
ENDBRANCH  15  16
ENDBRANCH  13  15
ENDBRANCH   1  13
TORSDOF 6
