REMARK  Name = ZINC13676558
REMARK                            x       y       z     vdW  Elec       q    Type
REMARK                         _______ _______ _______ _____ _____    ______ ____
ROOT
ATOM      1  C   LIG    1        4.035  -0.071  -2.601  0.00  0.00    +0.166 C 
ENDROOT
BRANCH   1   3
ATOM      2  C   LIG    1        1.952  -0.085  -1.337  0.00  0.00    +0.401 C 
ATOM      3  N   LIG    1        2.641  -0.485  -2.424  0.00  0.00    -0.269 N 
ATOM      4  H   LIG    1        2.213  -1.047  -3.089  0.00  0.00    +0.153 HD
ATOM      5  O   LIG    1        2.488   0.619  -0.503  0.00  0.00    -0.226 OA
BRANCH   2   6
ATOM      6  O   LIG    1        0.671  -0.465  -1.174  0.00  0.00    -0.445 OA
BRANCH   6   8
ATOM      7  C   LIG    1       -0.019   1.526   0.010  0.00  0.00    +0.055 C 
ATOM      8  C   LIG    1        0.002  -0.004   0.002  0.00  0.00    +0.107 C 
ATOM      9  C   LIG    1       -1.433  -0.534   0.013  0.00  0.00    +0.055 C 
ATOM     10  C   LIG    1        0.742  -0.511   1.242  0.00  0.00    +0.055 C 
ENDBRANCH   6   8
ENDBRANCH   2   6
ENDBRANCH   1   3
BRANCH   1  11
ATOM     11  C   LIG    1        4.077   1.287  -3.253  0.00  0.00    +0.235 C 
ATOM     12  N   LIG    1        5.262   1.872  -3.516  0.00  0.00    -0.301 N 
ATOM     13  H   LIG    1        6.088   1.419  -3.285  0.00  0.00    +0.150 HD
ATOM     14  O   LIG    1        3.044   1.854  -3.541  0.00  0.00    -0.274 OA
BRANCH  12  15
ATOM     15  C   LIG    1        5.303   3.192  -4.149  0.00  0.00    +0.223 C 
BRANCH  15  16
ATOM     16  C   LIG    1        6.704   3.608  -4.327  0.00  0.00    +0.081 C 
ATOM     17  N   LIG    1        7.785   3.928  -4.465  0.00  0.00    -0.195 NA
ENDBRANCH  15  16
ENDBRANCH  12  15
ENDBRANCH   1  11
BRANCH   1  18
ATOM     18  C   LIG    1        4.759  -1.086  -3.489  0.00  0.00    +0.067 C 
BRANCH  18  19
ATOM     19  C   LIG    1        4.824  -2.415  -2.783  0.00  0.00    -0.045 A 
ATOM     20  C   LIG    1        5.896  -2.709  -1.961  0.00  0.00    +0.004 A 
ATOM     21  C   LIG    1        5.956  -3.929  -1.313  0.00  0.00    +0.000 A 
ATOM     22  C   LIG    1        4.944  -4.854  -1.487  0.00  0.00    +0.000 A 
ATOM     23  C   LIG    1        3.871  -4.560  -2.308  0.00  0.00    +0.000 A 
ATOM     24  C   LIG    1        3.809  -3.338  -2.952  0.00  0.00    +0.004 A 
ENDBRANCH  18  19
ENDBRANCH   1  18
TORSDOF 8
