REMARK  Name = ZINC13742902
REMARK                            x       y       z     vdW  Elec       q    Type
REMARK                         _______ _______ _______ _____ _____    ______ ____
ROOT
ATOM      1  C   LIG    1       -0.019   1.526   0.010  0.00  0.00    +0.006 C 
ATOM      2  C   LIG    1        0.002  -0.004   0.002  0.00  0.00    -0.023 C 
ENDROOT
BRANCH   2   3
ATOM      3  C   LIG    1        0.742  -0.511   1.242  0.00  0.00    +0.095 C 
BRANCH   3   4
ATOM      4  P   LIG    1       -0.324  -0.317   2.708  0.00  0.00    +0.191 P 
ATOM      5  O   LIG    1       -1.567  -1.098   2.521  0.00  0.00    -0.294 OA
ATOM      6  H   LIG    1       -0.723   0.682   2.938  0.00  0.00    +0.128 HD
BRANCH   4   7
ATOM      7  O   LIG    1        0.455  -0.850   4.012  0.00  0.00    -0.346 OA
ATOM      8  H   LIG    1        1.269  -0.338   4.134  0.00  0.00    +0.217 HD
ENDBRANCH   4   7
ENDBRANCH   3   4
ENDBRANCH   2   3
BRANCH   2   9
ATOM      9  C   LIG    1        0.718  -0.497  -1.257  0.00  0.00    -0.083 C 
BRANCH   9  10
ATOM     10  N   LIG    1       -0.057  -0.113  -2.444  0.00  0.00    +0.378 N 
ATOM     11  H   LIG    1       -1.058  -0.565  -2.390  0.00  0.00    -0.090 HD
ATOM     12  H   LIG    1       -0.151   0.983  -2.481  0.00  0.00    -0.090 HD
ATOM     13  H   LIG    1        0.458  -0.468  -3.349  0.00  0.00    -0.090 HD
ENDBRANCH   9  10
ENDBRANCH   2   9
TORSDOF 5
