REMARK  Name = ZINC13671868
REMARK                            x       y       z     vdW  Elec       q    Type
REMARK                         _______ _______ _______ _____ _____    ______ ____
ROOT
ATOM      1  C   LIG    1        2.452   3.933  -0.002  0.00  0.00    +0.044 C 
ATOM      2  C   LIG    1        1.155   3.167   0.008  0.00  0.00    -0.050 A 
ATOM      3  C   LIG    1        1.172   1.783   0.000  0.00  0.00    +0.004 A 
ATOM      4  C   LIG    1       -0.013   1.076   0.008  0.00  0.00    +0.010 A 
ATOM      5  C   LIG    1       -1.229   1.758   0.017  0.00  0.00    +0.004 A 
ATOM      6  C   LIG    1       -1.240   3.153   0.031  0.00  0.00    +0.010 A 
ATOM      7  C   LIG    1       -0.048   3.849   0.023  0.00  0.00    +0.004 A 
ENDROOT
BRANCH   5   8
ATOM      8  C   LIG    1       -2.503   1.005   0.019  0.00  0.00    +0.112 A 
ATOM      9  N   LIG    1       -2.659  -0.352   0.007  0.00  0.00    -0.155 NA
ATOM     10  N   LIG    1       -3.921  -0.608   0.017  0.00  0.00    -0.196 N 
ATOM     11  H   LIG    1       -4.316  -1.527   0.012  0.00  0.00    +0.213 HD
ATOM     12  N   LIG    1       -4.602   0.481   0.036  0.00  0.00    -0.163 NA
ATOM     13  C   LIG    1       -3.768   1.524   0.034  0.00  0.00    +0.164 A 
ENDBRANCH   5   8
TORSDOF 1
