REMARK  Name = ZINC13612582
REMARK                            x       y       z     vdW  Elec       q    Type
REMARK                         _______ _______ _______ _____ _____    ______ ____
ROOT
ATOM      1  C   LIG    1        2.479   1.074  -0.015  0.00  0.00    +0.023 A 
ATOM      2  C   LIG    1        2.879   0.275   1.075  0.00  0.00    +0.100 A 
ATOM      3  C   LIG    1        4.116  -0.393   1.013  0.00  0.00    +0.136 A 
ATOM      4  N   LIG    1        4.904  -0.270  -0.043  0.00  0.00    -0.224 NA
ATOM      5  C   LIG    1        4.571   0.474  -1.088  0.00  0.00    +0.117 A 
ATOM      6  C   LIG    1        3.350   1.174  -1.118  0.00  0.00    +0.093 A 
ENDROOT
BRANCH   1  12
ATOM      7  C   LIG    1       -0.013   1.076   0.008  0.00  0.00    +0.009 A 
ATOM      8  C   LIG    1       -1.216   1.751   0.017  0.00  0.00    +0.013 A 
ATOM      9  C   LIG    1       -1.236   3.134   0.031  0.00  0.00    +0.055 A 
ATOM     10  C   LIG    1       -0.052   3.850   0.023  0.00  0.00    +0.013 A 
ATOM     11  C   LIG    1        1.158   3.187   0.008  0.00  0.00    +0.009 A 
ATOM     12  C   LIG    1        1.185   1.791   0.000  0.00  0.00    -0.015 A 
BRANCH   9  13
ATOM     13  C   LIG    1       -2.554   3.865   0.047  0.00  0.00    +0.417 C 
ATOM     14  F   LIG    1       -2.402   5.087   0.712  0.00  0.00    -0.166 F 
ATOM     15  F   LIG    1       -3.510   3.089   0.712  0.00  0.00    -0.166 F 
ATOM     16  F   LIG    1       -2.974   4.098  -1.266  0.00  0.00    -0.166 F 
ENDBRANCH   9  13
ENDBRANCH   1  12
BRANCH   3  17
ATOM     17  N   LIG    1        4.516  -1.182   2.072  0.00  0.00    -0.342 N 
ATOM     18  H   LIG    1        3.870  -1.286   2.956  0.00  0.00    +0.144 HD
ATOM     19  H   LIG    1        5.482  -1.708   2.033  0.00  0.00    +0.144 HD
ENDBRANCH   3  17
BRANCH   2  20
ATOM     20  C   LIG    1        2.036   0.141   2.225  0.00  0.00    +0.103 C 
ATOM     21  N   LIG    1        1.368   0.034   3.137  0.00  0.00    -0.191 NA
ENDBRANCH   2  20
BRANCH   6  22
ATOM     22  C   LIG    1        2.999   1.976  -2.251  0.00  0.00    +0.102 C 
ATOM     23  N   LIG    1        2.721   2.612  -3.151  0.00  0.00    -0.191 NA
ENDBRANCH   6  22
BRANCH   5  24
ATOM     24  S   LIG    1        5.673   0.588  -2.458  0.00  0.00    -0.102 S 
BRANCH  24  25
ATOM     25  C   LIG    1        7.014  -0.476  -1.873  0.00  0.00    +0.103 C 
BRANCH  25  26
ATOM     26  C   LIG    1        8.119  -0.532  -2.930  0.00  0.00    +0.167 C 
BRANCH  26  27
ATOM     27  O   LIG    1        9.179  -1.372  -2.468  0.00  0.00    -0.394 OA
ATOM     28  H   LIG    1       10.066  -1.534  -3.097  0.00  0.00    +0.209 HD
ENDBRANCH  26  27
ENDBRANCH  25  26
ENDBRANCH  24  25
ENDBRANCH   5  24
TORSDOF 9
