REMARK  Name = ZINC13611482
REMARK                            x       y       z     vdW  Elec       q    Type
REMARK                         _______ _______ _______ _____ _____    ______ ____
ROOT
ATOM      1  O   LIG    1       -4.578   1.421  -0.955  0.00  0.00    -0.492 OA
ENDROOT
BRANCH   1   2
ATOM      2  C   LIG    1       -5.619   0.770  -1.537  0.00  0.00    +0.140 A 
ATOM      3  C   LIG    1       -6.925   1.054  -1.159  0.00  0.00    +0.065 A 
ATOM      4  C   LIG    1       -7.962   0.357  -1.788  0.00  0.00    +0.046 A 
ATOM      5  C   LIG    1       -7.646  -0.588  -2.764  0.00  0.00    +0.127 A 
ATOM      6  N   LIG    1       -6.392  -0.823  -3.091  0.00  0.00    -0.258 NA
ATOM      7  C   LIG    1       -5.391  -0.181  -2.521  0.00  0.00    +0.156 A 
BRANCH   4   8
ATOM      8  C   LIG    1       -9.327   0.610  -1.435  0.00  0.00    -0.068 C 
ATOM      9  C   LIG    1      -10.445   0.818  -1.146  0.00  0.00    +0.009 C 
ENDBRANCH   4   8
ENDBRANCH   1   2
BRANCH   1  10
ATOM     10  C   LIG    1       -3.265   1.073  -1.399  0.00  0.00    +0.214 C 
BRANCH  10  14
ATOM     11  C   LIG    1       -3.088   2.384   1.587  0.00  0.00    -0.096 C 
ATOM     12  N   LIG    1       -2.194   1.501   0.776  0.00  0.00    +0.382 N 
ATOM     13  H   LIG    1       -2.508   0.528   0.868  0.00  0.00    -0.082 HD
ATOM     14  C   LIG    1       -2.231   1.904  -0.635  0.00  0.00    -0.031 C 
ATOM     15  C   LIG    1       -0.822   1.629  -1.192  0.00  0.00    -0.014 C 
ATOM     16  C   LIG    1       -0.013   1.086   0.008  0.00  0.00    -0.020 C 
ATOM     17  C   LIG    1       -0.801   1.617   1.232  0.00  0.00    -0.079 C 
ENDBRANCH  10  14
ENDBRANCH   1  10
TORSDOF 4
