REMARK  Name = ZINC13732769
REMARK                            x       y       z     vdW  Elec       q    Type
REMARK                         _______ _______ _______ _____ _____    ______ ____
ROOT
ATOM      1  C   LIG    1       -7.863   4.451  -5.775  0.00  0.00    +0.138 C 
ATOM      2  N   LIG    1       -7.480   5.266  -4.619  0.00  0.00    -0.271 N 
ATOM      3  C   LIG    1       -8.336   6.292  -4.249  0.00  0.00    +0.045 A 
ATOM      4  C   LIG    1       -9.707   6.034  -4.301  0.00  0.00    +0.024 A 
ATOM      5  C   LIG    1      -10.618   7.006  -3.955  0.00  0.00    +0.002 A 
ATOM      6  C   LIG    1      -10.181   8.256  -3.549  0.00  0.00    +0.001 A 
ATOM      7  C   LIG    1       -8.834   8.528  -3.490  0.00  0.00    +0.012 A 
ATOM      8  C   LIG    1       -7.892   7.548  -3.839  0.00  0.00    +0.022 A 
ATOM      9  C   LIG    1       -6.468   7.907  -3.751  0.00  0.00    +0.077 C 
ATOM     10  N   LIG    1       -5.540   7.133  -3.311  0.00  0.00    -0.251 NA
ATOM     11  C   LIG    1       -5.823   5.774  -2.849  0.00  0.00    +0.280 C 
ATOM     12  C   LIG    1       -6.339   4.962  -4.005  0.00  0.00    +0.262 C 
ATOM     13  O   LIG    1       -5.698   4.006  -4.388  0.00  0.00    -0.271 OA
ENDROOT
BRANCH   9  14
ATOM     14  C   LIG    1       -6.074   9.261  -4.202  0.00  0.00    +0.001 A 
ATOM     15  C   LIG    1       -6.868   9.954  -5.116  0.00  0.00    +0.010 A 
ATOM     16  C   LIG    1       -6.497  11.217  -5.530  0.00  0.00    +0.001 A 
ATOM     17  C   LIG    1       -5.336  11.793  -5.046  0.00  0.00    +0.000 A 
ATOM     18  C   LIG    1       -4.542  11.110  -4.143  0.00  0.00    +0.001 A 
ATOM     19  C   LIG    1       -4.904   9.848  -3.719  0.00  0.00    +0.010 A 
ENDBRANCH   9  14
BRANCH  11  20
ATOM     20  N   LIG    1       -4.594   5.166  -2.332  0.00  0.00    -0.270 N 
ATOM     21  H   LIG    1       -3.907   4.864  -2.946  0.00  0.00    +0.153 HD
ATOM     22  C   LIG    1       -4.418   5.028  -1.003  0.00  0.00    +0.302 C 
ATOM     23  N   LIG    1       -3.288   4.468  -0.527  0.00  0.00    -0.295 N 
ATOM     24  H   LIG    1       -2.601   4.166  -1.142  0.00  0.00    +0.151 HD
ATOM     25  O   LIG    1       -5.279   5.407  -0.233  0.00  0.00    -0.253 OA
BRANCH  23  26
ATOM     26  C   LIG    1       -3.097   4.318   0.917  0.00  0.00    +0.141 C 
BRANCH  26  27
ATOM     27  C   LIG    1       -1.762   3.670   1.183  0.00  0.00    -0.030 A 
ATOM     28  C   LIG    1       -1.665   2.293   1.256  0.00  0.00    +0.005 A 
ATOM     29  C   LIG    1       -0.442   1.699   1.503  0.00  0.00    +0.000 A 
ATOM     30  C   LIG    1        0.686   2.481   1.669  0.00  0.00    +0.000 A 
ATOM     31  C   LIG    1        0.589   3.858   1.592  0.00  0.00    +0.000 A 
ATOM     32  C   LIG    1       -0.635   4.452   1.349  0.00  0.00    +0.005 A 
ENDBRANCH  26  27
ENDBRANCH  23  26
ENDBRANCH  11  20
TORSDOF 4
