REMARK  Name = ZINC13684548
REMARK                            x       y       z     vdW  Elec       q    Type
REMARK                         _______ _______ _______ _____ _____    ______ ____
ROOT
ATOM      1  C   LIG    1       -1.222   1.748   0.017  0.00  0.00    +0.000 A 
ATOM      2  C   LIG    1       -0.013   1.076   0.008  0.00  0.00    +0.001 A 
ATOM      3  C   LIG    1        1.174   1.778   0.000  0.00  0.00    +0.008 A 
ATOM      4  C   LIG    1        1.157   3.176   0.008  0.00  0.00    -0.020 A 
ATOM      5  C   LIG    1       -0.071   3.842   0.022  0.00  0.00    -0.034 A 
ATOM      6  C   LIG    1        0.244   5.318   0.028  0.00  0.00    +0.089 C 
ATOM      7  C   LIG    1        1.752   5.409   0.014  0.00  0.00    +0.029 C 
ATOM      8  C   LIG    1        2.242   4.171   0.003  0.00  0.00    +0.030 C 
ATOM      9  C   LIG    1       -1.249   3.132   0.029  0.00  0.00    +0.004 A 
ENDROOT
BRANCH   7  10
ATOM     10  N   LIG    1        2.499   6.583   0.013  0.00  0.00    -0.309 N 
ATOM     11  C   LIG    1        3.336   7.018   1.010  0.00  0.00    +0.112 A 
ATOM     12  C   LIG    1        3.856   8.190   0.598  0.00  0.00    +0.130 A 
ATOM     13  N   LIG    1        3.348   8.472  -0.612  0.00  0.00    -0.244 NA
ATOM     14  C   LIG    1        2.534   7.518  -0.973  0.00  0.00    +0.203 A 
ENDBRANCH   7  10
TORSDOF 1
