REMARK  Name = ZINC13603651
REMARK                            x       y       z     vdW  Elec       q    Type
REMARK                         _______ _______ _______ _____ _____    ______ ____
ROOT
ATOM      1  C   LIG    1        1.154   3.183   0.008  0.00  0.00    +0.025 A 
ATOM      2  C   LIG    1       -0.039   3.869   0.022  0.00  0.00    +0.028 A 
ATOM      3  C   LIG    1       -1.243   3.170   0.030  0.00  0.00    +0.051 A 
ATOM      4  C   LIG    1       -1.227   1.762   0.017  0.00  0.00    +0.047 A 
ATOM      5  C   LIG    1       -2.511   1.042   0.031  0.00  0.00    +0.190 A 
ATOM      6  C   LIG    1       -3.704   1.812   0.047  0.00  0.00    +0.084 A 
ATOM      7  CA  LIG    1       -3.636   3.167   0.053  0.00  0.00    +0.128 A 
ATOM      8  O   LIG    1       -2.549  -0.177   0.025  0.00  0.00    -0.287 OA
ATOM      9  C   LIG    1       -0.013   1.076   0.008  0.00  0.00    +0.036 A 
ATOM     10  N   LIG    1       -2.447   3.836   0.045  0.00  0.00    -0.349 N 
ATOM     11  H   LIG    1       -2.450   4.806   0.050  0.00  0.00    +0.166 HD
ATOM     12  C   LIG    1        1.173   1.788   0.001  0.00  0.00    +0.025 A 
ENDROOT
BRANCH  12  13
ATOM     13  N   LIG    1        2.394   1.108  -0.014  0.00  0.00    -0.358 N 
ATOM     14  H   LIG    1        3.226   1.606  -0.020  0.00  0.00    +0.142 HD
ATOM     15  H   LIG    1        2.409   0.138  -0.019  0.00  0.00    +0.142 HD
ENDBRANCH  12  13
BRANCH   7  16
ATOM     16  C   LIG    1       -4.896   3.947   0.070  0.00  0.00    +0.353 C 
ATOM     17  O   LIG    1       -5.965   3.373   0.078  0.00  0.00    -0.243 OA
BRANCH  16  18
ATOM     18  OXT LIG    1       -4.854   5.294   0.076  0.00  0.00    -0.476 OA
ATOM     19  HXT LIG    1       -4.029   5.737   0.070  0.00  0.00    +0.295 HD
ENDBRANCH  16  18
ENDBRANCH   7  16
TORSDOF 3
