REMARK  Name = ZINC13737686
REMARK                            x       y       z     vdW  Elec       q    Type
REMARK                         _______ _______ _______ _____ _____    ______ ____
ROOT
ATOM      1  C   UNK A  0       -0.017   1.385   0.010  0.00  0.00    +0.022 A 
ATOM      2  C   UNK A  0        1.207   2.001   0.001  0.00  0.00    +0.031 A 
ATOM      3  C   UNK A  0        2.340   1.218  -0.014  0.00  0.00    +0.066 A 
ATOM      4  S   UNK A  0        1.750  -0.355  -0.017  0.00  0.00    -0.069 S 
ATOM      5  C   UNK A  0        0.002  -0.004   0.002  0.00  0.00    +0.076 A 
ENDROOT
BRANCH   5   6
ATOM      6  C   UNK A  0       -1.088  -0.909   0.008  0.00  0.00    +0.251 C 
ATOM      7  N   GLU A  1       -0.861  -2.238  -0.001  0.00  0.00    -0.298 N 
ATOM      8  H   GLU A  1        0.049  -2.574  -0.012  0.00  0.00    +0.150 HD
ATOM      9  O   UNK A  0       -2.230  -0.487   0.022  0.00  0.00    -0.270 OA
BRANCH   7  10
ATOM     10  CA  GLU A  1       -1.988  -3.174   0.005  0.00  0.00    +0.182 C 
BRANCH  10  11
ATOM     11  C   GLU A  1       -2.439  -3.407   1.424  0.00  0.00    +0.325 C 
ATOM     12  O   GLU A  1       -1.871  -2.844   2.345  0.00  0.00    -0.249 OA
BRANCH  11  13
ATOM     13  OXT GLU A  1       -3.371  -4.160   1.651  0.00  0.00    -0.479 OA
ATOM     14  HXT GLU A  1       -3.807  -4.593   0.944  0.00  0.00    +0.295 HD
ENDBRANCH  11  13
ENDBRANCH  10  11
BRANCH  10  15
ATOM     15  CB  GLU A  1       -1.551  -4.502  -0.616  0.00  0.00    +0.045 C 
BRANCH  15  16
ATOM     16  CG  GLU A  1       -1.211  -4.288  -2.092  0.00  0.00    +0.123 C 
BRANCH  16  17
ATOM     17  CD  GLU A  1       -0.781  -5.596  -2.704  0.00  0.00    +0.305 C 
ATOM     18  OE1 GLU A  1       -0.749  -6.606  -2.023  0.00  0.00    -0.251 OA
BRANCH  17  19
ATOM     19  OE2 GLU A  1       -0.465  -5.644  -3.881  0.00  0.00    -0.481 OA
ATOM     20  HE2 GLU A  1       -0.490  -4.867  -4.405  0.00  0.00    +0.295 HD
ENDBRANCH  17  19
ENDBRANCH  16  17
ENDBRANCH  15  16
ENDBRANCH  10  15
ENDBRANCH   7  10
ENDBRANCH   5   6
BRANCH   3  21
ATOM     21  N   UNK A  0        3.662   1.632  -0.025  0.00  0.00    -0.338 N 
ATOM     22  H   UNK A  0        3.873   2.579  -0.022  0.00  0.00    +0.147 HD
BRANCH  21  23
ATOM     23  C   UNK A  0        4.740   0.641  -0.040  0.00  0.00    +0.102 C 
BRANCH  23  24
ATOM     24  C   UNK A  0        6.091   1.357  -0.050  0.00  0.00    +0.023 C 
BRANCH  24  25
ATOM     25  C   UNK A  0        7.218   0.322  -0.066  0.00  0.00    +0.045 C 
BRANCH  25  26
ATOM     26  C   UNK A  0        8.549   1.028  -0.075  0.00  0.00    +0.056 A 
ATOM     27  C   UNK A  0        9.237   1.256   1.108  0.00  0.00    +0.128 A 
ATOM     28  N   UNK A  0       10.418   1.884   1.079  0.00  0.00    -0.201 NA
ATOM     29  C   UNK A  0       10.944   2.292  -0.057  0.00  0.00    +0.195 A 
ATOM     30  N   UNK A  0       10.309   2.093  -1.244  0.00  0.00    -0.295 N 
ATOM     31  H   UNK A  0       10.716   2.403  -2.068  0.00  0.00    +0.172 HD
ATOM     32  C   UNK A  0        9.118   1.460  -1.277  0.00  0.00    +0.258 A 
ATOM     33  O   UNK A  0        8.544   1.273  -2.339  0.00  0.00    -0.267 OA
BRANCH  27  34
ATOM     34  N   UNK A  0        8.705   0.837   2.311  0.00  0.00    -0.343 N 
ATOM     35  H   UNK A  0        9.187   0.997   3.137  0.00  0.00    +0.144 HD
ATOM     36  H   UNK A  0        7.848   0.382   2.330  0.00  0.00    +0.144 HD
ENDBRANCH  27  34
BRANCH  29  37
ATOM     37  N   UNK A  0       12.155   2.931  -0.043  0.00  0.00    -0.329 N 
ATOM     38  H   UNK A  0       12.552   3.236  -0.874  0.00  0.00    +0.145 HD
ATOM     39  H   UNK A  0       12.617   3.078   0.797  0.00  0.00    +0.145 HD
ENDBRANCH  29  37
ENDBRANCH  25  26
ENDBRANCH  24  25
ENDBRANCH  23  24
ENDBRANCH  21  23
ENDBRANCH   3  21
TORSDOF 15
