REMARK  Name = ZINC13704017
REMARK                            x       y       z     vdW  Elec       q    Type
REMARK                         _______ _______ _______ _____ _____    ______ ____
ROOT
ATOM      1  N   LIG    1        2.406   1.101  -0.015  0.00  0.00    -0.329 N 
ATOM      2  C   LIG    1        3.658   1.842  -0.029  0.00  0.00    +0.103 C 
ATOM      3  C   LIG    1        4.596   1.167  -1.037  0.00  0.00    -0.000 C 
ATOM      4  C   LIG    1        4.165   1.541  -2.453  0.00  0.00    -0.081 C 
ATOM      5  N   LIG    1        2.912   0.830  -2.833  0.00  0.00    +0.379 N 
ATOM      6  H   LIG    1        2.117   1.272  -2.354  0.00  0.00    -0.086 HD
ATOM      7  H   LIG    1        2.781   0.899  -3.849  0.00  0.00    -0.086 HD
ATOM      8  C   LIG    1        2.972  -0.595  -2.450  0.00  0.00    -0.081 C 
ATOM      9  C   LIG    1        1.917  -0.869  -1.363  0.00  0.00    -0.000 C 
ATOM     10  C   LIG    1        2.439  -0.366  -0.024  0.00  0.00    +0.103 C 
ENDROOT
BRANCH   1  13
ATOM     11  C   LIG    1       -0.085   3.799   0.023  0.00  0.00    +0.021 A 
ATOM     12  C   LIG    1        1.150   3.172   0.008  0.00  0.00    +0.026 A 
ATOM     13  C   LIG    1        1.185   1.780   0.000  0.00  0.00    +0.048 A 
ATOM     14  C   LIG    1       -0.013   1.076   0.008  0.00  0.00    +0.133 A 
ATOM     15  N   LIG    1       -1.166   1.713   0.017  0.00  0.00    -0.261 NA
ATOM     16  C   LIG    1       -1.233   3.030   0.030  0.00  0.00    +0.111 A 
ENDBRANCH   1  13
TORSDOF 1
