REMARK  Name = ZINC13741567
REMARK                            x       y       z     vdW  Elec       q    Type
REMARK                         _______ _______ _______ _____ _____    ______ ____
ROOT
ATOM      1  C   LIG    1       -2.553   3.867   0.046  0.00  0.00    +0.044 C 
ATOM      2  C   LIG    1       -1.237   3.133   0.030  0.00  0.00    -0.050 A 
ATOM      3  C   LIG    1       -1.218   1.751   0.017  0.00  0.00    +0.007 A 
ATOM      4  C   LIG    1       -0.013   1.076   0.008  0.00  0.00    +0.046 A 
ATOM      5  C   LIG    1        1.179   1.786   0.000  0.00  0.00    +0.123 A 
ATOM      6  C   LIG    1        1.157   3.173   0.008  0.00  0.00    -0.004 A 
ATOM      7  C   LIG    1       -0.051   3.844   0.022  0.00  0.00    +0.010 A 
ENDROOT
BRANCH   5   8
ATOM      8  O   LIG    1        2.366   1.125  -0.015  0.00  0.00    -0.495 OA
ATOM      9  C   LIG    1        2.313  -0.303  -0.022  0.00  0.00    +0.277 C 
ENDBRANCH   5   8
BRANCH   6  10
ATOM     10  C   LIG    1        2.449   3.948  -0.001  0.00  0.00    +0.057 C 
BRANCH  10  11
ATOM     11  C   LIG    1        2.938   4.110  -1.442  0.00  0.00    +0.109 C 
BRANCH  11  12
ATOM     12  N   LIG    1        4.194   4.863  -1.451  0.00  0.00    -0.315 N 
ATOM     13  H   LIG    1        4.580   5.171  -0.616  0.00  0.00    +0.149 HD
ATOM     14  C   LIG    1        4.813   5.128  -2.618  0.00  0.00    +0.210 C 
ATOM     15  C   LIG    1        6.105   5.903  -2.627  0.00  0.00    +0.109 C 
ATOM     16  O   LIG    1        4.330   4.743  -3.662  0.00  0.00    -0.276 OA
ENDBRANCH  11  12
ENDBRANCH  10  11
ENDBRANCH   6  10
TORSDOF 4
