REMARK  Name = ZINC13607321
REMARK                            x       y       z     vdW  Elec       q    Type
REMARK                         _______ _______ _______ _____ _____    ______ ____
ROOT
ATOM      1  C   LIG    1        2.365   5.891   0.100  0.00  0.00    +0.008 C 
ATOM      2  C   LIG    1        3.454   6.467   0.633  0.00  0.00    +0.008 C 
ENDROOT
BRANCH   2   3
ATOM      3  C   LIG    1        3.322   7.710   1.414  0.00  0.00    -0.022 A 
ATOM      4  C   LIG    1        2.207   7.910   2.232  0.00  0.00    +0.028 A 
ATOM      5  C   LIG    1        2.090   9.077   2.960  0.00  0.00    +0.043 A 
ATOM      6 CL   LIG    1        0.706   9.327   3.978  0.00  0.00    -0.083 Cl
ATOM      7  C   LIG    1        3.076  10.046   2.884  0.00  0.00    +0.040 A 
ATOM      8  C   LIG    1        4.181   9.857   2.071  0.00  0.00    +0.043 A 
ATOM      9 CL   LIG    1        5.408  11.081   1.978  0.00  0.00    -0.083 Cl
ATOM     10  C   LIG    1        4.311   8.695   1.338  0.00  0.00    +0.028 A 
ENDBRANCH   2   3
BRANCH   1  14
ATOM     11  C   LIG    1       -1.354   7.937   0.136  0.00  0.00    +0.120 A 
ATOM     12  C   LIG    1       -0.177   8.643  -0.079  0.00  0.00    +0.046 A 
ATOM     13  C   LIG    1        1.033   7.983  -0.091  0.00  0.00    +0.011 A 
ATOM     14  C   LIG    1        1.074   6.601   0.113  0.00  0.00    -0.025 A 
ATOM     15  C   LIG    1       -0.113   5.894   0.323  0.00  0.00    +0.011 A 
ATOM     16  C   LIG    1       -1.317   6.563   0.339  0.00  0.00    +0.046 A 
BRANCH  11  18
ATOM     17  C   LIG    1       -3.715   7.805   0.373  0.00  0.00    +0.277 C 
ATOM     18  O   LIG    1       -2.544   8.592   0.147  0.00  0.00    -0.495 OA
ENDBRANCH  11  18
ENDBRANCH   1  14
TORSDOF 3
