REMARK  Name = ZINC13739903
REMARK                            x       y       z     vdW  Elec       q    Type
REMARK                         _______ _______ _______ _____ _____    ______ ____
ROOT
ATOM      1  C   LIG    1        0.002  -0.004   0.002  0.00  0.00    +0.115 C 
ATOM      2  C   LIG    1        0.879  -0.526   1.110  0.00  0.00    -0.019 A 
ATOM      3  C   LIG    1        0.740  -1.852   1.491  0.00  0.00    +0.052 A 
ATOM      4  C   LIG    1        1.526  -2.376   2.503  0.00  0.00    +0.135 A 
ATOM      5  C   LIG    1        2.461  -1.567   3.138  0.00  0.00    +0.083 A 
ATOM      6 CL   LIG    1        3.454  -2.214   4.405  0.00  0.00    -0.080 Cl
ATOM      7  C   LIG    1        2.597  -0.248   2.756  0.00  0.00    +0.027 A 
ATOM      8  C   LIG    1        1.806   0.275   1.743  0.00  0.00    -0.040 A 
ATOM      9  C   LIG    1        1.988   1.723   1.366  0.00  0.00    +0.050 C 
ATOM     10  C   LIG    1        1.356   1.990  -0.000  0.00  0.00    +0.086 C 
ATOM     11  N   LIG    1       -0.018   1.462   0.010  0.00  0.00    -0.305 NA
ATOM     12  H   LIG    1       -0.550   1.826  -0.881  0.00  0.00    +0.123 HD
ENDROOT
BRANCH   1  16
ATOM     13  C   LIG    1       -3.973  -1.471   0.543  0.00  0.00    +0.000 A 
ATOM     14  C   LIG    1       -3.123  -2.092  -0.353  0.00  0.00    +0.000 A 
ATOM     15  C   LIG    1       -1.837  -1.617  -0.528  0.00  0.00    +0.005 A 
ATOM     16  C   LIG    1       -1.400  -0.521   0.193  0.00  0.00    -0.026 A 
ATOM     17  C   LIG    1       -2.249   0.096   1.092  0.00  0.00    +0.005 A 
ATOM     18  C   LIG    1       -3.537  -0.376   1.264  0.00  0.00    +0.000 A 
ENDBRANCH   1  16
BRANCH   4  19
ATOM     19  O   LIG    1        1.385  -3.676   2.874  0.00  0.00    -0.505 OA
ATOM     20  H   LIG    1        2.012  -4.090   3.678  0.00  0.00    +0.292 HD
ENDBRANCH   4  19
TORSDOF 2
