REMARK  Name = ZINC13686588
REMARK                            x       y       z     vdW  Elec       q    Type
REMARK                         _______ _______ _______ _____ _____    ______ ____
ROOT
ATOM      1  C   LIG    1        0.823  -1.589  -0.435  0.00  0.00    +0.049 C 
ENDROOT
BRANCH   1   4
ATOM      2  C   LIG    1        1.294   1.805  -2.029  0.00  0.00    +0.001 A 
ATOM      3  C   LIG    1        1.551   0.616  -1.369  0.00  0.00    +0.004 A 
ATOM      4  C   LIG    1        0.533  -0.297  -1.154  0.00  0.00    -0.046 A 
ATOM      5  C   LIG    1       -0.745  -0.027  -1.595  0.00  0.00    +0.018 A 
ATOM      6  C   LIG    1       -1.012   1.171  -2.262  0.00  0.00    +0.059 A 
ATOM      7  C   LIG    1        0.020   2.087  -2.476  0.00  0.00    +0.015 A 
BRANCH   6   8
ATOM      8  C   LIG    1       -2.378   1.467  -2.737  0.00  0.00    +0.337 C 
ATOM      9  O   LIG    1       -3.274   0.668  -2.549  0.00  0.00    -0.245 OA
BRANCH   8  10
ATOM     10  O   LIG    1       -2.632   2.624  -3.380  0.00  0.00    -0.477 OA
ATOM     11  H   LIG    1       -1.941   3.240  -3.525  0.00  0.00    +0.295 HD
ENDBRANCH   8  10
ENDBRANCH   6   8
ENDBRANCH   1   4
BRANCH   1  12
ATOM     12  C   LIG    1        1.080  -2.696  -1.459  0.00  0.00    +0.102 C 
BRANCH  12  13
ATOM     13  C   LIG    1        2.345  -2.393  -2.220  0.00  0.00    +0.308 C 
ATOM     14  O   LIG    1        3.295  -1.914  -1.646  0.00  0.00    -0.251 OA
BRANCH  13  15
ATOM     15  O   LIG    1        2.417  -2.655  -3.534  0.00  0.00    -0.480 OA
ATOM     16  H   LIG    1        1.681  -3.026  -3.979  0.00  0.00    +0.295 HD
ENDBRANCH  13  15
ENDBRANCH  12  13
BRANCH  12  17
ATOM     17  C   LIG    1        1.229  -4.036  -0.736  0.00  0.00    +0.016 C 
BRANCH  17  18
ATOM     18  C   LIG    1        1.361  -5.160  -1.766  0.00  0.00    +0.011 C 
BRANCH  18  19
ATOM     19  C   LIG    1        1.510  -6.500  -1.042  0.00  0.00    +0.065 C 
BRANCH  19  20
ATOM     20  S   LIG    1        1.667  -7.832  -2.263  0.00  0.00    -0.178 S 
ATOM     21  H   LIG    1        1.790  -8.944  -1.517  0.00  0.00    +0.102 HD
ENDBRANCH  19  20
ENDBRANCH  18  19
ENDBRANCH  17  18
ENDBRANCH  12  17
ENDBRANCH   1  12
TORSDOF 10
