REMARK  Name = ZINC13650561
REMARK                            x       y       z     vdW  Elec       q    Type
REMARK                         _______ _______ _______ _____ _____    ______ ____
ROOT
ATOM      1  O   LIG    1       -1.511  -0.325  -2.356  0.00  0.00    -0.492 OA
ENDROOT
BRANCH   1   7
ATOM      2  C   LIG    1       -1.414  -0.521   0.013  0.00  0.00    -0.005 A 
ATOM      3  C   LIG    1       -2.005  -0.852   1.197  0.00  0.00    +0.022 A 
ATOM      4  C   LIG    1       -3.317  -1.345   1.213  0.00  0.00    +0.059 A 
ATOM      5  C   LIG    1       -4.019  -1.495   0.003  0.00  0.00    +0.131 A 
ATOM      6  C   LIG    1       -3.406  -1.154  -1.190  0.00  0.00    +0.092 A 
ATOM      7  C   LIG    1       -2.108  -0.663  -1.185  0.00  0.00    +0.127 A 
BRANCH   4   8
ATOM      8  C   LIG    1       -3.954  -1.702   2.483  0.00  0.00    +0.164 C 
ATOM      9  C   LIG    1       -3.160  -1.657   3.763  0.00  0.00    +0.092 C 
ATOM     10  O   LIG    1       -5.120  -2.035   2.504  0.00  0.00    -0.292 OA
ENDBRANCH   4   8
BRANCH   2  12
ATOM     11  C   LIG    1       -0.032   1.538   0.006  0.00  0.00    +0.009 C 
ATOM     12  C   LIG    1       -0.003   0.008   0.003  0.00  0.00    +0.035 C 
ENDBRANCH   2  12
BRANCH   5  13
ATOM     13  O   LIG    1       -5.289  -1.971   0.006  0.00  0.00    -0.506 OA
ATOM     14  H   LIG    1       -5.966  -1.285   0.084  0.00  0.00    +0.292 HD
ENDBRANCH   5  13
ENDBRANCH   1   7
BRANCH   1  15
ATOM     15  C   LIG    1       -2.278  -0.495  -3.549  0.00  0.00    +0.229 C 
BRANCH  15  16
ATOM     16  C   LIG    1       -1.445  -0.064  -4.757  0.00  0.00    +0.041 C 
BRANCH  16  17
ATOM     17  C   LIG    1       -2.267  -0.246  -6.035  0.00  0.00    +0.003 C 
BRANCH  17  18
ATOM     18  C   LIG    1       -1.433   0.184  -7.244  0.00  0.00    +0.001 C 
BRANCH  18  19
ATOM     19  C   LIG    1       -2.255   0.002  -8.521  0.00  0.00    +0.014 C 
BRANCH  19  20
ATOM     20  C   LIG    1       -1.421   0.433  -9.730  0.00  0.00    +0.026 C 
ATOM     21  C   LIG    1       -0.157  -0.426  -9.809  0.00  0.00    +0.019 C 
ATOM     22  C   LIG    1       -1.030   1.904  -9.581  0.00  0.00    +0.019 C 
BRANCH  20  23
ATOM     23  C   LIG    1       -2.231   0.253 -10.988  0.00  0.00    +0.154 A 
ATOM     24  N   LIG    1       -3.333  -0.444 -11.117  0.00  0.00    -0.113 NA
ATOM     25  N   LIG    1       -3.722  -0.351 -12.341  0.00  0.00    -0.023 NA
ATOM     26  N   LIG    1       -2.893   0.382 -12.999  0.00  0.00    -0.047 NA
ATOM     27  N   LIG    1       -1.959   0.773 -12.199  0.00  0.00    -0.242 N 
ATOM     28  H   LIG    1       -1.204   1.337 -12.428  0.00  0.00    +0.192 HD
ENDBRANCH  20  23
ENDBRANCH  19  20
ENDBRANCH  18  19
ENDBRANCH  17  18
ENDBRANCH  16  17
ENDBRANCH  15  16
ENDBRANCH   1  15
TORSDOF 11
