REMARK  Name = ZINC13580462
REMARK                            x       y       z     vdW  Elec       q    Type
REMARK                         _______ _______ _______ _____ _____    ______ ____
ROOT
ATOM      1  N   LIG    1        0.040  -3.262  -1.490  0.00  0.00    -0.265 N 
ATOM      2  H   LIG    1        0.054  -4.149  -1.098  0.00  0.00    +0.157 HD
ATOM      3  C   LIG    1        0.031  -3.118  -2.830  0.00  0.00    +0.249 C 
ATOM      4  O   LIG    1        0.013  -2.006  -3.322  0.00  0.00    -0.270 OA
ENDROOT
BRANCH   1   8
ATOM      5  C   LIG    1       -0.018   1.503   0.010  0.00  0.00    +0.065 C 
ATOM      6  C   LIG    1        0.002  -0.004   0.002  0.00  0.00    +0.035 A 
ATOM      7  C   LIG    1        0.008  -0.794  -1.095  0.00  0.00    +0.068 A 
ATOM      8  C   LIG    1        0.029  -2.130  -0.664  0.00  0.00    +0.147 A 
ATOM      9  N   LIG    1        0.035  -2.134   0.648  0.00  0.00    -0.158 NA
ATOM     10  N   LIG    1        0.024  -0.804   1.089  0.00  0.00    -0.280 N 
ATOM     11  H   LIG    1        0.028  -0.510   2.013  0.00  0.00    +0.189 HD
ENDBRANCH   1   8
BRANCH   3  12
ATOM     12  C   LIG    1        0.043  -4.311  -3.702  0.00  0.00    +0.037 A 
ATOM     13  C   LIG    1        0.058  -5.589  -3.140  0.00  0.00    +0.014 A 
ATOM     14  C   LIG    1        0.068  -6.699  -3.959  0.00  0.00    +0.016 A 
ATOM     15  C   LIG    1        0.064  -6.548  -5.335  0.00  0.00    +0.018 A 
ATOM     16 BR   LIG    1        0.078  -8.075  -6.450  0.00  0.00    -0.050 Br
ATOM     17  C   LIG    1        0.050  -5.282  -5.898  0.00  0.00    +0.016 A 
ATOM     18  C   LIG    1        0.033  -4.165  -5.090  0.00  0.00    +0.014 A 
ENDBRANCH   3  12
TORSDOF 2
