REMARK  Name = ZINC13681144
REMARK                            x       y       z     vdW  Elec       q    Type
REMARK                         _______ _______ _______ _____ _____    ______ ____
ROOT
ATOM      1  C   LIG    1        1.531  -1.815   0.025  0.00  0.00    +0.166 A 
ATOM      2  C   LIG    1        0.439  -2.677   0.026  0.00  0.00    +0.050 A 
ATOM      3  C   LIG    1        0.624  -4.029   0.007  0.00  0.00    +0.015 A 
ATOM      4  C   LIG    1        1.922  -4.557  -0.014  0.00  0.00    +0.023 A 
ATOM      5  C   LIG    1        2.135  -6.006  -0.034  0.00  0.00    +0.042 A 
ATOM      6  C   LIG    1        3.416  -6.471  -0.054  0.00  0.00    +0.120 A 
ATOM      7  C   LIG    1        4.520  -5.514  -0.053  0.00  0.00    +0.359 A 
ATOM      8  O   LIG    1        4.287  -4.192  -0.034  0.00  0.00    -0.417 OA
ATOM      9  O   LIG    1        5.668  -5.921  -0.070  0.00  0.00    -0.243 OA
ATOM     10  C   LIG    1        3.031  -3.694  -0.015  0.00  0.00    +0.184 A 
ATOM     11  C   LIG    1        2.825  -2.318  -0.001  0.00  0.00    +0.205 A 
ENDROOT
BRANCH   6  12
ATOM     12  N   LIG    1        3.670  -7.848  -0.074  0.00  0.00    -0.280 N 
ATOM     13  H   LIG    1        4.513  -8.191   0.264  0.00  0.00    +0.155 HD
ATOM     14  C   LIG    1        2.745  -8.697  -0.563  0.00  0.00    +0.214 C 
ATOM     15  C   LIG    1        2.964 -10.185  -0.470  0.00  0.00    +0.109 C 
ATOM     16  O   LIG    1        1.735  -8.264  -1.077  0.00  0.00    -0.276 OA
ENDBRANCH   6  12
BRANCH  11  17
ATOM     17  O   LIG    1        3.887  -1.468  -0.007  0.00  0.00    -0.488 OA
ATOM     18  C   LIG    1        4.414  -1.078   1.263  0.00  0.00    +0.277 C 
ENDBRANCH  11  17
BRANCH   1  19
ATOM     19  O   LIG    1        1.330  -0.471   0.045  0.00  0.00    -0.481 OA
BRANCH  19  20
ATOM     20  C   LIG    1       -0.025  -0.018   0.065  0.00  0.00    +0.303 C 
BRANCH  20  22
ATOM     21  C   LIG    1       -1.368   2.220   0.102  0.00  0.00    +0.089 C 
ATOM     22  C   LIG    1       -0.051   1.489   0.085  0.00  0.00    +0.167 C 
ATOM     23  O   LIG    1        0.985   2.111   0.082  0.00  0.00    -0.294 OA
ENDBRANCH  20  22
ENDBRANCH  19  20
ENDBRANCH   1  19
TORSDOF 5
