REMARK  Name = ZINC13737969
REMARK                            x       y       z     vdW  Elec       q    Type
REMARK                         _______ _______ _______ _____ _____    ______ ____
ROOT
ATOM      1  C   LIG    1        3.143  -1.485   0.782  0.00  0.00    -0.043 A 
ATOM      2  C   LIG    1        2.207  -1.925   1.701  0.00  0.00    +0.004 A 
ATOM      3  C   LIG    1        2.445  -3.066   2.440  0.00  0.00    +0.009 A 
ATOM      4  C   LIG    1        3.635  -3.770   2.267  0.00  0.00    -0.017 A 
ATOM      5  C   LIG    1        4.577  -3.319   1.343  0.00  0.00    +0.009 A 
ATOM      6  C   LIG    1        4.326  -2.179   0.606  0.00  0.00    +0.004 A 
ENDROOT
BRANCH   4   7
ATOM      7  C   LIG    1        3.900  -4.992   3.062  0.00  0.00    -0.007 A 
ATOM      8  C   LIG    1        4.311  -6.163   2.430  0.00  0.00    +0.009 A 
ATOM      9  C   LIG    1        4.556  -7.299   3.175  0.00  0.00    +0.001 A 
ATOM     10  C   LIG    1        4.395  -7.283   4.550  0.00  0.00    +0.001 A 
ATOM     11  C   LIG    1        3.988  -6.131   5.192  0.00  0.00    +0.012 A 
ATOM     12  C   LIG    1        3.742  -4.975   4.457  0.00  0.00    +0.028 A 
BRANCH  12  13
ATOM     13  C   LIG    1        3.310  -3.733   5.143  0.00  0.00    +0.180 A 
ATOM     14  N   LIG    1        3.122  -3.573   6.438  0.00  0.00    -0.108 NA
ATOM     15  N   LIG    1        2.752  -2.355   6.635  0.00  0.00    -0.023 NA
ATOM     16  N   LIG    1        2.698  -1.738   5.507  0.00  0.00    -0.046 NA
ATOM     17  N   LIG    1        3.040  -2.552   4.567  0.00  0.00    -0.239 N 
ATOM     18  H   LIG    1        3.093  -2.346   3.606  0.00  0.00    +0.192 HD
ENDBRANCH  12  13
ENDBRANCH   4   7
BRANCH   1  19
ATOM     19  C   LIG    1        2.874  -0.242  -0.026  0.00  0.00    +0.075 C 
BRANCH  19  21
ATOM     20  C   LIG    1        0.945  -0.640  -1.557  0.00  0.00    +0.050 A 
ATOM     21  C   LIG    1        2.293  -0.627  -1.362  0.00  0.00    +0.021 A 
ATOM     22  C   LIG    1        3.130  -0.982  -2.437  0.00  0.00    +0.143 A 
ATOM     23  N   LIG    1        4.442  -1.073  -2.589  0.00  0.00    -0.293 N 
ATOM     24  H   LIG    1        5.111  -0.840  -1.747  0.00  0.00    +0.172 HD
ATOM     25  C   LIG    1        4.722  -1.459  -3.830  0.00  0.00    +0.312 A 
ATOM     26  N   LIG    1        3.603  -1.625  -4.503  0.00  0.00    -0.108 NA
ATOM     27  N   LIG    1        2.550  -1.324  -3.630  0.00  0.00    -0.198 N 
ATOM     28  C   LIG    1        1.202  -1.314  -3.750  0.00  0.00    +0.130 A 
ATOM     29  C   LIG    1        0.571  -1.691  -5.066  0.00  0.00    +0.088 C 
ATOM     30  N   LIG    1        0.438  -0.988  -2.742  0.00  0.00    -0.237 NA
BRANCH  25  31
ATOM     31  O   LIG    1        5.971  -1.654  -4.327  0.00  0.00    -0.479 OA
ATOM     32  H   LIG    1        6.719  -1.514  -3.781  0.00  0.00    +0.295 HD
ENDBRANCH  25  31
BRANCH  20  33
ATOM     33  C   LIG    1        0.020  -0.265  -0.428  0.00  0.00    +0.055 C 
BRANCH  33  35
ATOM     34  C   LIG    1       -1.269   1.601   0.620  0.00  0.00    +0.004 C 
ATOM     35  C   LIG    1       -0.330   1.221  -0.527  0.00  0.00    +0.003 C 
ENDBRANCH  33  35
ENDBRANCH  20  33
ENDBRANCH  19  21
ENDBRANCH   1  19
TORSDOF 7
