REMARK  Name = ZINC13612573
REMARK                            x       y       z     vdW  Elec       q    Type
REMARK                         _______ _______ _______ _____ _____    ______ ____
ROOT
ATOM      1  C   LIG    1        1.172   3.568   0.010  0.00  0.00    +0.023 A 
ATOM      2  C   LIG    1        0.666   4.282   1.114  0.00  0.00    +0.100 A 
ATOM      3  C   LIG    1        0.675   5.689   1.077  0.00  0.00    +0.136 A 
ATOM      4  N   LIG    1        1.149   6.339   0.026  0.00  0.00    -0.224 NA
ATOM      5  C   LIG    1        1.634   5.709  -1.032  0.00  0.00    +0.117 A 
ATOM      6  C   LIG    1        1.671   4.303  -1.083  0.00  0.00    +0.093 A 
ENDROOT
BRANCH   1   9
ATOM      7  C   LIG    1        2.403   0.018  -0.022  0.00  0.00    +0.003 A 
ATOM      8  C   LIG    1        2.397   1.398  -0.014  0.00  0.00    +0.009 A 
ATOM      9  C   LIG    1        1.184   2.088   0.002  0.00  0.00    -0.013 A 
ATOM     10  C   LIG    1       -0.017   1.377   0.010  0.00  0.00    +0.047 A 
ATOM     11  C   LIG    1        0.002  -0.004   0.002  0.00  0.00    +0.124 A 
ATOM     12  F   LIG    1       -1.159  -0.695   0.009  0.00  0.00    -0.205 F 
ATOM     13  C   LIG    1        1.210  -0.682  -0.014  0.00  0.00    +0.038 A 
ENDBRANCH   1   9
BRANCH   3  14
ATOM     14  N   LIG    1        0.181   6.401   2.152  0.00  0.00    -0.342 N 
ATOM     15  H   LIG    1       -0.215   5.868   3.030  0.00  0.00    +0.144 HD
ATOM     16  H   LIG    1        0.185   7.501   2.132  0.00  0.00    +0.144 HD
ENDBRANCH   3  14
BRANCH   2  17
ATOM     17  C   LIG    1        0.150   3.588   2.256  0.00  0.00    +0.103 C 
ATOM     18  N   LIG    1       -0.258   3.037   3.161  0.00  0.00    -0.191 NA
ENDBRANCH   2  17
BRANCH   6  19
ATOM     19  C   LIG    1        2.203   3.630  -2.230  0.00  0.00    +0.102 C 
ATOM     20  N   LIG    1        2.625   3.096  -3.139  0.00  0.00    -0.191 NA
ENDBRANCH   6  19
BRANCH   5  21
ATOM     21  S   LIG    1        2.248   6.644  -2.394  0.00  0.00    -0.102 S 
BRANCH  21  22
ATOM     22  C   LIG    1        1.958   8.322  -1.780  0.00  0.00    +0.103 C 
BRANCH  22  23
ATOM     23  C   LIG    1        2.428   9.335  -2.825  0.00  0.00    +0.167 C 
BRANCH  23  24
ATOM     24  O   LIG    1        2.199  10.660  -2.340  0.00  0.00    -0.394 OA
ATOM     25  H   LIG    1        2.475  11.527  -2.957  0.00  0.00    +0.209 HD
ENDBRANCH  23  24
ENDBRANCH  22  23
ENDBRANCH  21  22
ENDBRANCH   5  21
TORSDOF 8
