REMARK  Name = ZINC13679499
REMARK                            x       y       z     vdW  Elec       q    Type
REMARK                         _______ _______ _______ _____ _____    ______ ____
ROOT
ATOM      1  C   LIG    1        1.599   5.186   0.015  0.00  0.00    +0.159 A 
ATOM      2  N   LIG    1        0.236   5.093   0.027  0.00  0.00    -0.334 N 
ATOM      3  C   LIG    1       -0.078   3.751   0.023  0.00  0.00    +0.104 A 
ATOM      4  C   LIG    1       -1.255   3.018   0.030  0.00  0.00    +0.141 A 
ATOM      5  N   LIG    1       -1.179   1.696   0.017  0.00  0.00    -0.242 NA
ATOM      6  C   LIG    1       -0.013   1.076   0.008  0.00  0.00    +0.223 A 
ATOM      7  N   LIG    1        1.131   1.724   0.001  0.00  0.00    -0.215 NA
ATOM      8  C   LIG    1        1.151   3.059   0.007  0.00  0.00    +0.181 A 
ATOM      9  H   LIG    1       -0.412   5.855   0.037  0.00  0.00    +0.168 HD
ATOM     10  N   LIG    1        2.126   3.983   0.003  0.00  0.00    -0.207 NA
ENDROOT
BRANCH   1  15
ATOM     11  C   LIG    1        4.464   7.607   0.000  0.00  0.00    +0.004 A 
ATOM     12  C   LIG    1        3.751   8.797   0.014  0.00  0.00    +0.020 A 
ATOM     13  C   LIG    1        2.368   8.759   0.028  0.00  0.00    +0.111 A 
ATOM     14  N   LIG    1        1.723   7.612   0.027  0.00  0.00    -0.252 NA
ATOM     15  C   LIG    1        2.367   6.451   0.014  0.00  0.00    +0.106 A 
ATOM     16  C   LIG    1        3.760   6.415   0.006  0.00  0.00    +0.031 A 
ENDBRANCH   1  15
TORSDOF 1
