REMARK  Name = ZINC13579788
REMARK                            x       y       z     vdW  Elec       q    Type
REMARK                         _______ _______ _______ _____ _____    ______ ____
ROOT
ATOM      1  C   LIG    1       -1.244  -2.135   0.003  0.00  0.00    +0.186 C 
ENDROOT
BRANCH   1   2
ATOM      2  N   LIG    1       -2.643  -2.570   0.013  0.00  0.00    -0.302 N 
ATOM      3  H   LIG    1       -3.092  -2.779  -0.820  0.00  0.00    +0.150 HD
ATOM      4  C   LIG    1       -3.306  -2.679   1.182  0.00  0.00    +0.214 C 
ATOM      5  O   LIG    1       -2.744  -2.417   2.224  0.00  0.00    -0.276 OA
BRANCH   4   6
ATOM      6  C   LIG    1       -4.745  -3.126   1.193  0.00  0.00    +0.102 C 
BRANCH   6   7
ATOM      7  C   LIG    1       -5.255  -3.165   2.635  0.00  0.00    +0.030 C 
ATOM      8  C   LIG    1       -6.749  -3.499   2.639  0.00  0.00    +0.010 C 
ATOM      9  C   LIG    1       -7.268  -3.506   4.079  0.00  0.00    +0.035 C 
ATOM     10  C   LIG    1       -6.529  -4.583   4.879  0.00  0.00    +0.187 C 
ATOM     11  N   LIG    1       -5.083  -4.353   4.760  0.00  0.00    -0.228 N 
ATOM     12  C   LIG    1       -4.493  -4.238   3.419  0.00  0.00    +0.191 C 
BRANCH  11  13
ATOM     13  C   LIG    1       -4.300  -4.246   5.876  0.00  0.00    +0.327 C 
ATOM     14  N   LIG    1       -4.783  -3.670   6.976  0.00  0.00    -0.295 N 
ATOM     15  H   LIG    1       -4.227  -3.594   7.767  0.00  0.00    +0.254 HD
ATOM     16  H   LIG    1       -5.689  -3.325   6.984  0.00  0.00    +0.254 HD
BRANCH  13  17
ATOM     17  N   LIG    1       -3.055  -4.719   5.864  0.00  0.00    -0.254 N 
ATOM     18  H   LIG    1       -2.499  -4.643   6.656  0.00  0.00    +0.241 HD
ATOM     19  H   LIG    1       -2.703  -5.139   5.063  0.00  0.00    +0.241 HD
ENDBRANCH  13  17
ENDBRANCH  11  13
ENDBRANCH   6   7
ENDBRANCH   4   6
ENDBRANCH   1   2
BRANCH   1  20
ATOM     20  C   LIG    1       -1.185  -0.630   0.010  0.00  0.00    +0.328 C 
ATOM     21  O   LIG    1       -2.208   0.015   0.023  0.00  0.00    -0.249 OA
BRANCH  20  23
ATOM     22  C   LIG    1       -0.017   1.425   0.010  0.00  0.00    +0.280 C 
ATOM     23  O   LIG    1        0.002  -0.004   0.002  0.00  0.00    -0.467 OA
ENDBRANCH  20  23
ENDBRANCH   1  20
BRANCH   1  24
ATOM     24  C   LIG    1       -0.555  -2.666  -1.256  0.00  0.00    +0.069 C 
BRANCH  24  25
ATOM     25  C   LIG    1       -0.505  -4.172  -1.204  0.00  0.00    -0.045 A 
ATOM     26  C   LIG    1        0.577  -4.804  -0.618  0.00  0.00    +0.005 A 
ATOM     27  C   LIG    1        0.630  -6.182  -0.567  0.00  0.00    +0.017 A 
ATOM     28  C   LIG    1       -0.412  -6.938  -1.109  0.00  0.00    +0.025 A 
ATOM     29  C   LIG    1       -1.502  -6.292  -1.699  0.00  0.00    +0.017 A 
ATOM     30  C   LIG    1       -1.543  -4.914  -1.739  0.00  0.00    +0.005 A 
BRANCH  28  31
ATOM     31  C   LIG    1       -0.364  -8.368  -1.060  0.00  0.00    -0.061 C 
ATOM     32  C   LIG    1       -0.325  -9.541  -1.020  0.00  0.00    -0.061 C 
BRANCH  32  33
ATOM     33  C   LIG    1       -0.277 -10.972  -0.971  0.00  0.00    +0.025 A 
ATOM     34  C   LIG    1        0.810 -11.617  -0.376  0.00  0.00    +0.017 A 
ATOM     35  C   LIG    1        0.850 -12.995  -0.333  0.00  0.00    +0.001 A 
ATOM     36  C   LIG    1       -0.183 -13.738  -0.877  0.00  0.00    +0.000 A 
ATOM     37  C   LIG    1       -1.263 -13.105  -1.468  0.00  0.00    +0.001 A 
ATOM     38  C   LIG    1       -1.319 -11.728  -1.513  0.00  0.00    +0.017 A 
ENDBRANCH  32  33
ENDBRANCH  28  31
ENDBRANCH  24  25
ENDBRANCH   1  24
TORSDOF 11
