REMARK  Name = ZINC13607514
REMARK                            x       y       z     vdW  Elec       q    Type
REMARK                         _______ _______ _______ _____ _____    ______ ____
ROOT
ATOM      1  C   LIG    1       -0.214  -1.772  -0.774  0.00  0.00    +0.243 C 
ATOM      2  C   LIG    1       -0.869  -2.317  -2.041  0.00  0.00    +0.067 C 
ATOM      3  C   LIG    1       -0.577  -3.800  -2.246  0.00  0.00    +0.108 C 
ATOM      4  C   LIG    1        0.937  -4.064  -2.311  0.00  0.00    -0.009 C 
ATOM      5  C   LIG    1        1.500  -3.226  -3.458  0.00  0.00    +0.013 C 
ATOM      6  C   LIG    1        1.188  -5.541  -2.599  0.00  0.00    +0.009 C 
ATOM      7  C   LIG    1        2.664  -5.904  -2.401  0.00  0.00    +0.016 C 
ATOM      8  C   LIG    1        3.070  -5.586  -0.973  0.00  0.00    +0.105 C 
ATOM      9  C   LIG    1        4.500  -5.967  -0.681  0.00  0.00    +0.311 C 
ATOM     10  O   LIG    1        4.954  -5.670   0.557  0.00  0.00    -0.456 OA
ATOM     11  C   LIG    1        4.744  -4.339   1.030  0.00  0.00    +0.210 C 
ATOM     12  C   LIG    1        3.317  -3.862   0.766  0.00  0.00    +0.058 C 
ATOM     13  O   LIG    1        5.198  -6.508  -1.503  0.00  0.00    -0.250 OA
ATOM     14  C   LIG    1        2.944  -4.073  -0.712  0.00  0.00    -0.005 C 
ATOM     15  C   LIG    1        3.952  -3.315  -1.569  0.00  0.00    +0.013 C 
ATOM     16  C   LIG    1        1.516  -3.659  -0.959  0.00  0.00    +0.073 C 
ATOM     17  C   LIG    1        1.246  -2.191  -0.742  0.00  0.00    +0.178 C 
ATOM     18  O   LIG    1        2.110  -1.378  -0.541  0.00  0.00    -0.293 OA
ENDROOT
BRANCH  11  19
ATOM     19  C   LIG    1        4.998  -4.312   2.515  0.00  0.00    +0.030 A 
ATOM     20  C   LIG    1        5.565  -3.249   3.254  0.00  0.00    +0.048 A 
ATOM     21  C   LIG    1        5.607  -3.645   4.539  0.00  0.00    +0.195 A 
ATOM     22  O   LIG    1        5.098  -4.886   4.617  0.00  0.00    -0.471 OA
ATOM     23  C   LIG    1        4.722  -5.293   3.393  0.00  0.00    +0.202 A 
ENDBRANCH  11  19
BRANCH   3  24
ATOM     24  C   LIG    1       -1.221  -4.255  -3.532  0.00  0.00    +0.311 C 
ATOM     25  O   LIG    1       -0.540  -4.709  -4.421  0.00  0.00    -0.251 OA
BRANCH  24  26
ATOM     26  O   LIG    1       -2.550  -4.154  -3.689  0.00  0.00    -0.468 OA
ATOM     27  C   LIG    1       -3.092  -4.604  -4.933  0.00  0.00    +0.280 C 
ENDBRANCH  24  26
ENDBRANCH   3  24
BRANCH   1  28
ATOM     28  O   LIG    1       -0.295  -0.345  -0.762  0.00  0.00    -0.454 OA
BRANCH  28  30
ATOM     29  C   LIG    1       -0.436   1.754   0.529  0.00  0.00    +0.136 C 
ATOM     30  C   LIG    1       -0.349   0.253   0.438  0.00  0.00    +0.305 C 
ATOM     31  O   LIG    1       -0.327  -0.413   1.446  0.00  0.00    -0.251 OA
ENDBRANCH  28  30
ENDBRANCH   1  28
TORSDOF 5
