REMARK  Name = ZINC13581282
REMARK                            x       y       z     vdW  Elec       q    Type
REMARK                         _______ _______ _______ _____ _____    ______ ____
ROOT
ATOM      1  C   LIG    1        3.638  -2.729  -3.030  0.00  0.00    +0.124 C 
ATOM      2  C   LIG    1        3.423  -4.110  -3.142  0.00  0.00    +0.038 C 
ATOM      3  C   LIG    1        4.468  -4.938  -3.423  0.00  0.00    -0.007 C 
ATOM      4  C   LIG    1        4.263  -6.426  -3.548  0.00  0.00    +0.008 C 
ATOM      5  C   LIG    1        5.746  -4.367  -3.594  0.00  0.00    +0.011 C 
ATOM      6  C   LIG    1        6.864  -5.164  -3.885  0.00  0.00    +0.027 C 
ATOM      7  C   LIG    1        8.097  -4.570  -4.045  0.00  0.00    +0.073 C 
ATOM      8  C   LIG    1        8.240  -3.184  -3.920  0.00  0.00    +0.024 C 
ATOM      9  C   LIG    1        7.170  -2.393  -3.637  0.00  0.00    +0.021 C 
ATOM     10  C   LIG    1        5.898  -2.965  -3.468  0.00  0.00    +0.059 C 
ATOM     11  N   LIG    1        4.832  -2.201  -3.196  0.00  0.00    -0.298 NA
ATOM     12  H   LIG    1        4.944  -1.241  -3.116  0.00  0.00    +0.124 HD
ENDROOT
BRANCH   1  17
ATOM     13  N   LIG    1        0.648  -0.494  -1.271  0.00  0.00    +0.381 N 
ATOM     14  H   LIG    1        0.219  -0.084  -2.087  0.00  0.00    -0.082 HD
ATOM     15  C   LIG    1        2.055  -0.081  -1.201  0.00  0.00    -0.063 C 
ATOM     16  C   LIG    1        2.763  -0.460  -2.506  0.00  0.00    +0.067 C 
ATOM     17  N   LIG    1        2.564  -1.898  -2.744  0.00  0.00    -0.291 NA
ATOM     18  C   LIG    1        1.194  -2.429  -2.670  0.00  0.00    +0.067 C 
ATOM     19  C   LIG    1        0.560  -1.958  -1.358  0.00  0.00    -0.063 C 
BRANCH  13  21
ATOM     20  C   LIG    1       -0.074   1.496  -0.040  0.00  0.00    -0.017 C 
ATOM     21  C   LIG    1       -0.057  -0.034  -0.067  0.00  0.00    -0.082 C 
ENDBRANCH  13  21
ENDBRANCH   1  17
BRANCH   7  22
ATOM     22  N   LIG    1        9.215  -5.360  -4.336  0.00  0.00    -0.309 N 
ATOM     23  H   LIG    1       10.085  -5.119  -3.980  0.00  0.00    +0.149 HD
ATOM     24  C   LIG    1        9.084  -6.455  -5.111  0.00  0.00    +0.254 C 
ATOM     25  O   LIG    1        8.020  -6.699  -5.640  0.00  0.00    -0.272 OA
BRANCH  24  26
ATOM     26  C   LIG    1       10.259  -7.374  -5.321  0.00  0.00    +0.256 C 
ATOM     27  C   LIG    1       11.358  -6.631  -6.082  0.00  0.00    +0.062 C 
BRANCH  26  28
ATOM     28  O   LIG    1        9.843  -8.514  -6.077  0.00  0.00    -0.478 OA
BRANCH  28  29
ATOM     29  C   LIG    1       10.578  -9.649  -5.937  0.00  0.00    +0.140 A 
ATOM     30  C   LIG    1       11.617  -9.695  -5.020  0.00  0.00    +0.048 A 
ATOM     31  C   LIG    1       12.363 -10.849  -4.879  0.00  0.00    +0.023 A 
ATOM     32  C   LIG    1       12.074 -11.960  -5.652  0.00  0.00    +0.043 A 
ATOM     33 CL   LIG    1       13.013 -13.409  -5.473  0.00  0.00    -0.083 Cl
ATOM     34  C   LIG    1       11.037 -11.917  -6.568  0.00  0.00    +0.043 A 
ATOM     35  C   LIG    1       10.285 -10.765  -6.708  0.00  0.00    +0.084 A 
ATOM     36 CL   LIG    1        8.980 -10.714  -7.852  0.00  0.00    -0.080 Cl
ENDBRANCH  28  29
ENDBRANCH  26  28
ENDBRANCH  24  26
ENDBRANCH   7  22
TORSDOF 6
