REMARK  Name = ZINC13583882
REMARK                            x       y       z     vdW  Elec       q    Type
REMARK                         _______ _______ _______ _____ _____    ______ ____
ROOT
ATOM      1  C   LIG    1        4.262   1.377   3.147  0.00  0.00    +0.014 C 
ATOM      2  C   LIG    1        3.780   2.714   2.581  0.00  0.00    -0.021 C 
ATOM      3  C   LIG    1        2.839   3.378   3.588  0.00  0.00    +0.014 C 
ATOM      4  C   LIG    1        3.036   2.469   1.294  0.00  0.00    -0.037 A 
ATOM      5  C   LIG    1        1.735   1.993   1.381  0.00  0.00    +0.049 A 
ATOM      6  C   LIG    1        1.003   1.735   0.235  0.00  0.00    +0.117 A 
ATOM      7  C   LIG    1        1.572   1.966  -1.010  0.00  0.00    +0.045 A 
ATOM      8  C   LIG    1        2.861   2.447  -1.093  0.00  0.00    +0.007 A 
ATOM      9  C   LIG    1        3.598   2.701   0.058  0.00  0.00    -0.044 A 
ATOM     10  C   LIG    1        4.998   3.231  -0.110  0.00  0.00    +0.034 C 
ATOM     11  C   LIG    1        5.800   3.047   1.177  0.00  0.00    -0.010 C 
ATOM     12  C   LIG    1        4.984   3.623   2.341  0.00  0.00    -0.059 C 
ENDROOT
BRANCH  12  13
ATOM     13  N   LIG    1        5.798   3.669   3.574  0.00  0.00    +0.378 N 
ATOM     14  H   LIG    1        5.178   3.579   4.387  0.00  0.00    -0.082 HD
ATOM     15  C   LIG    1        6.514   4.959   3.658  0.00  0.00    -0.096 C 
ATOM     16  C   LIG    1        6.766   2.552   3.582  0.00  0.00    -0.096 C 
ENDBRANCH  12  13
BRANCH   6  17
ATOM     17  O   LIG    1       -0.268   1.264   0.328  0.00  0.00    -0.507 OA
ATOM     18  H   LIG    1       -0.330   0.299   0.341  0.00  0.00    +0.292 HD
ENDBRANCH   6  17
TORSDOF 2
