REMARK  Name = ZINC13588695
REMARK                            x       y       z     vdW  Elec       q    Type
REMARK                         _______ _______ _______ _____ _____    ______ ____
ROOT
ATOM      1  C   LIG    1        0.718  -0.497  -1.257  0.00  0.00    +0.195 C 
ATOM      2  C   LIG    1        0.723  -2.044  -1.324  0.00  0.00    +0.161 C 
ATOM      3  N   LIG    1        2.068  -2.323  -1.865  0.00  0.00    -0.340 N 
ATOM      4  H   LIG    1        2.504  -3.232  -2.304  0.00  0.00    +0.164 HD
ATOM      5  C   LIG    1        2.784  -1.246  -1.758  0.00  0.00    +0.254 C 
ATOM      6  O   LIG    1        2.131  -0.211  -1.195  0.00  0.00    -0.462 OA
ENDROOT
BRANCH   5   7
ATOM      7  N   LIG    1        4.089  -1.169  -2.181  0.00  0.00    -0.315 N 
ATOM      8  H   LIG    1        4.573  -2.046  -2.634  0.00  0.00    +0.147 HD
ATOM      9  H   LIG    1        4.649  -0.229  -2.066  0.00  0.00    +0.147 HD
ENDBRANCH   5   7
BRANCH   1  11
ATOM     10  C   LIG    1       -0.019   1.526   0.010  0.00  0.00    +0.007 C 
ATOM     11  C   LIG    1        0.002  -0.004   0.002  0.00  0.00    +0.043 C 
ENDBRANCH   1  11
TORSDOF 2
