REMARK  Name = ZINC13727692
REMARK                            x       y       z     vdW  Elec       q    Type
REMARK                         _______ _______ _______ _____ _____    ______ ____
ROOT
ATOM      1  C   LIG    1        0.707  -0.490  -1.238  0.00  0.00    +0.000 A 
ATOM      2  C   LIG    1        1.215   0.419  -2.142  0.00  0.00    +0.019 A 
ATOM      3  C   LIG    1        1.868  -0.032  -3.289  0.00  0.00    +0.021 A 
ATOM      4  C   LIG    1        2.005  -1.400  -3.518  0.00  0.00    +0.019 A 
ATOM      5  C   LIG    1        1.494  -2.304  -2.610  0.00  0.00    +0.000 A 
ATOM      6  C   LIG    1        0.850  -1.852  -1.466  0.00  0.00    +0.124 A 
ENDROOT
BRANCH   3   7
ATOM      7  C   LIG    1        2.415   0.943  -4.264  0.00  0.00    +0.170 A 
ATOM      8  N   LIG    1        3.033   0.538  -5.361  0.00  0.00    -0.204 NA
ATOM      9  C   LIG    1        3.493   1.464  -6.182  0.00  0.00    +0.176 A 
ATOM     10  S   LIG    1        3.057   2.892  -5.412  0.00  0.00    +0.049 S 
ATOM     11  N   LIG    1        2.296   2.240  -4.068  0.00  0.00    -0.187 NA
BRANCH   9  12
ATOM     12  N   LIG    1        4.168   1.299  -7.378  0.00  0.00    -0.336 N 
ATOM     13  H   LIG    1        4.452   2.076  -7.886  0.00  0.00    +0.144 HD
ATOM     14  H   LIG    1        4.356   0.407  -7.710  0.00  0.00    +0.144 HD
ENDBRANCH   9  12
ENDBRANCH   3   7
BRANCH   1  16
ATOM     15  C   LIG    1       -0.019   1.526   0.010  0.00  0.00    +0.015 C 
ATOM     16  C   LIG    1        0.002  -0.004   0.002  0.00  0.00    -0.009 C 
ATOM     17  C   LIG    1       -1.433  -0.534   0.013  0.00  0.00    +0.015 C 
ATOM     18  C   LIG    1        0.742  -0.511   1.242  0.00  0.00    +0.015 C 
ENDBRANCH   1  16
BRANCH   5  19
ATOM     19  C   LIG    1        1.642  -3.783  -2.856  0.00  0.00    -0.009 C 
ATOM     20  C   LIG    1        0.257  -4.427  -2.939  0.00  0.00    +0.015 C 
ATOM     21  C   LIG    1        2.430  -4.415  -1.707  0.00  0.00    +0.015 C 
ATOM     22  C   LIG    1        2.389  -4.009  -4.172  0.00  0.00    +0.015 C 
ENDBRANCH   5  19
BRANCH   6  23
ATOM     23  O   LIG    1        0.354  -2.745  -0.570  0.00  0.00    -0.506 OA
ATOM     24  H   LIG    1       -0.559  -3.012  -0.744  0.00  0.00    +0.292 HD
ENDBRANCH   6  23
TORSDOF 5
