REMARK  Name = ZINC13714319
REMARK                            x       y       z     vdW  Elec       q    Type
REMARK                         _______ _______ _______ _____ _____    ______ ____
ROOT
ATOM      1  N   LIG    1        2.044   1.031  -0.269  0.00  0.00    -0.311 N 
ATOM      2  C   LIG    1        1.321   2.180   0.024  0.00  0.00    +0.068 A 
ATOM      3  C   LIG    1        0.047   1.818   0.254  0.00  0.00    +0.121 A 
ATOM      4  N   LIG    1       -0.047   0.449   0.109  0.00  0.00    -0.279 N 
ATOM      5  C   LIG    1       -0.906  -0.639   0.162  0.00  0.00    +0.155 A 
ATOM      6  C   LIG    1       -2.274  -0.801   0.435  0.00  0.00    +0.280 A 
ATOM      7  N   LIG    1       -2.813  -2.037   0.401  0.00  0.00    -0.273 N 
ATOM      8  C   LIG    1       -2.063  -3.113   0.110  0.00  0.00    +0.331 A 
ATOM      9  N   LIG    1       -0.748  -3.006  -0.158  0.00  0.00    -0.281 N 
ATOM     10  C   LIG    1        0.036  -4.203  -0.470  0.00  0.00    +0.155 C 
ATOM     11  O   LIG    1       -2.584  -4.211   0.089  0.00  0.00    -0.246 OA
ATOM     12  H   LIG    1       -3.787  -2.154   0.595  0.00  0.00    +0.173 HD
ATOM     13  O   LIG    1       -2.967   0.167   0.699  0.00  0.00    -0.265 OA
ATOM     14  C   LIG    1       -0.135  -1.762  -0.139  0.00  0.00    +0.147 A 
ATOM     15  N   LIG    1        1.113  -1.350  -0.356  0.00  0.00    -0.311 N 
ATOM     16  H   LIG    1        1.903  -1.960  -0.599  0.00  0.00    +0.170 HD
ATOM     17  C   LIG    1        1.183  -0.033  -0.212  0.00  0.00    +0.196 A 
ENDROOT
BRANCH   2  18
ATOM     18  C   LIG    1        1.858   3.558   0.075  0.00  0.00    -0.000 A 
ATOM     19  C   LIG    1        3.029   3.879  -0.612  0.00  0.00    +0.010 A 
ATOM     20  C   LIG    1        3.521   5.167  -0.564  0.00  0.00    +0.001 A 
ATOM     21  C   LIG    1        2.862   6.136   0.171  0.00  0.00    +0.000 A 
ATOM     22  C   LIG    1        1.704   5.822   0.858  0.00  0.00    +0.001 A 
ATOM     23  C   LIG    1        1.198   4.540   0.815  0.00  0.00    +0.010 A 
ENDBRANCH   2  18
BRANCH   1  24
ATOM     24  C   LIG    1        3.474   0.969  -0.583  0.00  0.00    +0.125 C 
BRANCH  24  25
ATOM     25  C   LIG    1        3.664   0.983  -2.101  0.00  0.00    +0.021 C 
BRANCH  25  27
ATOM     26  C   LIG    1        5.348   1.035  -3.946  0.00  0.00    +0.004 C 
ATOM     27  C   LIG    1        5.158   1.021  -2.428  0.00  0.00    -0.002 C 
ENDBRANCH  25  27
ENDBRANCH  24  25
ENDBRANCH   1  24
TORSDOF 4
