REMARK  Name = ZINC13588053
REMARK                            x       y       z     vdW  Elec       q    Type
REMARK                         _______ _______ _______ _____ _____    ______ ____
ROOT
ATOM      1  C   LIG    1       -1.287   3.110   0.032  0.00  0.00    +0.128 A 
ATOM      2  C   LIG    1       -1.234   1.744   0.017  0.00  0.00    +0.046 A 
ATOM      3  C   LIG    1       -0.013   1.076   0.008  0.00  0.00    +0.004 A 
ATOM      4  C   LIG    1        1.164   1.762   0.000  0.00  0.00    +0.009 A 
ATOM      5  C   LIG    1        1.152   3.167   0.008  0.00  0.00    -0.014 A 
ATOM      6  C   LIG    1        2.347   3.907   0.000  0.00  0.00    +0.008 A 
ATOM      7  C   LIG    1        2.297   5.267   0.007  0.00  0.00    +0.001 A 
ATOM      8  C   LIG    1        1.077   5.940   0.022  0.00  0.00    +0.001 A 
ATOM      9  C   LIG    1       -0.100   5.256   0.030  0.00  0.00    +0.012 A 
ATOM     10  C   LIG    1       -0.088   3.852   0.024  0.00  0.00    +0.024 A 
ENDROOT
BRANCH   1  11
ATOM     11  O   LIG    1       -2.486   3.747   0.046  0.00  0.00    -0.491 OA
BRANCH  11  12
ATOM     12  C   LIG    1       -3.656   2.927   0.053  0.00  0.00    +0.229 C 
BRANCH  12  13
ATOM     13  C   LIG    1       -4.901   3.816   0.069  0.00  0.00    +0.039 C 
BRANCH  13  14
ATOM     14  C   LIG    1       -6.154   2.939   0.077  0.00  0.00    -0.016 C 
BRANCH  14  15
ATOM     15  C   LIG    1       -7.400   3.828   0.093  0.00  0.00    -0.083 C 
BRANCH  15  17
ATOM     16  C   LIG    1       -9.821   3.807   0.116  0.00  0.00    -0.101 C 
ATOM     17  N   LIG    1       -8.603   2.974   0.100  0.00  0.00    +0.377 N 
ATOM     18  H   LIG    1       -8.590   2.378   0.936  0.00  0.00    -0.086 HD
ATOM     19  H   LIG    1       -8.606   2.386  -0.741  0.00  0.00    -0.086 HD
ENDBRANCH  15  17
ENDBRANCH  14  15
ENDBRANCH  13  14
ENDBRANCH  12  13
ENDBRANCH  11  12
ENDBRANCH   1  11
TORSDOF 6
