REMARK  Name = ZINC13580862
REMARK                            x       y       z     vdW  Elec       q    Type
REMARK                         _______ _______ _______ _____ _____    ______ ____
ROOT
ATOM      1  C   LIG    1       -0.016   1.362   0.009  0.00  0.00    +0.001 A 
ATOM      2  C   LIG    1        1.170   2.083   0.002  0.00  0.00    +0.002 A 
ATOM      3  C   LIG    1        2.384   1.434  -0.012  0.00  0.00    +0.026 A 
ATOM      4  C   LIG    1        2.428   0.042  -0.018  0.00  0.00    +0.048 A 
ATOM      5  C   LIG    1        1.220  -0.686  -0.012  0.00  0.00    +0.008 A 
ATOM      6  C   LIG    1        1.600  -2.095  -0.025  0.00  0.00    +0.019 A 
ATOM      7  C   LIG    1        2.998  -2.130  -0.002  0.00  0.00    +0.110 A 
ATOM      8  C   LIG    1        3.717  -3.416   0.098  0.00  0.00    +0.261 C 
ATOM      9  N   LIG    1        3.271  -4.447  -0.663  0.00  0.00    -0.310 N 
ATOM     10  H   LIG    1        3.562  -5.350  -0.465  0.00  0.00    +0.149 HD
ATOM     11  C   LIG    1        2.361  -4.213  -1.775  0.00  0.00    +0.109 C 
ATOM     12  C   LIG    1        0.892  -4.147  -1.345  0.00  0.00    +0.058 C 
ATOM     13  O   LIG    1        4.675  -3.546   0.837  0.00  0.00    -0.269 OA
ATOM     14  C   LIG    1        0.777  -3.302  -0.090  0.00  0.00    +0.007 C 
ATOM     15  C   LIG    1       -0.054  -3.651   0.927  0.00  0.00    +0.177 C 
ATOM     16  C   LIG    1       -0.275  -2.932   2.197  0.00  0.00    +0.370 C 
ATOM     17  N   LIG    1       -1.177  -3.649   2.883  0.00  0.00    -0.001 NA
ATOM     18  C   LIG    1       -1.535  -4.713   2.198  0.00  0.00    +0.365 C 
ATOM     19  O   LIG    1        0.255  -1.892   2.551  0.00  0.00    -0.245 OA
ATOM     20  N   LIG    1       -0.892  -4.768   0.999  0.00  0.00    -0.202 N 
ATOM     21  H   LIG    1       -0.994  -5.455   0.322  0.00  0.00    +0.251 HD
ATOM     22  N   LIG    1        3.475  -0.857  -0.031  0.00  0.00    -0.350 N 
ATOM     23  H   LIG    1        4.414  -0.617  -0.058  0.00  0.00    +0.166 HD
ATOM     24  C   LIG    1        0.002  -0.004   0.002  0.00  0.00    +0.010 A 
ENDROOT
BRANCH  18  25
ATOM     25  N   LIG    1       -2.441  -5.642   2.631  0.00  0.00    -0.253 N 
ATOM     26  H   LIG    1       -2.661  -6.416   2.065  0.00  0.00    +0.241 HD
ATOM     27  H   LIG    1       -2.865  -5.538   3.497  0.00  0.00    +0.241 HD
ENDBRANCH  18  25
TORSDOF 1
