REMARK  Name = ZINC13738756
REMARK                            x       y       z     vdW  Elec       q    Type
REMARK                         _______ _______ _______ _____ _____    ______ ____
ROOT
ATOM      1  C   LIG    1        2.396   0.123  -0.020  0.00  0.00    +0.139 A 
ATOM      2  C   LIG    1        1.265  -0.637  -0.013  0.00  0.00    +0.098 A 
ATOM      3  C   LIG    1        0.002  -0.004   0.002  0.00  0.00    +0.193 A 
ATOM      4  C   LIG    1       -0.018   1.473   0.010  0.00  0.00    +0.066 A 
ATOM      5  C   LIG    1       -1.219   2.179   0.031  0.00  0.00    +0.038 A 
ATOM      6  C   LIG    1       -1.196   3.563   0.033  0.00  0.00    +0.025 A 
ATOM      7  C   LIG    1        0.021   4.242   0.025  0.00  0.00    +0.026 A 
ATOM      8  C   LIG    1        1.211   3.549   0.009  0.00  0.00    +0.049 A 
ATOM      9  C   LIG    1        1.206   2.159   0.002  0.00  0.00    +0.139 A 
ATOM     10  O   LIG    1       -1.032  -0.652   0.008  0.00  0.00    -0.287 OA
ATOM     11  O   LIG    1        2.364   1.464  -0.013  0.00  0.00    -0.455 OA
ENDROOT
BRANCH   1  17
ATOM     12  C   LIG    1        3.770  -1.952  -0.039  0.00  0.00    +0.013 A 
ATOM     13  C   LIG    1        4.994  -2.582  -0.058  0.00  0.00    +0.023 A 
ATOM     14  C   LIG    1        6.165  -1.830  -0.065  0.00  0.00    +0.025 A 
ATOM     15  C   LIG    1        6.104  -0.440  -0.058  0.00  0.00    +0.023 A 
ATOM     16  C   LIG    1        4.884   0.197  -0.043  0.00  0.00    +0.013 A 
ATOM     17  C   LIG    1        3.705  -0.555  -0.036  0.00  0.00    +0.018 A 
BRANCH  14  18
ATOM     18  N   LIG    1        7.401  -2.471  -0.079  0.00  0.00    -0.358 N 
ATOM     19  H   LIG    1        7.445  -3.440  -0.084  0.00  0.00    +0.142 HD
ATOM     20  H   LIG    1        8.218  -1.948  -0.084  0.00  0.00    +0.142 HD
ENDBRANCH  14  18
ENDBRANCH   1  17
BRANCH   6  21
ATOM     21  N   LIG    1       -2.396   4.281   0.049  0.00  0.00    -0.358 N 
ATOM     22  H   LIG    1       -3.243   3.810   0.055  0.00  0.00    +0.142 HD
ATOM     23  H   LIG    1       -2.380   5.251   0.055  0.00  0.00    +0.142 HD
ENDBRANCH   6  21
TORSDOF 3
