REMARK  Name = ZINC13734161
REMARK                            x       y       z     vdW  Elec       q    Type
REMARK                         _______ _______ _______ _____ _____    ______ ____
ROOT
ATOM      1  C   LIG    1        0.113   1.230   2.470  0.00  0.00    +0.000 A 
ATOM      2  C   LIG    1        1.272   0.497   2.351  0.00  0.00    +0.015 A 
ATOM      3  C   LIG    1        1.774  -0.202   3.456  0.00  0.00    -0.023 A 
ATOM      4  C   LIG    1        1.091  -0.150   4.678  0.00  0.00    +0.015 A 
ATOM      5  C   LIG    1       -0.067   0.586   4.787  0.00  0.00    +0.000 A 
ATOM      6  C   LIG    1       -0.557   1.281   3.687  0.00  0.00    +0.124 A 
ENDROOT
BRANCH   3   7
ATOM      7  C   LIG    1        3.010  -0.985   3.334  0.00  0.00    +0.028 C 
ATOM      8  C   LIG    1        3.759  -0.899   2.207  0.00  0.00    +0.079 C 
ATOM      9  C   LIG    1        4.945  -1.685   1.793  0.00  0.00    +0.275 C 
ATOM     10  N   LIG    1        5.470  -1.379   0.627  0.00  0.00    -0.162 NA
ATOM     11  C   LIG    1        4.983  -0.415  -0.139  0.00  0.00    +0.128 C 
ATOM     12  O   LIG    1        5.407  -2.571   2.494  0.00  0.00    -0.267 OA
ATOM     13  S   LIG    1        3.598   0.201   0.806  0.00  0.00    -0.060 S 
BRANCH  11  14
ATOM     14  S   LIG    1        5.562   0.129  -1.712  0.00  0.00    -0.105 S 
ATOM     15  C   LIG    1        6.965  -0.993  -1.936  0.00  0.00    +0.092 C 
ENDBRANCH  11  14
ENDBRANCH   3   7
BRANCH   1  17
ATOM     16  C   LIG    1        0.494   1.765   0.079  0.00  0.00    +0.015 C 
ATOM     17  C   LIG    1       -0.427   1.982   1.282  0.00  0.00    -0.009 C 
ATOM     18  C   LIG    1       -1.830   1.470   0.949  0.00  0.00    +0.015 C 
ATOM     19  C   LIG    1       -0.493   3.475   1.611  0.00  0.00    +0.015 C 
ENDBRANCH   1  17
BRANCH   5  20
ATOM     20  C   LIG    1       -0.801   0.642   6.101  0.00  0.00    -0.009 C 
ATOM     21  C   LIG    1       -2.216   0.088   5.919  0.00  0.00    +0.015 C 
ATOM     22  C   LIG    1       -0.879   2.094   6.580  0.00  0.00    +0.015 C 
ATOM     23  C   LIG    1       -0.054  -0.197   7.140  0.00  0.00    +0.015 C 
ENDBRANCH   5  20
BRANCH   6  24
ATOM     24  O   LIG    1       -1.696   2.010   3.801  0.00  0.00    -0.506 OA
ATOM     25  H   LIG    1       -2.502   1.514   3.603  0.00  0.00    +0.292 HD
ENDBRANCH   6  24
TORSDOF 5
