REMARK  Name = ZINC13588696
REMARK                            x       y       z     vdW  Elec       q    Type
REMARK                         _______ _______ _______ _____ _____    ______ ____
ROOT
ATOM      1  C   LIG    1       -0.811   1.621   1.222  0.00  0.00    +0.195 C 
ATOM      2  C   LIG    1       -0.013   1.086   0.008  0.00  0.00    +0.161 C 
ATOM      3  N   LIG    1       -0.795   1.609  -1.129  0.00  0.00    -0.340 N 
ATOM      4  H   LIG    1       -0.555   1.704  -2.198  0.00  0.00    +0.164 HD
ATOM      5  C   LIG    1       -1.951   1.998  -0.686  0.00  0.00    +0.254 C 
ATOM      6  O   LIG    1       -2.116   1.816   0.639  0.00  0.00    -0.462 OA
ENDROOT
BRANCH   5   7
ATOM      7  N   LIG    1       -2.918   2.545  -1.494  0.00  0.00    -0.315 N 
ATOM      8  H   LIG    1       -2.729   2.670  -2.571  0.00  0.00    +0.147 HD
ATOM      9  H   LIG    1       -3.881   2.858  -1.065  0.00  0.00    +0.147 HD
ENDBRANCH   5   7
BRANCH   1  11
ATOM     10  C   LIG    1       -1.546   1.195   3.571  0.00  0.00    +0.007 C 
ATOM     11  C   LIG    1       -0.860   0.586   2.347  0.00  0.00    +0.043 C 
ENDBRANCH   1  11
TORSDOF 2
