REMARK  Name = ZINC13704006
REMARK                            x       y       z     vdW  Elec       q    Type
REMARK                         _______ _______ _______ _____ _____    ______ ____
ROOT
ATOM      1  O   LIG    1       -0.909   1.625  -3.529  0.00  0.00    -0.489 OA
ENDROOT
BRANCH   1   2
ATOM      2  C   LIG    1       -0.148   1.098  -2.441  0.00  0.00    +0.157 C 
ATOM      3  C   LIG    1        1.197   1.826  -2.358  0.00  0.00    +0.041 C 
ATOM      4  C   LIG    1        1.981   1.296  -1.155  0.00  0.00    -0.016 C 
ATOM      5  C   LIG    1        1.152   1.496   0.116  0.00  0.00    -0.082 C 
ATOM      6  N   LIG    1       -0.127   0.771  -0.005  0.00  0.00    +0.381 N 
ATOM      7  H   LIG    1        0.063  -0.225  -0.166  0.00  0.00    -0.086 HD
ATOM      8  H   LIG    1       -0.662   0.882   0.864  0.00  0.00    -0.086 HD
ATOM      9  C   LIG    1       -0.915   1.304  -1.133  0.00  0.00    -0.038 C 
ENDBRANCH   1   2
BRANCH   1  11
ATOM     10  C   LIG    1       -2.109  -0.439  -3.524  0.00  0.00    +0.068 A 
ATOM     11  C   LIG    1       -1.844   0.808  -4.082  0.00  0.00    +0.140 A 
ATOM     12  C   LIG    1       -2.550   1.206  -5.207  0.00  0.00    +0.156 A 
ATOM     13  N   LIG    1       -3.454   0.415  -5.750  0.00  0.00    -0.258 NA
ATOM     14  C   LIG    1       -3.730  -0.772  -5.247  0.00  0.00    +0.131 A 
ATOM     15  C   LIG    1       -3.071  -1.237  -4.123  0.00  0.00    +0.062 A 
ATOM     16 CL   LIG    1       -3.445  -2.802  -3.470  0.00  0.00    -0.082 Cl
ENDBRANCH   1  11
TORSDOF 2
