REMARK  Name = ZINC13679483
REMARK                            x       y       z     vdW  Elec       q    Type
REMARK                         _______ _______ _______ _____ _____    ______ ____
ROOT
ATOM      1  C   LIG    1        1.160   3.173   0.007  0.00  0.00    +0.040 A 
ATOM      2  C   LIG    1       -0.035   3.863   0.022  0.00  0.00    +0.030 A 
ATOM      3  C   LIG    1       -1.234   3.167   0.030  0.00  0.00    +0.067 A 
ATOM      4  C   LIG    1       -1.231   1.761   0.017  0.00  0.00    +0.092 A 
ATOM      5  N   LIG    1       -2.526   1.357   0.022  0.00  0.00    -0.226 NA
ATOM      6  C   LIG    1       -3.315   2.405   0.031  0.00  0.00    +0.158 A 
ATOM      7  C   LIG    1       -0.013   1.076   0.008  0.00  0.00    +0.068 A 
ATOM      8  N   LIG    1       -2.564   3.550   0.044  0.00  0.00    -0.337 N 
ATOM      9  H   LIG    1       -2.912   4.487   0.060  0.00  0.00    +0.167 HD
ATOM     10  C   LIG    1        1.170   1.784   0.001  0.00  0.00    +0.126 A 
ATOM     11  F   LIG    1        2.348   1.122  -0.014  0.00  0.00    -0.205 F 
ENDROOT
BRANCH   6  12
ATOM     12  C   LIG    1       -4.791   2.357   0.037  0.00  0.00    +0.113 A 
ATOM     13  C   LIG    1       -5.462   1.159   0.035  0.00  0.00    +0.078 A 
ATOM     14  S   LIG    1       -7.154   1.731   0.045  0.00  0.00    -0.083 S 
ATOM     15  C   LIG    1       -6.822   3.435   0.052  0.00  0.00    +0.156 A 
ATOM     16  N   LIG    1       -5.513   3.469   0.052  0.00  0.00    -0.244 NA
ENDBRANCH   6  12
TORSDOF 1
