REMARK  Name = ZINC13580720
REMARK                            x       y       z     vdW  Elec       q    Type
REMARK                         _______ _______ _______ _____ _____    ______ ____
ROOT
ATOM      1  C   LIG    1        0.739  -2.027  -1.265  0.00  0.00    +0.126 C 
ENDROOT
BRANCH   1   2
ATOM      2  C   LIG    1        0.718  -0.497  -1.257  0.00  0.00    +0.009 C 
ATOM      3  C   LIG    1        0.002  -0.004   0.002  0.00  0.00    +0.005 C 
ATOM      4  C   LIG    1       -0.019   1.526   0.010  0.00  0.00    +0.000 C 
ATOM      5  C   LIG    1        1.417   2.055  -0.000  0.00  0.00    +0.000 C 
ATOM      6  C   LIG    1        2.133   1.562  -1.259  0.00  0.00    +0.000 C 
ATOM      7  C   LIG    1        2.154   0.032  -1.268  0.00  0.00    +0.005 C 
ENDBRANCH   1   2
BRANCH   1  10
ATOM      8  C   LIG    1        2.731  -3.167  -4.046  0.00  0.00    +0.130 A 
ATOM      9  C   LIG    1        2.641  -2.752  -2.768  0.00  0.00    +0.106 A 
ATOM     10  N   LIG    1        1.317  -2.501  -2.525  0.00  0.00    -0.337 N 
ATOM     11  C   LIG    1        0.643  -2.776  -3.663  0.00  0.00    +0.199 A 
ATOM     12  N   LIG    1        1.496  -3.169  -4.569  0.00  0.00    -0.244 NA
ENDBRANCH   1  10
TORSDOF 2
