REMARK  Name = ZINC13675690
REMARK                            x       y       z     vdW  Elec       q    Type
REMARK                         _______ _______ _______ _____ _____    ______ ____
ROOT
ATOM      1  C   LIG    1        2.396   0.123  -0.020  0.00  0.00    +0.139 A 
ATOM      2  C   LIG    1        1.265  -0.636  -0.013  0.00  0.00    +0.098 A 
ATOM      3  C   LIG    1        0.002  -0.004   0.002  0.00  0.00    +0.193 A 
ATOM      4  C   LIG    1       -0.018   1.473   0.010  0.00  0.00    +0.065 A 
ATOM      5  C   LIG    1       -1.218   2.181   0.031  0.00  0.00    +0.029 A 
ATOM      6  C   LIG    1       -1.195   3.559   0.033  0.00  0.00    +0.014 A 
ATOM      7  I   LIG    1       -2.994   4.633   0.056  0.00  0.00    -0.044 I 
ATOM      8  C   LIG    1        0.015   4.238   0.025  0.00  0.00    +0.018 A 
ATOM      9  C   LIG    1        1.209   3.548   0.010  0.00  0.00    +0.048 A 
ATOM     10  C   LIG    1        1.206   2.159   0.002  0.00  0.00    +0.139 A 
ATOM     11  O   LIG    1       -1.032  -0.652   0.008  0.00  0.00    -0.287 OA
ATOM     12  O   LIG    1        2.364   1.465  -0.013  0.00  0.00    -0.455 OA
ENDROOT
BRANCH   1  16
ATOM     13  C   LIG    1        6.166  -1.829  -0.065  0.00  0.00    +0.027 A 
ATOM     14  C   LIG    1        6.104  -0.438  -0.058  0.00  0.00    +0.023 A 
ATOM     15  C   LIG    1        4.884   0.198  -0.043  0.00  0.00    +0.013 A 
ATOM     16  C   LIG    1        3.705  -0.554  -0.036  0.00  0.00    +0.018 A 
ATOM     17  C   LIG    1        3.771  -1.951  -0.039  0.00  0.00    +0.013 A 
ATOM     18  C   LIG    1        4.995  -2.581  -0.058  0.00  0.00    +0.023 A 
BRANCH  13  20
ATOM     19  C   LIG    1        7.469  -3.932  -0.087  0.00  0.00    +0.125 C 
ATOM     20  N   LIG    1        7.402  -2.469  -0.080  0.00  0.00    -0.347 N 
ATOM     21  H   LIG    1        8.219  -1.945  -0.085  0.00  0.00    +0.146 HD
ENDBRANCH  13  20
ENDBRANCH   1  16
TORSDOF 2
