REMARK  Name = ZINC13742283
REMARK                            x       y       z     vdW  Elec       q    Type
REMARK                         _______ _______ _______ _____ _____    ______ ____
ROOT
ATOM      1  C   LIG    1       -1.315   5.833   0.031  0.00  0.00    +0.138 A 
ATOM      2  C   LIG    1       -1.448   7.244  -0.013  0.00  0.00    +0.041 A 
ATOM      3  C   LIG    1       -0.337   8.093  -0.060  0.00  0.00    +0.013 A 
ATOM      4  C   LIG    1       -0.524   9.443  -0.101  0.00  0.00    +0.001 A 
ATOM      5  C   LIG    1       -1.805   9.988  -0.098  0.00  0.00    +0.002 A 
ATOM      6  C   LIG    1       -2.908   9.188  -0.053  0.00  0.00    +0.028 A 
ATOM      7  C   LIG    1       -2.752   7.796  -0.009  0.00  0.00    +0.078 A 
ATOM      8  N   LIG    1       -3.804   6.965   0.036  0.00  0.00    -0.215 NA
ATOM      9  C   LIG    1       -3.623   5.659   0.076  0.00  0.00    +0.215 A 
ATOM     10  N   LIG    1       -2.417   5.099   0.069  0.00  0.00    -0.199 NA
ENDROOT
BRANCH   9  11
ATOM     11  N   LIG    1       -4.735   4.837   0.122  0.00  0.00    -0.327 N 
ATOM     12  H   LIG    1       -4.625   3.874   0.151  0.00  0.00    +0.145 HD
ATOM     13  H   LIG    1       -5.624   5.224   0.124  0.00  0.00    +0.145 HD
ENDBRANCH   9  11
BRANCH   1  15
ATOM     14  C   LIG    1        0.618   4.983  -1.238  0.00  0.00    +0.137 C 
ATOM     15  N   LIG    1       -0.069   5.240   0.030  0.00  0.00    -0.288 N 
BRANCH  15  16
ATOM     16  C   LIG    1        0.537   4.885   1.238  0.00  0.00    +0.035 A 
ATOM     17  C   LIG    1        1.735   4.181   1.236  0.00  0.00    +0.023 A 
ATOM     18  C   LIG    1        2.331   3.832   2.431  0.00  0.00    +0.002 A 
ATOM     19  C   LIG    1        1.738   4.183   3.630  0.00  0.00    +0.000 A 
ATOM     20  C   LIG    1        0.543   4.879   3.636  0.00  0.00    +0.002 A 
ATOM     21  C   LIG    1       -0.056   5.236   2.444  0.00  0.00    +0.023 A 
ENDBRANCH  15  16
ENDBRANCH   1  15
TORSDOF 3
