REMARK  Name = ZINC13657827
REMARK                            x       y       z     vdW  Elec       q    Type
REMARK                         _______ _______ _______ _____ _____    ______ ____
ROOT
ATOM      1  C   LIG    1       -0.017   1.377   0.010  0.00  0.00    +0.001 A 
ATOM      2  C   LIG    1        1.170   2.090   0.002  0.00  0.00    +0.004 A 
ATOM      3  C   LIG    1        2.385   1.432  -0.014  0.00  0.00    +0.046 A 
ATOM      4  C   LIG    1        2.421   0.048  -0.023  0.00  0.00    +0.130 A 
ATOM      5  C   LIG    1        1.219  -0.673  -0.012  0.00  0.00    +0.043 A 
ATOM      6  C   LIG    1        1.291  -2.154  -0.011  0.00  0.00    +0.085 A 
ATOM      7  C   LIG    1        2.518  -2.738   0.315  0.00  0.00    +0.025 A 
ATOM      8  C   LIG    1        3.688  -1.857   0.661  0.00  0.00    +0.267 C 
ATOM      9  C   LIG    1        2.634  -4.122   0.320  0.00  0.00    +0.014 A 
ATOM     10  C   LIG    1        1.489  -4.885  -0.004  0.00  0.00    +0.121 A 
ATOM     11  C   LIG    1        0.294  -4.218  -0.314  0.00  0.00    +0.231 A 
ATOM     12  N   LIG    1        0.236  -2.898  -0.307  0.00  0.00    -0.211 NA
ATOM     13  O   LIG    1        3.602  -0.619  -0.044  0.00  0.00    -0.487 OA
ATOM     14  C   LIG    1        0.002  -0.004   0.002  0.00  0.00    +0.013 A 
ENDROOT
BRANCH   9  15
ATOM     15  C   LIG    1        3.919  -4.779   0.655  0.00  0.00    +0.002 A 
ATOM     16  C   LIG    1        4.210  -5.116   1.976  0.00  0.00    +0.010 A 
ATOM     17  C   LIG    1        5.408  -5.727   2.282  0.00  0.00    +0.001 A 
ATOM     18  C   LIG    1        6.322  -6.006   1.280  0.00  0.00    +0.001 A 
ATOM     19  C   LIG    1        6.041  -5.675  -0.032  0.00  0.00    +0.020 A 
ATOM     20  C   LIG    1        4.842  -5.067  -0.352  0.00  0.00    +0.049 A 
ATOM     21 CL   LIG    1        4.486  -4.658  -2.001  0.00  0.00    -0.083 Cl
ENDBRANCH   9  15
BRANCH  10  22
ATOM     22  C   LIG    1        1.548  -6.316  -0.016  0.00  0.00    +0.105 C 
ATOM     23  N   LIG    1        1.594  -7.451  -0.025  0.00  0.00    -0.191 NA
ENDBRANCH  10  22
BRANCH  11  24
ATOM     24  O   LIG    1       -0.812  -4.936  -0.624  0.00  0.00    -0.491 OA
ATOM     25  H   LIG    1       -0.777  -5.872  -0.631  0.00  0.00    +0.294 HD
ENDBRANCH  11  24
TORSDOF 3
