REMARK  Name = ZINC13643086
REMARK                            x       y       z     vdW  Elec       q    Type
REMARK                         _______ _______ _______ _____ _____    ______ ____
ROOT
ATOM      1  C   LIG    1        1.486  -0.425  -0.031  0.00  0.00    +0.001 C 
ATOM      2  C   LIG    1        0.002  -0.004   0.002  0.00  0.00    +0.001 C 
ATOM      3  C   LIG    1       -0.019   1.536   0.011  0.00  0.00    +0.008 C 
ATOM      4  C   LIG    1        1.448   1.988  -0.001  0.00  0.00    -0.014 C 
ATOM      5  C   LIG    1        2.009   2.865  -1.110  0.00  0.00    +0.024 C 
ATOM      6  C   LIG    1        1.849   3.422   0.308  0.00  0.00    +0.058 C 
ATOM      7  C   LIG    1        2.244   0.793   0.558  0.00  0.00    +0.008 C 
ENDROOT
BRANCH   6   8
ATOM      8  C   LIG    1        3.102   3.636   1.117  0.00  0.00    +0.310 C 
ATOM      9  O   LIG    1        3.747   2.687   1.495  0.00  0.00    -0.250 OA
BRANCH   8  10
ATOM     10  O   LIG    1        3.502   4.882   1.419  0.00  0.00    -0.480 OA
ATOM     11  H   LIG    1        3.002   5.618   1.126  0.00  0.00    +0.295 HD
ENDBRANCH   8  10
ENDBRANCH   6   8
BRANCH   6  12
ATOM     12  C   LIG    1        0.727   4.434   0.547  0.00  0.00    -0.068 C 
BRANCH  12  13
ATOM     13  N   LIG    1        1.321   5.748   0.849  0.00  0.00    +0.379 N 
ATOM     14  H   LIG    1        1.882   5.676   1.706  0.00  0.00    -0.090 HD
ATOM     15  H   LIG    1        0.587   6.440   0.990  0.00  0.00    -0.090 HD
ATOM     16  H   LIG    1        1.923   6.044   0.082  0.00  0.00    -0.090 HD
ENDBRANCH  12  13
ENDBRANCH   6  12
TORSDOF 4
