REMARK  Name = ZINC13742956
REMARK                            x       y       z     vdW  Elec       q    Type
REMARK                         _______ _______ _______ _____ _____    ______ ____
ROOT
ATOM      1  C   LIG    1       -0.734   1.958   1.269  0.00  0.00    +0.106 C 
ENDROOT
BRANCH   1   2
ATOM      2  O   LIG    1        0.020   1.584   2.424  0.00  0.00    -0.393 OA
ATOM      3  H   LIG    1        0.219   0.522   2.630  0.00  0.00    +0.210 HD
ENDBRANCH   1   2
BRANCH   1   4
ATOM      4  C   LIG    1       -0.865   3.482   1.217  0.00  0.00    +0.126 C 
BRANCH   4   6
ATOM      5  C   LIG    1       -1.879   5.879   2.663  0.00  0.00    +0.111 C 
ATOM      6  P   LIG    1       -1.847   4.056   2.642  0.00  0.00    +0.202 P 
ATOM      7  O   LIG    1       -1.236   3.558   3.894  0.00  0.00    -0.291 OA
BRANCH   6   8
ATOM      8  O   LIG    1       -3.351   3.495   2.518  0.00  0.00    -0.344 OA
ATOM      9  H   LIG    1       -3.874   3.800   3.276  0.00  0.00    +0.218 HD
ENDBRANCH   6   8
ENDBRANCH   4   6
ENDBRANCH   1   4
BRANCH   1  10
ATOM     10  C   LIG    1       -0.018   1.465   0.010  0.00  0.00    -0.054 C 
BRANCH  10  11
ATOM     11  N   LIG    1        0.002  -0.004   0.002  0.00  0.00    +0.380 N 
ATOM     12  H   LIG    1        0.534  -0.368   0.893  0.00  0.00    -0.090 HD
ATOM     13  H   LIG    1       -1.030  -0.385   0.010  0.00  0.00    -0.090 HD
ATOM     14  H   LIG    1        0.517  -0.359  -0.903  0.00  0.00    -0.090 HD
ENDBRANCH  10  11
ENDBRANCH   1  10
TORSDOF 6
