REMARK  Name = ZINC13675781
REMARK                            x       y       z     vdW  Elec       q    Type
REMARK                         _______ _______ _______ _____ _____    ______ ____
ROOT
ATOM      1  C   LIG    1        0.039   1.171   2.327  0.00  0.00    +0.080 C 
ATOM      2  C   LIG    1        1.360   1.633   2.518  0.00  0.00    +0.025 C 
ATOM      3  C   LIG    1        1.968   2.497   1.595  0.00  0.00    +0.006 C 
ATOM      4  C   LIG    1        3.243   2.923   1.809  0.00  0.00    +0.000 C 
ATOM      5  C   LIG    1        3.954   2.513   2.935  0.00  0.00    +0.002 C 
ATOM      6  C   LIG    1        3.396   1.675   3.851  0.00  0.00    +0.019 C 
ATOM      7  C   LIG    1        2.080   1.213   3.665  0.00  0.00    +0.059 C 
ATOM      8  N   LIG    1        1.556   0.367   4.615  0.00  0.00    -0.305 NA
ATOM      9  H   LIG    1        2.093   0.074   5.439  0.00  0.00    +0.123 HD
ATOM     10  C   LIG    1        0.278  -0.057   4.394  0.00  0.00    +0.108 C 
ATOM     11  C   LIG    1       -0.568  -0.956   5.205  0.00  0.00    -0.008 A 
ATOM     12  C   LIG    1       -0.361  -1.637   6.402  0.00  0.00    +0.007 A 
ATOM     13  C   LIG    1       -1.367  -2.421   6.926  0.00  0.00    +0.000 A 
ATOM     14  C   LIG    1       -2.580  -2.533   6.266  0.00  0.00    +0.002 A 
ATOM     15  C   LIG    1       -2.799  -1.865   5.080  0.00  0.00    +0.023 A 
ATOM     16  C   LIG    1       -1.796  -1.068   4.535  0.00  0.00    +0.032 A 
ATOM     17  N   LIG    1       -1.740  -0.302   3.385  0.00  0.00    -0.337 N 
ATOM     18  H   LIG    1       -2.462  -0.209   2.744  0.00  0.00    +0.146 HD
ATOM     19  C   LIG    1       -0.503   0.320   3.285  0.00  0.00    +0.109 C 
ENDROOT
BRANCH   1  20
ATOM     20  N   LIG    1       -0.700   1.560   1.217  0.00  0.00    -0.311 NA
ATOM     21  H   LIG    1       -1.238   0.787   0.852  0.00  0.00    +0.122 HD
BRANCH  20  22
ATOM     22  C   LIG    1       -1.568   2.701   1.536  0.00  0.00    +0.079 C 
BRANCH  22  23
ATOM     23  C   LIG    1       -2.265   3.183   0.262  0.00  0.00    -0.004 C 
BRANCH  23  24
ATOM     24  C   LIG    1       -3.169   4.372   0.594  0.00  0.00    -0.078 C 
BRANCH  24  26
ATOM     25  C   LIG    1       -4.888   5.815  -0.317  0.00  0.00    -0.097 C 
ATOM     26  N   LIG    1       -3.851   4.813  -0.642  0.00  0.00    +0.376 N 
ATOM     27  H   LIG    1       -4.298   4.001  -1.083  0.00  0.00    -0.083 HD
ATOM     28  C   LIG    1       -2.868   5.390  -1.582  0.00  0.00    -0.097 C 
ENDBRANCH  24  26
ENDBRANCH  23  24
ENDBRANCH  22  23
ENDBRANCH  20  22
ENDBRANCH   1  20
TORSDOF 5
