REMARK  Name = ZINC13589620
REMARK                            x       y       z     vdW  Elec       q    Type
REMARK                         _______ _______ _______ _____ _____    ______ ____
ROOT
ATOM      1  C   LIG    1        3.696  -0.686  -0.038  0.00  0.00    +0.157 A 
ATOM      2  N   LIG    1        3.859  -2.029  -0.052  0.00  0.00    -0.258 N 
ATOM      3  N   LIG    1        5.244  -2.261  -0.066  0.00  0.00    -0.152 NA
ATOM      4  C   LIG    1        5.830  -1.083  -0.060  0.00  0.00    +0.185 A 
ATOM      5  H   LIG    1        3.158  -2.699  -0.053  0.00  0.00    +0.191 HD
ATOM      6  N   LIG    1        4.890  -0.131  -0.048  0.00  0.00    -0.207 NA
ENDROOT
BRANCH   1  10
ATOM      7  C   LIG    1       -0.017   1.379   0.010  0.00  0.00    +0.000 A 
ATOM      8  C   LIG    1        1.168   2.093   0.002  0.00  0.00    +0.001 A 
ATOM      9  C   LIG    1        2.377   1.428  -0.013  0.00  0.00    +0.011 A 
ATOM     10  C   LIG    1        2.403   0.033  -0.021  0.00  0.00    +0.019 A 
ATOM     11  C   LIG    1        1.205  -0.680  -0.013  0.00  0.00    +0.011 A 
ATOM     12  C   LIG    1        0.002  -0.004   0.002  0.00  0.00    +0.001 A 
ENDBRANCH   1  10
BRANCH   4  13
ATOM     13  C   LIG    1        7.294  -0.848  -0.069  0.00  0.00    +0.062 A 
ATOM     14  C   LIG    1        7.795   0.452  -0.054  0.00  0.00    +0.015 A 
ATOM     15  C   LIG    1        9.158   0.665  -0.063  0.00  0.00    +0.001 A 
ATOM     16  C   LIG    1       10.031  -0.409  -0.087  0.00  0.00    +0.004 A 
ATOM     17  C   LIG    1        9.545  -1.702  -0.102  0.00  0.00    +0.046 A 
ATOM     18  C   LIG    1        8.179  -1.931  -0.087  0.00  0.00    +0.128 A 
BRANCH  18  19
ATOM     19  O   LIG    1        7.700  -3.202  -0.096  0.00  0.00    -0.506 OA
ATOM     20  H   LIG    1        7.554  -3.561  -0.981  0.00  0.00    +0.292 HD
ENDBRANCH  18  19
ENDBRANCH   4  13
TORSDOF 3
