REMARK  Name = ZINC13719785
REMARK                            x       y       z     vdW  Elec       q    Type
REMARK                         _______ _______ _______ _____ _____    ______ ____
ROOT
ATOM      1  N   LIG    1        1.365  -2.510  -2.438  0.00  0.00    +0.386 N 
ATOM      2  H   LIG    1        2.230  -1.994  -2.506  0.00  0.00    -0.081 HD
ATOM      3  C   LIG    1        0.536  -2.227  -3.615  0.00  0.00    -0.044 C 
ATOM      4  C   LIG    1        1.312  -2.578  -4.886  0.00  0.00    +0.129 C 
ATOM      5  C   LIG    1        1.676  -4.065  -4.862  0.00  0.00    +0.168 C 
ATOM      6  C   LIG    1        2.477  -4.364  -3.592  0.00  0.00    +0.134 C 
ATOM      7  C   LIG    1        1.658  -3.947  -2.368  0.00  0.00    -0.011 C 
ENDROOT
BRANCH   4   8
ATOM      8  O   LIG    1        0.502  -2.302  -6.031  0.00  0.00    -0.391 OA
ATOM      9  H   LIG    1        0.932  -2.502  -6.874  0.00  0.00    +0.210 HD
ENDBRANCH   4   8
BRANCH   5  10
ATOM     10  O   LIG    1        2.463  -4.383  -6.011  0.00  0.00    -0.387 OA
ATOM     11  H   LIG    1        2.017  -4.213  -6.853  0.00  0.00    +0.210 HD
ENDBRANCH   5  10
BRANCH   6  12
ATOM     12  O   LIG    1        3.704  -3.631  -3.618  0.00  0.00    -0.391 OA
ATOM     13  H   LIG    1        4.273  -3.843  -4.371  0.00  0.00    +0.210 HD
ENDBRANCH   6  12
BRANCH   1  14
ATOM     14  C   LIG    1        0.646  -2.099  -1.224  0.00  0.00    -0.078 C 
BRANCH  14  15
ATOM     15  C   LIG    1        0.440  -0.583  -1.242  0.00  0.00    -0.019 C 
BRANCH  15  17
ATOM     16  C   LIG    1       -0.515   1.360   0.004  0.00  0.00    +0.004 C 
ATOM     17  C   LIG    1       -0.309  -0.156   0.022  0.00  0.00    -0.005 C 
ENDBRANCH  15  17
ENDBRANCH  14  15
ENDBRANCH   1  14
BRANCH   7  18
ATOM     18  C   LIG    1        2.455  -4.243  -1.096  0.00  0.00    +0.143 C 
BRANCH  18  19
ATOM     19  O   LIG    1        3.710  -3.562  -1.151  0.00  0.00    -0.397 OA
ATOM     20  H   LIG    1        4.269  -3.705  -0.375  0.00  0.00    +0.209 HD
ENDBRANCH  18  19
ENDBRANCH   7  18
TORSDOF 8
