REMARK  Name = ZINC13588585
REMARK                            x       y       z     vdW  Elec       q    Type
REMARK                         _______ _______ _______ _____ _____    ______ ____
ROOT
ATOM      1  N   LIG    1       -2.111   1.004  -3.782  0.00  0.00    -0.272 N 
ATOM      2  H   LIG    1       -2.278   0.155  -3.343  0.00  0.00    +0.153 HD
ATOM      3  C   LIG    1       -3.107   1.630  -4.440  0.00  0.00    +0.401 C 
ATOM      4  O   LIG    1       -2.899   2.693  -4.990  0.00  0.00    -0.226 OA
ENDROOT
BRANCH   1   5
ATOM      5  CA  LIG    1       -0.777   1.606  -3.730  0.00  0.00    +0.139 C 
BRANCH   5   6
ATOM      6  C   LIG    1       -0.005   1.225  -4.967  0.00  0.00    +0.245 C 
ATOM      7  O   LIG    1       -0.516   0.522  -5.805  0.00  0.00    -0.299 OA
ENDBRANCH   5   6
BRANCH   5   8
ATOM      8  C   LIG    1       -0.037   1.099  -2.490  0.00  0.00    +0.030 C 
BRANCH   8   9
ATOM      9  C   LIG    1       -0.753   1.593  -1.232  0.00  0.00    +0.002 C 
BRANCH   9  11
ATOM     10  C   LIG    1       -0.729   1.579   1.267  0.00  0.00    +0.004 C 
ATOM     11  C   LIG    1       -0.013   1.086   0.008  0.00  0.00    -0.003 C 
ENDBRANCH   9  11
ENDBRANCH   8   9
ENDBRANCH   5   8
ENDBRANCH   1   5
BRANCH   3  12
ATOM     12  O   LIG    1       -4.334   1.076  -4.488  0.00  0.00    -0.445 OA
BRANCH  12  13
ATOM     13  C   LIG    1       -5.358   1.806  -5.214  0.00  0.00    +0.107 C 
ATOM     14  C   LIG    1       -5.553   3.183  -4.576  0.00  0.00    +0.055 C 
ATOM     15  C   LIG    1       -6.674   1.028  -5.159  0.00  0.00    +0.055 C 
ATOM     16  C   LIG    1       -4.926   1.976  -6.672  0.00  0.00    +0.055 C 
ENDBRANCH  12  13
ENDBRANCH   3  12
TORSDOF 7
