REMARK  Name = ZINC13742906
REMARK                            x       y       z     vdW  Elec       q    Type
REMARK                         _______ _______ _______ _____ _____    ______ ____
ROOT
ATOM      1  C   LIG    1       -0.019   1.526   0.010  0.00  0.00    -0.007 C 
ENDROOT
BRANCH   1   3
ATOM      2  C   LIG    1       -1.427  -0.534   0.139  0.00  0.00    -0.014 C 
ATOM      3  C   LIG    1        0.002  -0.004   0.002  0.00  0.00    -0.078 C 
BRANCH   3   4
ATOM      4  N   LIG    1        0.582  -0.479  -1.261  0.00  0.00    +0.380 N 
ATOM      5  H   LIG    1        0.597  -1.579  -1.268  0.00  0.00    -0.090 HD
ATOM      6  H   LIG    1       -0.026  -0.116  -2.103  0.00  0.00    -0.090 HD
ATOM      7  H   LIG    1        1.609  -0.098  -1.359  0.00  0.00    -0.090 HD
ENDBRANCH   3   4
ENDBRANCH   1   3
BRANCH   1   8
ATOM      8  C   LIG    1        1.417   2.055  -0.000  0.00  0.00    +0.092 C 
BRANCH   8   9
ATOM      9  P   LIG    1        1.392   3.878   0.010  0.00  0.00    +0.191 P 
ATOM     10  O   LIG    1        0.699   4.355   1.227  0.00  0.00    -0.294 OA
ATOM     11  H   LIG    1        0.835   4.400  -0.782  0.00  0.00    +0.128 HD
BRANCH   9  12
ATOM     12  O   LIG    1        2.902   4.435  -0.002  0.00  0.00    -0.346 OA
ATOM     13  H   LIG    1        3.356   4.123  -0.800  0.00  0.00    +0.217 HD
ENDBRANCH   9  12
ENDBRANCH   8   9
ENDBRANCH   1   8
TORSDOF 5
