REMARK  Name = ZINC13597513
REMARK                            x       y       z     vdW  Elec       q    Type
REMARK                         _______ _______ _______ _____ _____    ______ ____
ROOT
ATOM      1  C   LIG    1       -0.017   1.377   0.010  0.00  0.00    +0.001 A 
ATOM      2  C   LIG    1        1.172   2.086   0.002  0.00  0.00    +0.002 A 
ATOM      3  C   LIG    1        2.385   1.426  -0.013  0.00  0.00    +0.024 A 
ATOM      4  C   LIG    1        2.423   0.036  -0.022  0.00  0.00    +0.046 A 
ATOM      5  C   LIG    1        1.218  -0.677  -0.014  0.00  0.00    +0.030 A 
ATOM      6  C   LIG    1        1.581  -2.115  -0.025  0.00  0.00    +0.173 C 
ATOM      7  C   LIG    1        3.067  -2.132  -0.040  0.00  0.00    +0.273 C 
ATOM      8  O   LIG    1        3.772  -3.122  -0.052  0.00  0.00    -0.268 OA
ATOM      9  N   LIG    1        0.775  -3.137  -0.023  0.00  0.00    -0.082 NA
ATOM     10  N   LIG    1        3.491  -0.857  -0.037  0.00  0.00    -0.261 N 
ATOM     11  C   LIG    1        0.002  -0.004   0.002  0.00  0.00    +0.012 A 
ENDROOT
BRANCH   9  12
ATOM     12  O   LIG    1        1.300  -4.452  -0.035  0.00  0.00    -0.409 OA
ATOM     13  H   LIG    1        0.625  -5.145  -0.032  0.00  0.00    +0.328 HD
ENDBRANCH   9  12
BRANCH  10  14
ATOM     14  C   LIG    1        4.900  -0.456  -0.050  0.00  0.00    +0.149 C 
BRANCH  14  15
ATOM     15  C   LIG    1        5.397  -0.327   1.367  0.00  0.00    -0.029 A 
ATOM     16  C   LIG    1        5.294   0.883   2.028  0.00  0.00    +0.005 A 
ATOM     17  C   LIG    1        5.750   1.003   3.327  0.00  0.00    +0.001 A 
ATOM     18  C   LIG    1        6.310  -0.088   3.966  0.00  0.00    +0.012 A 
ATOM     19  C   LIG    1        6.413  -1.298   3.305  0.00  0.00    +0.055 A 
ATOM     20  C   LIG    1        5.953  -1.418   2.007  0.00  0.00    +0.017 A 
BRANCH  19  21
ATOM     21  C   LIG    1        7.024  -2.487   4.001  0.00  0.00    +0.417 C 
ATOM     22  F   LIG    1        8.146  -2.920   3.287  0.00  0.00    -0.166 F 
ATOM     23  F   LIG    1        6.085  -3.522   4.067  0.00  0.00    -0.166 F 
ATOM     24  F   LIG    1        7.408  -2.122   5.296  0.00  0.00    -0.166 F 
ENDBRANCH  19  21
ENDBRANCH  14  15
ENDBRANCH  10  14
TORSDOF 4
