REMARK  Name = ZINC13733893
REMARK                            x       y       z     vdW  Elec       q    Type
REMARK                         _______ _______ _______ _____ _____    ______ ____
ROOT
ATOM      1  N   LIG    1        0.538  -0.897  -0.921  0.00  0.00    -0.315 N 
ATOM      2  H   LIG    1       -0.056  -1.331  -1.554  0.00  0.00    +0.149 HD
ATOM      3  C   LIG    1        0.226  -0.876   0.390  0.00  0.00    +0.225 C 
ATOM      4  O   LIG    1        0.969  -0.334   1.181  0.00  0.00    -0.275 OA
ENDROOT
BRANCH   1   5
ATOM      5  C   LIG    1        1.773  -0.265  -1.391  0.00  0.00    +0.102 C 
BRANCH   5   6
ATOM      6  C   LIG    1        1.886  -0.431  -2.907  0.00  0.00    +0.000 C 
BRANCH   6   7
ATOM      7  C   LIG    1        3.176   0.229  -3.398  0.00  0.00    -0.077 C 
BRANCH   7  10
ATOM      8  C   LIG    1        5.751  -0.275  -4.415  0.00  0.00    -0.013 C 
ATOM      9  C   LIG    1        4.680   0.381  -5.289  0.00  0.00    -0.071 C 
ATOM     10  N   LIG    1        3.348  -0.070  -4.835  0.00  0.00    +0.383 N 
ATOM     11  H   LIG    1        3.273  -1.084  -4.975  0.00  0.00    -0.081 HD
ATOM     12  C   LIG    1        2.289   0.602  -5.619  0.00  0.00    -0.071 C 
ATOM     13  C   LIG    1        2.423   2.123  -5.510  0.00  0.00    -0.013 C 
ATOM     14  C   LIG    1        2.417   0.183  -7.085  0.00  0.00    -0.016 C 
ATOM     15  C   LIG    1        3.793   0.599  -7.613  0.00  0.00    -0.003 C 
ATOM     16  C   LIG    1        4.878  -0.044  -6.745  0.00  0.00    -0.016 C 
ENDBRANCH   7  10
ENDBRANCH   6   7
ENDBRANCH   5   6
ENDBRANCH   1   5
BRANCH   3  17
ATOM     17  C   LIG    1       -1.045  -1.526   0.873  0.00  0.00    +0.135 C 
BRANCH  17  18
ATOM     18  C   LIG    1       -1.156  -1.363   2.367  0.00  0.00    -0.031 A 
ATOM     19  C   LIG    1       -1.055  -0.107   2.935  0.00  0.00    +0.005 A 
ATOM     20  C   LIG    1       -1.161   0.043   4.305  0.00  0.00    +0.000 A 
ATOM     21  C   LIG    1       -1.359  -1.064   5.108  0.00  0.00    +0.000 A 
ATOM     22  C   LIG    1       -1.455  -2.321   4.541  0.00  0.00    +0.000 A 
ATOM     23  C   LIG    1       -1.353  -2.471   3.171  0.00  0.00    +0.005 A 
ENDBRANCH  17  18
BRANCH  17  24
ATOM     24  C   LIG    1       -2.228  -0.872   0.207  0.00  0.00    -0.031 A 
ATOM     25  C   LIG    1       -2.356   0.504   0.222  0.00  0.00    +0.005 A 
ATOM     26  C   LIG    1       -3.439   1.104  -0.393  0.00  0.00    +0.000 A 
ATOM     27  C   LIG    1       -4.399   0.328  -1.014  0.00  0.00    +0.000 A 
ATOM     28  C   LIG    1       -4.274  -1.049  -1.024  0.00  0.00    +0.000 A 
ATOM     29  C   LIG    1       -3.188  -1.649  -0.413  0.00  0.00    +0.005 A 
ENDBRANCH  17  24
ENDBRANCH   3  17
TORSDOF 7
