REMARK  Name = ZINC13586925
REMARK                            x       y       z     vdW  Elec       q    Type
REMARK                         _______ _______ _______ _____ _____    ______ ____
ROOT
ATOM      1  C   LIG    1       -0.019   1.526   0.010  0.00  0.00    +0.005 C 
ATOM      2  C   LIG    1        0.002  -0.004   0.002  0.00  0.00    -0.031 C 
ATOM      3  C   LIG    1       -1.434  -0.535   0.018  0.00  0.00    -0.001 C 
ATOM      4  C   LIG    1       -1.404  -2.065   0.070  0.00  0.00    -0.018 C 
ATOM      5  C   LIG    1       -0.623  -2.513   1.308  0.00  0.00    -0.079 C 
ATOM      6  N   LIG    1        0.757  -1.990   1.220  0.00  0.00    +0.380 N 
ATOM      7  H   LIG    1        1.177  -2.305   0.338  0.00  0.00    -0.082 HD
ATOM      8  C   LIG    1        0.742  -0.512   1.242  0.00  0.00    -0.076 C 
ENDROOT
BRANCH   6   9
ATOM      9  C   LIG    1        1.564  -2.503   2.346  0.00  0.00    -0.074 C 
BRANCH   9  10
ATOM     10  C   LIG    1        1.345  -4.012   2.472  0.00  0.00    +0.016 C 
BRANCH  10  11
ATOM     11  C   LIG    1        2.186  -4.549   3.602  0.00  0.00    -0.049 A 
ATOM     12  C   LIG    1        3.471  -4.995   3.355  0.00  0.00    +0.003 A 
ATOM     13  C   LIG    1        4.245  -5.482   4.392  0.00  0.00    +0.000 A 
ATOM     14  C   LIG    1        3.729  -5.533   5.674  0.00  0.00    +0.000 A 
ATOM     15  C   LIG    1        2.442  -5.093   5.920  0.00  0.00    +0.000 A 
ATOM     16  C   LIG    1        1.671  -4.600   4.883  0.00  0.00    +0.003 A 
ENDBRANCH  10  11
ENDBRANCH   9  10
ENDBRANCH   6   9
TORSDOF 3
