REMARK  Name = ZINC13744909
REMARK                            x       y       z     vdW  Elec       q    Type
REMARK                         _______ _______ _______ _____ _____    ______ ____
ROOT
ATOM      1  N   LIG    1        0.049  -1.987   1.433  0.00  0.00    -0.326 N 
ATOM      2  H   LIG    1        0.049  -2.467   0.591  0.00  0.00    +0.148 HD
ENDROOT
BRANCH   1   3
ATOM      3  C   LIG    1        0.065  -2.667   2.597  0.00  0.00    +0.136 C 
ATOM      4  S   LIG    1        0.066  -1.819   4.084  0.00  0.00    -0.019 S 
BRANCH   3   5
ATOM      5  N   LIG    1        0.081  -4.014   2.590  0.00  0.00    -0.281 N 
ATOM      6  H   LIG    1        0.005  -4.496   1.751  0.00  0.00    +0.155 HD
BRANCH   5   7
ATOM      7  C   LIG    1        0.207  -4.716   3.787  0.00  0.00    +0.142 A 
ATOM      8  C   LIG    1        0.331  -6.103   3.773  0.00  0.00    +0.154 A 
ATOM      9  N   LIG    1        0.450  -6.764   4.909  0.00  0.00    -0.258 NA
ATOM     10  C   LIG    1        0.452  -6.110   6.059  0.00  0.00    +0.130 A 
ATOM     11  C   LIG    1        0.330  -4.734   6.076  0.00  0.00    +0.132 A 
ATOM     12  N   LIG    1        0.215  -4.064   4.942  0.00  0.00    -0.237 NA
ENDBRANCH   5   7
ENDBRANCH   3   5
ENDBRANCH   1   3
BRANCH   1  13
ATOM     13  C   LIG    1        0.032  -0.522   1.441  0.00  0.00    +0.108 C 
BRANCH  13  14
ATOM     14  C   LIG    1        0.016  -0.004   0.001  0.00  0.00    +0.054 C 
BRANCH  14  18
ATOM     15  C   LIG    1       -0.034   4.267   0.024  0.00  0.00    +0.000 A 
ATOM     16  C   LIG    1        1.171   3.590   0.011  0.00  0.00    +0.000 A 
ATOM     17  C   LIG    1        1.187   2.208   0.004  0.00  0.00    +0.004 A 
ATOM     18  C   LIG    1       -0.002   1.503   0.009  0.00  0.00    -0.046 A 
ATOM     19  C   LIG    1       -1.207   2.180   0.016  0.00  0.00    +0.004 A 
ATOM     20  C   LIG    1       -1.223   3.562   0.028  0.00  0.00    +0.000 A 
ENDBRANCH  14  18
ENDBRANCH  13  14
ENDBRANCH   1  13
TORSDOF 6
