REMARK  Name = ZINC13601808
REMARK                            x       y       z     vdW  Elec       q    Type
REMARK                         _______ _______ _______ _____ _____    ______ ____
ROOT
ATOM      1  C   UNK    1       -3.545  -2.129  -1.165  0.00  0.00    +0.015 C 
ATOM      2  C   UNK    1       -3.503  -0.601  -1.245  0.00  0.00    -0.079 C 
ATOM      3  N   UNK    1       -2.102  -0.141  -1.242  0.00  0.00    +0.384 N 
ATOM      4  H   UNK    1       -1.606  -0.563  -2.036  0.00  0.00    -0.085 HD
ATOM      5  H   UNK    1       -2.081   0.882  -1.331  0.00  0.00    -0.085 HD
ATOM      6  C   UNK    1       -1.433  -0.534   0.013  0.00  0.00    -0.014 C 
ATOM      7  C   UNK    1       -1.413  -2.059   0.131  0.00  0.00    +0.131 C 
ATOM      8  C   UNK    1       -2.851  -2.586   0.121  0.00  0.00    +0.140 C 
ENDROOT
BRANCH   7   9
ATOM      9  O   UNK    1       -0.775  -2.435   1.353  0.00  0.00    -0.391 OA
ATOM     10  H   UNK    1       -0.726  -3.390   1.494  0.00  0.00    +0.210 HD
ENDBRANCH   7   9
BRANCH   8  11
ATOM     11  O   UNK    1       -3.555  -2.073   1.253  0.00  0.00    -0.389 OA
ATOM     12  H   UNK    1       -4.475  -2.366   1.311  0.00  0.00    +0.210 HD
ENDBRANCH   8  11
BRANCH   6  13
ATOM     13  C   UNK    1        0.002  -0.004   0.002  0.00  0.00    +0.143 C 
BRANCH  13  14
ATOM     14  O   UNK    1       -0.017   1.425   0.010  0.00  0.00    -0.397 OA
ATOM     15  H   UNK    1        0.861   1.830   0.004  0.00  0.00    +0.209 HD
ENDBRANCH  13  14
ENDBRANCH   6  13
TORSDOF 4
