REMARK  Name = ZINC13732784
REMARK                            x       y       z     vdW  Elec       q    Type
REMARK                         _______ _______ _______ _____ _____    ______ ____
ROOT
ATOM      1  C   LIG    1        5.648   0.811   2.736  0.00  0.00    +0.138 C 
ATOM      2  N   LIG    1        4.941   0.569   1.476  0.00  0.00    -0.271 N 
ATOM      3  C   LIG    1        4.865   1.618   0.573  0.00  0.00    +0.045 A 
ATOM      4  C   LIG    1        6.003   2.411   0.414  0.00  0.00    +0.024 A 
ATOM      5  C   LIG    1        6.001   3.475  -0.461  0.00  0.00    +0.002 A 
ATOM      6  C   LIG    1        4.864   3.770  -1.194  0.00  0.00    +0.001 A 
ATOM      7  C   LIG    1        3.733   3.000  -1.050  0.00  0.00    +0.012 A 
ATOM      8  C   LIG    1        3.719   1.912  -0.164  0.00  0.00    +0.022 A 
ATOM      9  C   LIG    1        2.477   1.131  -0.062  0.00  0.00    +0.077 C 
ATOM     10  N   LIG    1        2.420  -0.150   0.037  0.00  0.00    -0.251 NA
ATOM     11  C   LIG    1        3.625  -0.978   0.056  0.00  0.00    +0.280 C 
ATOM     12  C   LIG    1        4.422  -0.642   1.287  0.00  0.00    +0.262 C 
ATOM     13  O   LIG    1        4.596  -1.498   2.129  0.00  0.00    -0.271 OA
ENDROOT
BRANCH   9  14
ATOM     14  C   LIG    1        1.196   1.875  -0.069  0.00  0.00    +0.001 A 
ATOM     15  C   LIG    1        1.160   3.209   0.338  0.00  0.00    +0.010 A 
ATOM     16  C   LIG    1       -0.037   3.896   0.334  0.00  0.00    +0.001 A 
ATOM     17  C   LIG    1       -1.197   3.268  -0.083  0.00  0.00    +0.000 A 
ATOM     18  C   LIG    1       -1.167   1.945  -0.488  0.00  0.00    +0.001 A 
ATOM     19  C   LIG    1        0.022   1.246  -0.483  0.00  0.00    +0.010 A 
ENDBRANCH   9  14
BRANCH  11  20
ATOM     20  N   LIG    1        4.431  -0.710  -1.139  0.00  0.00    -0.270 N 
ATOM     21  H   LIG    1        4.938   0.114  -1.206  0.00  0.00    +0.153 HD
ATOM     22  C   LIG    1        4.466  -1.607  -2.143  0.00  0.00    +0.306 C 
ATOM     23  N   LIG    1        5.207  -1.361  -3.241  0.00  0.00    -0.269 N 
ATOM     24  H   LIG    1        5.771  -0.573  -3.279  0.00  0.00    +0.156 HD
ATOM     25  O   LIG    1        3.830  -2.640  -2.058  0.00  0.00    -0.252 OA
BRANCH  23  26
ATOM     26  C   LIG    1        5.163  -2.242  -4.328  0.00  0.00    +0.035 A 
ATOM     27  C   LIG    1        6.295  -2.446  -5.105  0.00  0.00    +0.025 A 
ATOM     28  C   LIG    1        6.250  -3.319  -6.174  0.00  0.00    +0.022 A 
ATOM     29  C   LIG    1        5.074  -3.983  -6.478  0.00  0.00    +0.041 A 
ATOM     30 CL   LIG    1        5.019  -5.074  -7.826  0.00  0.00    -0.084 Cl
ATOM     31  C   LIG    1        3.943  -3.777  -5.708  0.00  0.00    +0.022 A 
ATOM     32  C   LIG    1        3.984  -2.909  -4.635  0.00  0.00    +0.025 A 
ENDBRANCH  23  26
ENDBRANCH  11  20
TORSDOF 3
