REMARK  Name = ZINC13586477
REMARK                            x       y       z     vdW  Elec       q    Type
REMARK                         _______ _______ _______ _____ _____    ______ ____
ROOT
ATOM      1  C   LIG    1       -1.310   2.116   0.020  0.00  0.00    +0.077 A 
ATOM      2  C   LIG    1       -1.337   3.511   0.033  0.00  0.00    +0.057 A 
ATOM      3  C   LIG    1       -2.578   4.149   0.037  0.00  0.00    +0.077 A 
ATOM      4  N   LIG    1       -3.685   3.409   0.038  0.00  0.00    -0.214 NA
ATOM      5  C   LIG    1       -3.619   2.087   0.030  0.00  0.00    +0.223 A 
ATOM      6  N   LIG    1       -2.461   1.447   0.022  0.00  0.00    -0.214 NA
ENDROOT
BRANCH   1  10
ATOM      7  C   LIG    1        2.396   0.033  -0.021  0.00  0.00    +0.000 A 
ATOM      8  C   LIG    1        1.208  -0.675  -0.013  0.00  0.00    +0.001 A 
ATOM      9  C   LIG    1        0.002  -0.004   0.002  0.00  0.00    +0.010 A 
ATOM     10  C   LIG    1       -0.017   1.390   0.010  0.00  0.00    +0.001 A 
ATOM     11  C   LIG    1        1.184   2.098   0.002  0.00  0.00    +0.010 A 
ATOM     12  C   LIG    1        2.384   1.416  -0.013  0.00  0.00    +0.001 A 
ENDBRANCH   1  10
BRANCH   3  13
ATOM     13  C   LIG    1       -2.663   5.629   0.045  0.00  0.00    +0.001 A 
ATOM     14  C   LIG    1       -1.499   6.397   0.050  0.00  0.00    +0.010 A 
ATOM     15  C   LIG    1       -1.584   7.774   0.051  0.00  0.00    +0.001 A 
ATOM     16  C   LIG    1       -2.821   8.393   0.061  0.00  0.00    +0.000 A 
ATOM     17  C   LIG    1       -3.979   7.637   0.062  0.00  0.00    +0.001 A 
ATOM     18  C   LIG    1       -3.906   6.259   0.054  0.00  0.00    +0.010 A 
ENDBRANCH   3  13
BRANCH   5  19
ATOM     19  N   LIG    1       -4.797   1.352   0.032  0.00  0.00    -0.254 N 
ATOM     20  H   LIG    1       -4.760   0.252   0.025  0.00  0.00    +0.158 HD
ATOM     21  C   LIG    1       -5.987   1.985   0.041  0.00  0.00    +0.222 C 
ATOM     22  O   LIG    1       -6.029   3.197   0.048  0.00  0.00    -0.275 OA
BRANCH  21  23
ATOM     23  C   LIG    1       -7.265   1.187   0.042  0.00  0.00    +0.075 C 
ATOM     24  C   LIG    1       -7.322   0.313  -1.212  0.00  0.00    +0.013 C 
ATOM     25  C   LIG    1       -8.620  -0.497  -1.211  0.00  0.00    +0.001 C 
ATOM     26  C   LIG    1       -9.816   0.456  -1.200  0.00  0.00    +0.000 C 
ATOM     27  C   LIG    1       -9.760   1.331   0.054  0.00  0.00    +0.001 C 
ATOM     28  C   LIG    1       -8.462   2.141   0.053  0.00  0.00    +0.013 C 
ENDBRANCH  21  23
ENDBRANCH   5  19
TORSDOF 4
