REMARK  Name = ZINC13742935
REMARK                            x       y       z     vdW  Elec       q    Type
REMARK                         _______ _______ _______ _____ _____    ______ ____
ROOT
ATOM      1  C   LIG    1       -0.793   3.033  -1.078  0.00  0.00    -0.041 C 
ATOM      2  C   LIG    1       -0.395   3.717  -2.123  0.00  0.00    +0.059 C 
ENDROOT
BRANCH   2   3
ATOM      3  P   LIG    1        0.154   2.850  -3.619  0.00  0.00    +0.212 P 
ATOM      4  O   LIG    1       -0.952   2.014  -4.138  0.00  0.00    -0.290 OA
ATOM      5  H   LIG    1        0.966   2.114  -3.525  0.00  0.00    +0.132 HD
BRANCH   3   6
ATOM      6  O   LIG    1        0.584   3.926  -4.736  0.00  0.00    -0.343 OA
ATOM      7  H   LIG    1        1.308   4.474  -4.395  0.00  0.00    +0.218 HD
ENDBRANCH   3   6
ENDBRANCH   2   3
BRANCH   1   8
ATOM      8  C   LIG    1       -0.795   1.527  -1.120  0.00  0.00    -0.058 C 
BRANCH   8   9
ATOM      9  N   LIG    1       -0.012   1.005   0.008  0.00  0.00    +0.380 N 
ATOM     10  H   LIG    1        1.023   1.372  -0.064  0.00  0.00    -0.090 HD
ATOM     11  H   LIG    1       -0.457   1.346   0.954  0.00  0.00    -0.090 HD
ATOM     12  H   LIG    1       -0.013  -0.095  -0.023  0.00  0.00    -0.090 HD
ENDBRANCH   8   9
ENDBRANCH   1   8
TORSDOF 4
