REMARK  Name = ZINC13579578
REMARK                            x       y       z     vdW  Elec       q    Type
REMARK                         _______ _______ _______ _____ _____    ______ ____
ROOT
ATOM      1  C   LIG    1       -2.491   3.913   0.045  0.00  0.00    +0.065 C 
ATOM      2  C   LIG    1       -1.186   3.159   0.029  0.00  0.00    +0.041 A 
ATOM      3  C   LIG    1       -1.207   1.772   0.017  0.00  0.00    +0.024 A 
ATOM      4  C   LIG    1       -0.013   1.076   0.008  0.00  0.00    +0.017 A 
ATOM      5  C   LIG    1        1.174   1.812   0.001  0.00  0.00    +0.064 A 
ATOM      6  C   LIG    1        2.491   1.155  -0.015  0.00  0.00    +0.191 A 
ATOM      7  C   LIG    1        3.640   1.982  -0.021  0.00  0.00    +0.069 A 
ATOM      8  C   LIG    1        3.502   3.324  -0.013  0.00  0.00    +0.088 A 
ATOM      9  N   LIG    1        2.293   3.935   0.001  0.00  0.00    -0.346 N 
ATOM     10  H   LIG    1        2.231   5.033   0.007  0.00  0.00    +0.167 HD
ATOM     11  O   LIG    1        2.590  -0.061  -0.021  0.00  0.00    -0.287 OA
ATOM     12  C   LIG    1        1.120   3.217   0.008  0.00  0.00    +0.142 A 
ATOM     13  N   LIG    1       -0.055   3.832   0.022  0.00  0.00    -0.234 NA
ENDROOT
TORSDOF 0
