REMARK  Name = ZINC13675242
REMARK                            x       y       z     vdW  Elec       q    Type
REMARK                         _______ _______ _______ _____ _____    ______ ____
ROOT
ATOM      1  C   LIG    1        3.766  -0.354  -0.036  0.00  0.00    +0.075 C 
ATOM      2  N   LIG    1        4.154  -1.586  -0.041  0.00  0.00    -0.181 NA
ATOM      3  N   LIG    1        5.537  -1.746  -0.060  0.00  0.00    -0.197 N 
ATOM      4  C   LIG    1        6.171  -0.418  -0.059  0.00  0.00    +0.136 C 
ATOM      5  C   LIG    1        4.975   0.554  -0.043  0.00  0.00    +0.087 C 
ENDROOT
BRANCH   4   6
ATOM      6  C   LIG    1        7.019  -0.236   1.173  0.00  0.00    -0.025 A 
ATOM      7  C   LIG    1        6.629  -0.805   2.371  0.00  0.00    +0.007 A 
ATOM      8  C   LIG    1        7.409  -0.644   3.500  0.00  0.00    +0.020 A 
ATOM      9  C   LIG    1        8.575   0.097   3.434  0.00  0.00    +0.041 A 
ATOM     10 CL   LIG    1        9.553   0.306   4.854  0.00  0.00    -0.084 Cl
ATOM     11  C   LIG    1        8.963   0.672   2.237  0.00  0.00    +0.020 A 
ATOM     12  C   LIG    1        8.185   0.505   1.107  0.00  0.00    +0.007 A 
ENDBRANCH   4   6
BRANCH   1  15
ATOM     13  C   LIG    1        0.002  -0.004   0.002  0.00  0.00    +0.008 A 
ATOM     14  C   LIG    1        1.211  -0.661  -0.013  0.00  0.00    +0.017 A 
ATOM     15  C   LIG    1        2.370   0.095  -0.020  0.00  0.00    +0.035 A 
ATOM     16  S   LIG    1        1.722   1.758  -0.005  0.00  0.00    -0.095 S 
ATOM     17  C   LIG    1       -0.016   1.354   0.009  0.00  0.00    +0.046 A 
ENDBRANCH   1  15
BRANCH   3  18
ATOM     18  C   LIG    1        6.190  -2.925  -0.072  0.00  0.00    +0.151 C 
ATOM     19  S   LIG    1        7.901  -2.957  -0.088  0.00  0.00    -0.017 S 
BRANCH  18  20
ATOM     20  N   LIG    1        5.495  -4.080  -0.072  0.00  0.00    -0.339 N 
ATOM     21  H   LIG    1        5.964  -4.929  -0.081  0.00  0.00    +0.144 HD
ATOM     22  H   LIG    1        4.525  -4.062  -0.063  0.00  0.00    +0.144 HD
ENDBRANCH  18  20
ENDBRANCH   3  18
TORSDOF 4
