REMARK  Name = ZINC13558816
REMARK                            x       y       z     vdW  Elec       q    Type
REMARK                         _______ _______ _______ _____ _____    ______ ____
ROOT
ATOM      1  C   LIG    1       -1.302  -5.783  -0.011  0.00  0.00    +0.045 C 
ATOM      2  C   LIG    1       -0.575  -4.463  -0.019  0.00  0.00    -0.034 A 
ATOM      3  C   LIG    1        0.830  -4.438  -0.049  0.00  0.00    +0.008 A 
ATOM      4  C   LIG    1        1.483  -3.245  -0.056  0.00  0.00    +0.047 A 
ATOM      5  C   LIG    1        0.737  -2.049  -0.031  0.00  0.00    +0.138 A 
ATOM      6  N   LIG    1        1.101  -0.775  -0.037  0.00  0.00    -0.228 NA
ATOM      7  C   LIG    1        0.003  -0.004  -0.003  0.00  0.00    +0.090 A 
ATOM      8  C   LIG    1       -1.091  -0.817   0.016  0.00  0.00    +0.121 A 
ATOM      9  N   LIG    1       -0.633  -2.105  -0.002  0.00  0.00    -0.306 N 
ATOM     10  C   LIG    1       -1.275  -3.310   0.004  0.00  0.00    +0.096 A 
ENDROOT
BRANCH   7  11
ATOM     11  C   LIG    1       -0.018   1.480   0.007  0.00  0.00    +0.002 A 
ATOM     12  C   LIG    1       -1.234   2.161   0.031  0.00  0.00    +0.012 A 
ATOM     13  C   LIG    1       -1.250   3.540   0.045  0.00  0.00    +0.024 A 
ATOM     14  C   LIG    1       -0.056   4.250   0.024  0.00  0.00    +0.029 A 
ATOM     15  C   LIG    1        1.158   3.573  -0.007  0.00  0.00    +0.024 A 
ATOM     16  C   LIG    1        1.179   2.194  -0.015  0.00  0.00    +0.012 A 
BRANCH  14  17
ATOM     17  N   LIG    1       -0.075   5.646   0.033  0.00  0.00    -0.336 N 
ATOM     18  C   LIG    1       -1.349   6.362  -0.062  0.00  0.00    +0.129 C 
ATOM     19  C   LIG    1        1.180   6.395   0.137  0.00  0.00    +0.129 C 
ENDBRANCH  14  17
ENDBRANCH   7  11
TORSDOF 2
