REMARK  Name = ZINC13676539
REMARK                            x       y       z     vdW  Elec       q    Type
REMARK                         _______ _______ _______ _____ _____    ______ ____
ROOT
ATOM      1  C   LIG    1       -2.431   1.131   0.024  0.00  0.00    +0.165 C 
ENDROOT
BRANCH   1   2
ATOM      2  N   LIG    1       -1.156   1.560  -0.556  0.00  0.00    -0.270 N 
ATOM      3  H   LIG    1       -1.050   2.470  -0.875  0.00  0.00    +0.153 HD
ATOM      4  C   LIG    1       -0.130   0.691  -0.644  0.00  0.00    +0.401 C 
ATOM      5  O   LIG    1       -0.262  -0.449  -0.244  0.00  0.00    -0.226 OA
BRANCH   4   6
ATOM      6  O   LIG    1        1.041   1.083  -1.182  0.00  0.00    -0.445 OA
BRANCH   6   7
ATOM      7  C   LIG    1        2.100   0.093  -1.251  0.00  0.00    +0.107 C 
ATOM      8  C   LIG    1        2.438  -0.392   0.160  0.00  0.00    +0.055 C 
ATOM      9  C   LIG    1        3.343   0.719  -1.887  0.00  0.00    +0.055 C 
ATOM     10  C   LIG    1        1.635  -1.093  -2.100  0.00  0.00    +0.055 C 
ENDBRANCH   6   7
ENDBRANCH   4   6
ENDBRANCH   1   2
BRANCH   1  11
ATOM     11  C   LIG    1       -3.543   1.991  -0.517  0.00  0.00    +0.234 C 
ATOM     12  N   LIG    1       -4.819   1.559  -0.460  0.00  0.00    -0.301 N 
ATOM     13  H   LIG    1       -5.014   0.666  -0.136  0.00  0.00    +0.150 HD
ATOM     14  O   LIG    1       -3.291   3.073  -1.005  0.00  0.00    -0.274 OA
BRANCH  12  15
ATOM     15  C   LIG    1       -5.910   2.439  -0.885  0.00  0.00    +0.223 C 
BRANCH  15  16
ATOM     16  C   LIG    1       -7.195   1.739  -0.726  0.00  0.00    +0.081 C 
ATOM     17  N   LIG    1       -8.187   1.198  -0.603  0.00  0.00    -0.195 NA
ENDBRANCH  15  16
ENDBRANCH  12  15
ENDBRANCH   1  11
BRANCH   1  19
ATOM     18  C   LIG    1       -1.322   0.310   2.107  0.00  0.00    +0.009 C 
ATOM     19  C   LIG    1       -2.372   1.271   1.546  0.00  0.00    +0.012 C 
ATOM     20  C   LIG    1       -1.996   2.708   1.912  0.00  0.00    +0.009 C 
ENDBRANCH   1  19
TORSDOF 7
