REMARK  Name = ZINC13680681
REMARK                            x       y       z     vdW  Elec       q    Type
REMARK                         _______ _______ _______ _____ _____    ______ ____
ROOT
ATOM      1  C   LIG    1        2.489  -2.488  -4.355  0.00  0.00    +0.028 C 
ATOM      2  C   LIG    1        2.628  -3.838  -4.378  0.00  0.00    +0.078 C 
ATOM      3  C   LIG    1        3.331  -4.696  -5.353  0.00  0.00    +0.273 C 
ATOM      4  N   LIG    1        3.305  -5.998  -5.124  0.00  0.00    -0.167 N 
ATOM      5  C   LIG    1        2.667  -6.512  -4.053  0.00  0.00    +0.137 C 
ATOM      6  S   LIG    1        2.522  -8.154  -3.590  0.00  0.00    -0.026 S 
ATOM      7  O   LIG    1        3.906  -4.227  -6.318  0.00  0.00    -0.268 OA
ATOM      8  S   LIG    1        2.016  -5.066  -3.232  0.00  0.00    -0.060 S 
ENDROOT
BRANCH   1  12
ATOM      9  C   LIG    1        0.765  -0.591  -0.977  0.00  0.00    +0.120 A 
ATOM     10  C   LIG    1        1.068  -1.947  -0.930  0.00  0.00    +0.046 A 
ATOM     11  C   LIG    1        1.628  -2.568  -2.024  0.00  0.00    +0.011 A 
ATOM     12  C   LIG    1        1.891  -1.831  -3.185  0.00  0.00    -0.024 A 
ATOM     13  C   LIG    1        1.584  -0.466  -3.227  0.00  0.00    +0.011 A 
ATOM     14  C   LIG    1        1.020   0.144  -2.129  0.00  0.00    +0.046 A 
BRANCH   9  16
ATOM     15  C   LIG    1       -0.022  -0.798   1.256  0.00  0.00    +0.277 C 
ATOM     16  O   LIG    1        0.213   0.016   0.105  0.00  0.00    -0.495 OA
ENDBRANCH   9  16
ENDBRANCH   1  12
BRANCH   4  17
ATOM     17  N   LIG    1        3.954  -6.862  -6.015  0.00  0.00    -0.100 NA
ATOM     18  H   LIG    1        3.473  -7.227  -6.775  0.00  0.00    +0.172 HD
BRANCH  17  19
ATOM     19  S   LIG    1        5.542  -7.263  -5.771  0.00  0.00    +0.074 S 
ATOM     20  O   LIG    1        6.257  -6.039  -5.663  0.00  0.00    -0.152 OA
ATOM     21  O   LIG    1        5.866  -8.251  -6.740  0.00  0.00    -0.152 OA
BRANCH  19  22
ATOM     22  C   LIG    1        5.646  -8.047  -4.197  0.00  0.00    +0.107 A 
ATOM     23  C   LIG    1        5.869  -7.292  -3.061  0.00  0.00    +0.028 A 
ATOM     24  C   LIG    1        5.951  -7.907  -1.826  0.00  0.00    +0.002 A 
ATOM     25  C   LIG    1        5.808  -9.278  -1.727  0.00  0.00    +0.000 A 
ATOM     26  C   LIG    1        5.584 -10.034  -2.862  0.00  0.00    +0.002 A 
ATOM     27  C   LIG    1        5.498  -9.418  -4.097  0.00  0.00    +0.028 A 
ENDBRANCH  19  22
ENDBRANCH  17  19
ENDBRANCH   4  17
TORSDOF 5
