REMARK  Name = ZINC13584996
REMARK                            x       y       z     vdW  Elec       q    Type
REMARK                         _______ _______ _______ _____ _____    ______ ____
ROOT
ATOM      1  C   LIG    1        3.677  -0.730  -0.093  0.00  0.00    +0.103 A 
ATOM      2  C   LIG    1        3.996  -1.860   0.684  0.00  0.00    +0.054 A 
ATOM      3  C   LIG    1        5.340  -2.164   0.439  0.00  0.00    +0.165 A 
ATOM      4  N   LIG    1        6.146  -3.123   0.905  0.00  0.00    -0.223 NA
ATOM      5  C   LIG    1        7.398  -3.200   0.514  0.00  0.00    +0.148 A 
ATOM      6  C   LIG    1        7.909  -2.270  -0.402  0.00  0.00    +0.064 A 
ATOM      7  C   LIG    1        7.100  -1.293  -0.882  0.00  0.00    +0.149 A 
ATOM      8  N   LIG    1        5.803  -1.236  -0.459  0.00  0.00    -0.209 N 
ATOM      9  N   LIG    1        4.750  -0.369  -0.771  0.00  0.00    -0.164 NA
ENDROOT
BRANCH   1  13
ATOM     10  C   LIG    1       -0.114   1.190  -0.241  0.00  0.00    +0.000 A 
ATOM     11  C   LIG    1        0.391   0.755   0.971  0.00  0.00    +0.001 A 
ATOM     12  C   LIG    1        1.621   0.131   1.025  0.00  0.00    +0.010 A 
ATOM     13  C   LIG    1        2.354  -0.060  -0.144  0.00  0.00    +0.003 A 
ATOM     14  C   LIG    1        1.841   0.380  -1.363  0.00  0.00    +0.010 A 
ATOM     15  C   LIG    1        0.610   1.002  -1.405  0.00  0.00    +0.001 A 
ENDBRANCH   1  13
BRANCH   2  16
ATOM     16  C   LIG    1        3.081  -2.591   1.590  0.00  0.00    -0.012 A 
ATOM     17  C   LIG    1        3.304  -2.578   2.967  0.00  0.00    +0.012 A 
ATOM     18  C   LIG    1        2.450  -3.260   3.809  0.00  0.00    +0.046 A 
ATOM     19  C   LIG    1        1.369  -3.957   3.287  0.00  0.00    +0.117 A 
ATOM     20  C   LIG    1        1.143  -3.971   1.917  0.00  0.00    +0.046 A 
ATOM     21  C   LIG    1        1.990  -3.288   1.070  0.00  0.00    +0.012 A 
BRANCH  19  22
ATOM     22  O   LIG    1        0.529  -4.627   4.119  0.00  0.00    -0.507 OA
ATOM     23  H   LIG    1       -0.217  -4.098   4.435  0.00  0.00    +0.292 HD
ENDBRANCH  19  22
ENDBRANCH   2  16
BRANCH   5  24
ATOM     24  C   LIG    1        8.287  -4.290   1.053  0.00  0.00    +0.434 C 
ATOM     25  F   LIG    1        9.375  -3.717   1.721  0.00  0.00    -0.164 F 
ATOM     26  F   LIG    1        8.753  -5.078  -0.005  0.00  0.00    -0.164 F 
ATOM     27  F   LIG    1        7.561  -5.087   1.944  0.00  0.00    -0.164 F 
ENDBRANCH   5  24
BRANCH   7  28
ATOM     28  C   LIG    1        7.627  -0.282  -1.867  0.00  0.00    +0.434 C 
ATOM     29  F   LIG    1        7.509   1.003  -1.326  0.00  0.00    -0.164 F 
ATOM     30  F   LIG    1        6.888  -0.358  -3.053  0.00  0.00    -0.164 F 
ATOM     31  F   LIG    1        8.973  -0.551  -2.138  0.00  0.00    -0.164 F 
ENDBRANCH   7  28
TORSDOF 5
