REMARK  Name = ZINC13588690
REMARK                            x       y       z     vdW  Elec       q    Type
REMARK                         _______ _______ _______ _____ _____    ______ ____
ROOT
ATOM      1  C   LIG    1       -0.018   1.472   0.010  0.00  0.00    +0.147 C 
ATOM      2  C   LIG    1        1.481   1.846  -0.002  0.00  0.00    +0.250 C 
ATOM      3  O   LIG    1        2.123   0.611   0.372  0.00  0.00    -0.466 OA
ATOM      4  C   LIG    1        1.321  -0.390  -0.060  0.00  0.00    +0.253 C 
ATOM      5  N   LIG    1        1.737  -1.551  -0.474  0.00  0.00    -0.357 N 
ATOM      6  H   LIG    1        1.098  -2.219  -0.768  0.00  0.00    +0.160 HD
ATOM      7  H   LIG    1        2.687  -1.749  -0.488  0.00  0.00    +0.160 HD
ATOM      8  N   LIG    1        0.002  -0.004   0.002  0.00  0.00    -0.298 N 
ATOM      9  H   LIG    1       -0.769  -0.591   0.034  0.00  0.00    +0.150 HD
ENDROOT
TORSDOF 0
