REMARK  Name = ZINC13686576
REMARK                            x       y       z     vdW  Elec       q    Type
REMARK                         _______ _______ _______ _____ _____    ______ ____
ROOT
ATOM      1  C   LIG    1        0.011   1.072   2.506  0.00  0.00    +0.102 C 
ENDROOT
BRANCH   1   2
ATOM      2  C   LIG    1        1.384   1.692   2.560  0.00  0.00    +0.308 C 
ATOM      3  O   LIG    1        1.734   2.460   1.696  0.00  0.00    -0.251 OA
BRANCH   2   4
ATOM      4  O   LIG    1        2.217   1.390   3.568  0.00  0.00    -0.480 OA
ATOM      5  H   LIG    1        1.945   0.795   4.239  0.00  0.00    +0.295 HD
ENDBRANCH   2   4
ENDBRANCH   1   2
BRANCH   1   6
ATOM      6  C   LIG    1       -0.772   1.460   3.762  0.00  0.00    +0.049 C 
BRANCH   6  10
ATOM      7  C   LIG    1        1.105  -0.251   7.197  0.00  0.00    +0.000 A 
ATOM      8  C   LIG    1        1.477   1.007   6.760  0.00  0.00    +0.000 A 
ATOM      9  C   LIG    1        0.870   1.560   5.649  0.00  0.00    +0.003 A 
ATOM     10  C   LIG    1       -0.110   0.856   4.974  0.00  0.00    -0.047 A 
ATOM     11  C   LIG    1       -0.486  -0.399   5.413  0.00  0.00    +0.003 A 
ATOM     12  C   LIG    1        0.125  -0.955   6.522  0.00  0.00    +0.000 A 
ENDBRANCH   6  10
ENDBRANCH   1   6
BRANCH   1  13
ATOM     13  C   LIG    1       -0.729   1.579   1.267  0.00  0.00    +0.016 C 
BRANCH  13  14
ATOM     14  C   LIG    1       -0.013   1.086   0.008  0.00  0.00    +0.011 C 
BRANCH  14  15
ATOM     15  C   LIG    1       -0.753   1.593  -1.232  0.00  0.00    +0.065 C 
BRANCH  15  16
ATOM     16  S   LIG    1        0.096   1.008  -2.724  0.00  0.00    -0.178 S 
ATOM     17  H   LIG    1       -0.637   1.510  -3.733  0.00  0.00    +0.102 HD
ENDBRANCH  15  16
ENDBRANCH  14  15
ENDBRANCH  13  14
ENDBRANCH   1  13
TORSDOF 8
