REMARK  Name = ZINC13588596
REMARK                            x       y       z     vdW  Elec       q    Type
REMARK                         _______ _______ _______ _____ _____    ______ ____
ROOT
ATOM      1  CA  PHE A  1        4.035  -0.071  -2.601  0.00  0.00    +0.139 C 
ENDROOT
BRANCH   1   3
ATOM      2  C   UNK A  0        1.952  -0.085  -1.337  0.00  0.00    +0.401 C 
ATOM      3  N   PHE A  1        2.641  -0.485  -2.424  0.00  0.00    -0.272 N 
ATOM      4  H   PHE A  1        2.213  -1.047  -3.089  0.00  0.00    +0.153 HD
ATOM      5  O   UNK A  0        2.488   0.619  -0.503  0.00  0.00    -0.226 OA
BRANCH   2   6
ATOM      6  O   UNK A  0        0.671  -0.465  -1.174  0.00  0.00    -0.445 OA
BRANCH   6   8
ATOM      7  C   UNK A  0       -0.019   1.526   0.010  0.00  0.00    +0.055 C 
ATOM      8  C   UNK A  0        0.002  -0.004   0.002  0.00  0.00    +0.107 C 
ATOM      9  C   UNK A  0       -1.433  -0.534   0.013  0.00  0.00    +0.055 C 
ATOM     10  C   UNK A  0        0.742  -0.511   1.242  0.00  0.00    +0.055 C 
ENDBRANCH   6   8
ENDBRANCH   2   6
ENDBRANCH   1   3
BRANCH   1  11
ATOM     11  C   PHE A  1        4.077   1.287  -3.253  0.00  0.00    +0.245 C 
ATOM     12  O   PHE A  1        3.049   1.851  -3.539  0.00  0.00    -0.299 OA
ENDBRANCH   1  11
BRANCH   1  13
ATOM     13  CB  PHE A  1        4.759  -1.086  -3.489  0.00  0.00    +0.033 C 
BRANCH  13  14
ATOM     14  CG  PHE A  1        4.825  -2.436  -2.772  0.00  0.00    -0.009 C 
ATOM     15  CD2 PHE A  1        5.691  -2.305  -1.518  0.00  0.00    +0.003 C 
ATOM     16  CE2 PHE A  1        5.758  -3.655  -0.801  0.00  0.00    +0.000 C 
ATOM     17  CZ  PHE A  1        6.369  -4.699  -1.736  0.00  0.00    +0.000 C 
ATOM     18  CE1 PHE A  1        5.503  -4.830  -2.990  0.00  0.00    +0.000 C 
ATOM     19  CD1 PHE A  1        5.436  -3.481  -3.708  0.00  0.00    +0.003 C 
ENDBRANCH  13  14
ENDBRANCH   1  13
TORSDOF 6
