REMARK  Name = ZINC13588927
REMARK                            x       y       z     vdW  Elec       q    Type
REMARK                         _______ _______ _______ _____ _____    ______ ____
ROOT
ATOM      1  C   LIG    1        3.299   9.976  -0.290  0.00  0.00    +0.022 A 
ATOM      2  C   LIG    1        3.948   9.009   0.458  0.00  0.00    +0.027 A 
ATOM      3  C   LIG    1        3.354   7.752   0.604  0.00  0.00    +0.061 A 
ATOM      4  C   LIG    1        2.142   7.511  -0.045  0.00  0.00    +0.108 A 
ATOM      5  C   LIG    1        1.473   6.193   0.004  0.00  0.00    +0.071 A 
ATOM      6  C   LIG    1        2.114   4.996   0.011  0.00  0.00    -0.004 A 
ATOM      7  C   LIG    1        3.612   4.824   0.035  0.00  0.00    +0.134 C 
ATOM      8  C   LIG    1        4.137   5.531   1.260  0.00  0.00    +0.222 C 
ATOM      9  O   LIG    1        4.721   4.889   2.107  0.00  0.00    -0.275 OA
ATOM     10  C   LIG    1        1.098   3.966   0.012  0.00  0.00    +0.005 A 
ATOM     11  C   LIG    1        1.169   2.568   0.005  0.00  0.00    +0.025 A 
ATOM     12  C   LIG    1       -0.024   1.887   0.012  0.00  0.00    +0.019 A 
ATOM     13 BR   LIG    1        0.002  -0.004   0.002  0.00  0.00    -0.050 Br
ATOM     14  C   LIG    1       -1.245   2.542   0.022  0.00  0.00    +0.017 A 
ATOM     15  C   LIG    1       -1.344   3.922   0.033  0.00  0.00    +0.027 A 
ATOM     16  C   LIG    1       -0.150   4.642   0.025  0.00  0.00    +0.047 A 
ATOM     17  N   LIG    1        0.108   5.982   0.026  0.00  0.00    -0.353 N 
ATOM     18  H   LIG    1       -0.565   6.681   0.040  0.00  0.00    +0.166 HD
ATOM     19  N   LIG    1        1.551   8.482  -0.745  0.00  0.00    -0.252 NA
ATOM     20  N   LIG    1        3.978   6.841   1.436  0.00  0.00    -0.283 N 
ATOM     21  H   LIG    1        4.350   7.205   2.255  0.00  0.00    +0.155 HD
ATOM     22  C   LIG    1        2.083   9.676  -0.877  0.00  0.00    +0.111 A 
ENDROOT
TORSDOF 0
