REMARK  Name = ZINC13704383
REMARK                            x       y       z     vdW  Elec       q    Type
REMARK                         _______ _______ _______ _____ _____    ______ ____
ROOT
ATOM      1  C   LIG    1        7.593  -2.289  -0.474  0.00  0.00    +0.095 A 
ATOM      2  C   LIG    1        6.214  -2.021  -0.386  0.00  0.00    +0.074 A 
ATOM      3  C   LIG    1        6.058  -0.675  -0.272  0.00  0.00    +0.129 A 
ATOM      4  N   LIG    1        7.298  -0.112  -0.293  0.00  0.00    -0.216 N 
ATOM      5  N   LIG    1        8.239  -1.143  -0.414  0.00  0.00    -0.165 NA
ENDROOT
BRANCH   4   6
ATOM      6  C   LIG    1        7.583   1.257  -0.204  0.00  0.00    +0.086 A 
ATOM      7  C   LIG    1        6.917   2.160  -1.023  0.00  0.00    +0.029 A 
ATOM      8  C   LIG    1        7.200   3.509  -0.934  0.00  0.00    +0.002 A 
ATOM      9  C   LIG    1        8.145   3.961  -0.031  0.00  0.00    +0.002 A 
ATOM     10  C   LIG    1        8.810   3.065   0.786  0.00  0.00    +0.022 A 
ATOM     11  C   LIG    1        8.527   1.714   0.706  0.00  0.00    +0.066 A 
ATOM     12 CL   LIG    1        9.357   0.590   1.737  0.00  0.00    -0.081 Cl
ENDBRANCH   4   6
BRANCH   1  16
ATOM     13  C   LIG    1        9.366  -6.134  -0.863  0.00  0.00    +0.000 A 
ATOM     14  C   LIG    1       10.167  -5.008  -0.813  0.00  0.00    +0.001 A 
ATOM     15  C   LIG    1        9.597  -3.757  -0.686  0.00  0.00    +0.010 A 
ATOM     16  C   LIG    1        8.211  -3.631  -0.610  0.00  0.00    +0.002 A 
ATOM     17  C   LIG    1        7.409  -4.769  -0.655  0.00  0.00    +0.010 A 
ATOM     18  C   LIG    1        7.990  -6.014  -0.787  0.00  0.00    +0.001 A 
ENDBRANCH   1  16
BRANCH   3  19
ATOM     19  N   LIG    1        4.847   0.006  -0.161  0.00  0.00    -0.266 N 
ATOM     20  H   LIG    1        4.835   0.976  -0.165  0.00  0.00    +0.157 HD
ATOM     21  C   LIG    1        3.695  -0.683  -0.047  0.00  0.00    +0.249 C 
ATOM     22  O   LIG    1        3.718  -1.894   0.058  0.00  0.00    -0.270 OA
BRANCH  21  23
ATOM     23  C   LIG    1        2.402   0.034  -0.050  0.00  0.00    +0.037 A 
ATOM     24  C   LIG    1        1.203  -0.681  -0.039  0.00  0.00    +0.013 A 
ATOM     25  C   LIG    1        0.001  -0.006  -0.042  0.00  0.00    +0.001 A 
ATOM     26  C   LIG    1       -0.020   1.378  -0.055  0.00  0.00    +0.000 A 
ATOM     27  C   LIG    1        1.165   2.093  -0.066  0.00  0.00    +0.001 A 
ATOM     28  C   LIG    1        2.374   1.430  -0.064  0.00  0.00    +0.013 A 
ENDBRANCH  21  23
ENDBRANCH   3  19
TORSDOF 4
