REMARK  Name = ZINC13684559
REMARK                            x       y       z     vdW  Elec       q    Type
REMARK                         _______ _______ _______ _____ _____    ______ ____
ROOT
ATOM      1  C   LIG    1        2.516  -2.730  -0.138  0.00  0.00    +0.008 C 
ATOM      2  C   LIG    1        1.357  -2.172   0.247  0.00  0.00    +0.010 C 
ENDROOT
BRANCH   1   6
ATOM      3  C   LIG    1        6.079  -0.426  -0.160  0.00  0.00    +0.000 A 
ATOM      4  C   LIG    1        6.117  -1.749   0.243  0.00  0.00    +0.001 A 
ATOM      5  C   LIG    1        4.963  -2.504   0.253  0.00  0.00    +0.008 A 
ATOM      6  C   LIG    1        3.753  -1.930  -0.146  0.00  0.00    -0.025 A 
ATOM      7  C   LIG    1        3.724  -0.595  -0.557  0.00  0.00    +0.008 A 
ATOM      8  C   LIG    1        4.885   0.149  -0.556  0.00  0.00    +0.001 A 
ENDBRANCH   1   6
BRANCH   2   9
ATOM      9  C   LIG    1        1.352  -0.826   0.848  0.00  0.00    -0.007 A 
ATOM     10  C   LIG    1        2.373  -0.433   1.724  0.00  0.00    +0.011 A 
ATOM     11  C   LIG    1        2.321   0.841   2.261  0.00  0.00    +0.020 A 
ATOM     12  C   LIG    1        1.273   1.677   1.921  0.00  0.00    +0.111 A 
ATOM     13  N   LIG    1        0.325   1.281   1.094  0.00  0.00    -0.263 NA
ATOM     14  C   LIG    1        0.329   0.079   0.556  0.00  0.00    +0.118 A 
ENDBRANCH   2   9
TORSDOF 2
