REMARK  Name = ZINC13686653
REMARK                            x       y       z     vdW  Elec       q    Type
REMARK                         _______ _______ _______ _____ _____    ______ ____
ROOT
ATOM      1  C   LIG    1       -1.183   1.756   2.892  0.00  0.00    +0.048 C 
ENDROOT
BRANCH   1   4
ATOM      2  C   LIG    1       -0.179   5.202   4.077  0.00  0.00    +0.001 A 
ATOM      3  C   LIG    1       -0.389   3.834   4.039  0.00  0.00    +0.004 A 
ATOM      4  C   LIG    1       -0.964   3.247   2.926  0.00  0.00    -0.046 A 
ATOM      5  C   LIG    1       -1.342   4.023   1.850  0.00  0.00    +0.018 A 
ATOM      6  C   LIG    1       -1.139   5.404   1.884  0.00  0.00    +0.059 A 
ATOM      7  C   LIG    1       -0.553   5.990   3.008  0.00  0.00    +0.015 A 
BRANCH   6   8
ATOM      8  C   LIG    1       -1.541   6.241   0.735  0.00  0.00    +0.337 C 
ATOM      9  O   LIG    1       -2.051   5.729  -0.241  0.00  0.00    -0.245 OA
BRANCH   8  10
ATOM     10  O   LIG    1       -1.344   7.573   0.771  0.00  0.00    -0.477 OA
ATOM     11  H   LIG    1       -0.951   7.969   1.524  0.00  0.00    +0.295 HD
ENDBRANCH   8  10
ENDBRANCH   6   8
ENDBRANCH   1   4
BRANCH   1  12
ATOM     12  C   LIG    1        0.102   1.062   2.434  0.00  0.00    +0.079 C 
BRANCH  12  13
ATOM     13  C   LIG    1       -0.071  -0.431   2.535  0.00  0.00    +0.214 C 
ATOM     14  N   LIG    1        0.347  -1.085   3.637  0.00  0.00    -0.329 N 
ATOM     15  H   LIG    1        0.172  -2.034   3.735  0.00  0.00    +0.145 HD
ATOM     16  H   LIG    1        0.824  -0.606   4.333  0.00  0.00    +0.145 HD
ATOM     17  O   LIG    1       -0.586  -1.046   1.625  0.00  0.00    -0.276 OA
ENDBRANCH  12  13
BRANCH  12  18
ATOM     18  C   LIG    1        0.398   1.444   0.982  0.00  0.00    +0.014 C 
BRANCH  18  19
ATOM     19  C   LIG    1        1.745   0.852   0.563  0.00  0.00    +0.011 C 
BRANCH  19  20
ATOM     20  C   LIG    1        2.041   1.233  -0.888  0.00  0.00    +0.065 C 
BRANCH  20  21
ATOM     21  S   LIG    1        3.638   0.531  -1.385  0.00  0.00    -0.178 S 
ATOM     22  H   LIG    1        3.786   0.929  -2.661  0.00  0.00    +0.102 HD
ENDBRANCH  20  21
ENDBRANCH  19  20
ENDBRANCH  18  19
ENDBRANCH  12  18
ENDBRANCH   1  12
TORSDOF 9
