REMARK  Name = ZINC13608474
REMARK                            x       y       z     vdW  Elec       q    Type
REMARK                         _______ _______ _______ _____ _____    ______ ____
ROOT
ATOM      1  C   LIG    1        1.230  -0.645  -0.013  0.00  0.00    +0.018 C 
ATOM      2  C   LIG    1        2.387   0.112  -0.020  0.00  0.00    +0.081 C 
ATOM      3  N   LIG    1        2.403   1.471  -0.013  0.00  0.00    -0.314 NA
ATOM      4  H   LIG    1        3.280   2.005  -0.020  0.00  0.00    +0.122 HD
ATOM      5  C   LIG    1        1.188   2.079   0.002  0.00  0.00    +0.099 C 
ATOM      6  C   LIG    1       -0.017   1.389   0.010  0.00  0.00    +0.066 C 
ATOM      7  C   LIG    1        0.002  -0.004   0.002  0.00  0.00    -0.009 C 
ENDROOT
BRANCH   6   8
ATOM      8  N   LIG    1       -1.230   2.081   0.019  0.00  0.00    -0.326 NA
ATOM      9  H   LIG    1       -1.235   3.051   0.025  0.00  0.00    +0.119 HD
ATOM     10  H   LIG    1       -2.068   1.592   0.021  0.00  0.00    +0.119 HD
ENDBRANCH   6   8
BRANCH   7  11
ATOM     11  C   LIG    1       -1.281  -0.794   0.009  0.00  0.00    -0.081 C 
BRANCH  11  12
ATOM     12  N   LIG    1       -1.841  -0.813  -1.353  0.00  0.00    +0.378 N 
ATOM     13  H   LIG    1       -2.053   0.148  -1.645  0.00  0.00    -0.090 HD
ATOM     14  H   LIG    1       -2.699  -1.363  -1.371  0.00  0.00    -0.090 HD
ATOM     15  H   LIG    1       -1.167  -1.217  -2.002  0.00  0.00    -0.090 HD
ENDBRANCH  11  12
ENDBRANCH   7  11
TORSDOF 3
