REMARK  Name = ZINC13675870
REMARK                            x       y       z     vdW  Elec       q    Type
REMARK                         _______ _______ _______ _____ _____    ______ ____
ROOT
ATOM      1  C   LIG    1       -2.553   3.869   0.044  0.00  0.00    +0.063 C 
ATOM      2  C   LIG    1       -3.335   3.484   1.300  0.00  0.00    +0.094 C 
ATOM      3  N   LIG    1       -4.697   4.029   1.187  0.00  0.00    -0.311 NA
ATOM      4  H   LIG    1       -5.210   3.941   2.156  0.00  0.00    +0.122 HD
ATOM      5  C   LIG    1       -5.457   3.288   0.175  0.00  0.00    +0.116 C 
ATOM      6  C   LIG    1       -4.696   3.237  -1.124  0.00  0.00    -0.028 A 
ATOM      7  C   LIG    1       -5.388   2.911  -2.281  0.00  0.00    +0.028 A 
ATOM      8  C   LIG    1       -4.735   2.843  -3.491  0.00  0.00    +0.083 A 
ATOM      9 CL   LIG    1       -5.611   2.430  -4.932  0.00  0.00    -0.080 Cl
ATOM     10  C   LIG    1       -3.374   3.108  -3.556  0.00  0.00    +0.135 A 
ATOM     11  C   LIG    1       -2.684   3.437  -2.401  0.00  0.00    +0.051 A 
ATOM     12  C   LIG    1       -3.345   3.502  -1.185  0.00  0.00    -0.031 A 
ENDROOT
BRANCH   1  16
ATOM     13  C   LIG    1        1.175   1.783   0.000  0.00  0.00    +0.000 A 
ATOM     14  C   LIG    1       -0.013   1.076   0.008  0.00  0.00    +0.000 A 
ATOM     15  C   LIG    1       -1.219   1.751   0.017  0.00  0.00    +0.004 A 
ATOM     16  C   LIG    1       -1.238   3.133   0.029  0.00  0.00    -0.039 A 
ATOM     17  C   LIG    1       -0.050   3.840   0.022  0.00  0.00    +0.004 A 
ATOM     18  C   LIG    1        1.156   3.165   0.008  0.00  0.00    +0.000 A 
ENDBRANCH   1  16
BRANCH  10  19
ATOM     19  O   LIG    1       -2.722   3.045  -4.747  0.00  0.00    -0.505 OA
ATOM     20  H   LIG    1       -3.273   2.783  -5.662  0.00  0.00    +0.292 HD
ENDBRANCH  10  19
TORSDOF 2
