REMARK  Name = ZINC13580718
REMARK                            x       y       z     vdW  Elec       q    Type
REMARK                         _______ _______ _______ _____ _____    ______ ____
ROOT
ATOM      1  C   LIG    1       -0.681   1.795   1.449  0.00  0.00    +0.126 C 
ENDROOT
BRANCH   1   2
ATOM      2  N   LIG    1        0.084   1.555   2.675  0.00  0.00    -0.338 N 
ATOM      3  C   LIG    1       -0.144   0.566   3.594  0.00  0.00    +0.104 A 
ATOM      4  C   LIG    1        0.788   0.706   4.556  0.00  0.00    +0.101 A 
ATOM      5  N   LIG    1        1.557   1.757   4.237  0.00  0.00    -0.352 N 
ATOM      6  H   LIG    1        2.349   2.103   4.792  0.00  0.00    +0.166 HD
ATOM      7  C   LIG    1        1.143   2.270   3.113  0.00  0.00    +0.173 A 
ENDBRANCH   1   2
BRANCH   1   8
ATOM      8  C   LIG    1       -0.147   0.898   0.331  0.00  0.00    +0.008 C 
BRANCH   8  10
ATOM      9  C   LIG    1        1.318   2.760  -0.462  0.00  0.00    +0.004 C 
ATOM     10  C   LIG    1        1.290   1.300  -0.004  0.00  0.00    +0.002 C 
ENDBRANCH   8  10
BRANCH   8  11
ATOM     11  C   LIG    1       -1.024   1.057  -0.913  0.00  0.00    +0.002 C 
ATOM     12  C   LIG    1       -0.568   0.069  -1.989  0.00  0.00    +0.004 C 
ENDBRANCH   8  11
ENDBRANCH   1   8
TORSDOF 4
