REMARK  Name = ZINC13586472
REMARK                            x       y       z     vdW  Elec       q    Type
REMARK                         _______ _______ _______ _____ _____    ______ ____
ROOT
ATOM      1  C   LIG    1       -1.229   2.022   0.019  0.00  0.00    +0.223 A 
ATOM      2  N   LIG    1       -2.354   1.327   0.015  0.00  0.00    -0.214 NA
ATOM      3  C   LIG    1       -3.537   1.940   0.029  0.00  0.00    +0.077 A 
ATOM      4  C   LIG    1       -3.576   3.335   0.037  0.00  0.00    +0.057 A 
ATOM      5  C   LIG    1       -2.367   4.031   0.035  0.00  0.00    +0.077 A 
ATOM      6  N   LIG    1       -1.225   3.345   0.026  0.00  0.00    -0.214 NA
ENDROOT
BRANCH   3   7
ATOM      7  C   LIG    1       -4.793   1.152   0.031  0.00  0.00    +0.001 A 
ATOM      8  C   LIG    1       -6.026   1.802   0.045  0.00  0.00    +0.010 A 
ATOM      9  C   LIG    1       -7.192   1.064   0.040  0.00  0.00    +0.001 A 
ATOM     10  C   LIG    1       -7.139  -0.319   0.033  0.00  0.00    +0.000 A 
ATOM     11  C   LIG    1       -5.918  -0.969   0.024  0.00  0.00    +0.001 A 
ATOM     12  C   LIG    1       -4.745  -0.241   0.023  0.00  0.00    +0.010 A 
ENDBRANCH   3   7
BRANCH   5  13
ATOM     13  C   LIG    1       -2.353   5.514   0.043  0.00  0.00    +0.001 A 
ATOM     14  C   LIG    1       -3.552   6.225   0.046  0.00  0.00    +0.010 A 
ATOM     15  C   LIG    1       -3.533   7.605   0.060  0.00  0.00    +0.001 A 
ATOM     16  C   LIG    1       -2.327   8.283   0.057  0.00  0.00    +0.000 A 
ATOM     17  C   LIG    1       -1.134   7.582   0.047  0.00  0.00    +0.001 A 
ATOM     18  C   LIG    1       -1.141   6.202   0.040  0.00  0.00    +0.010 A 
ENDBRANCH   5  13
BRANCH   1  20
ATOM     19  C   LIG    1        0.002  -0.004   0.002  0.00  0.00    +0.225 C 
ATOM     20  N   LIG    1       -0.016   1.344   0.009  0.00  0.00    -0.254 N 
ATOM     21  H   LIG    1        0.817   1.840   0.004  0.00  0.00    +0.158 HD
ATOM     22  O   LIG    1       -1.040  -0.625   0.009  0.00  0.00    -0.275 OA
BRANCH  19  24
ATOM     23  C   LIG    1        1.058  -2.248  -0.020  0.00  0.00    +0.020 C 
ATOM     24  C   LIG    1        1.317  -0.740  -0.015  0.00  0.00    +0.039 C 
ATOM     25  C   LIG    1        2.126  -0.366   1.229  0.00  0.00    +0.020 C 
ATOM     26  C   LIG    1        2.103  -0.352  -1.269  0.00  0.00    +0.020 C 
ENDBRANCH  19  24
ENDBRANCH   1  20
TORSDOF 4
