REMARK  Name = ZINC13686884
REMARK                            x       y       z     vdW  Elec       q    Type
REMARK                         _______ _______ _______ _____ _____    ______ ____
ROOT
ATOM      1  C   LIG    1       -0.013   1.076   0.008  0.00  0.00    +0.014 A 
ATOM      2  C   LIG    1       -1.216   1.752   0.017  0.00  0.00    +0.005 A 
ATOM      3  C   LIG    1       -1.242   3.138   0.031  0.00  0.00    -0.041 A 
ATOM      4  C   LIG    1       -0.059   3.846   0.028  0.00  0.00    -0.029 A 
ATOM      5  C   LIG    1       -0.034   5.352   0.049  0.00  0.00    +0.117 C 
ATOM      6  N   LIG    1       -1.338   5.893  -0.346  0.00  0.00    -0.304 NA
ATOM      7  H   LIG    1       -1.344   6.982  -0.197  0.00  0.00    +0.123 HD
ATOM      8  C   LIG    1       -2.408   5.290   0.466  0.00  0.00    +0.125 C 
ATOM      9  C   LIG    1        1.150   3.166   0.010  0.00  0.00    +0.019 A 
ATOM     10  C   LIG    1       -2.579   3.832   0.038  0.00  0.00    +0.059 C 
ATOM     11  C   LIG    1        1.174   1.785   0.000  0.00  0.00    +0.014 A 
ATOM     12  I   LIG    1        3.005   0.768  -0.025  0.00  0.00    -0.044 I 
ENDROOT
BRANCH   8  13
ATOM     13  C   LIG    1       -3.716   6.050   0.238  0.00  0.00    +0.358 C 
ATOM     14  F   LIG    1       -4.707   5.534   1.079  0.00  0.00    -0.208 F 
ATOM     15  F   LIG    1       -4.113   5.905  -1.096  0.00  0.00    -0.208 F 
ENDBRANCH   8  13
TORSDOF 1
