REMARK  Name = ZINC13604429
REMARK                            x       y       z     vdW  Elec       q    Type
REMARK                         _______ _______ _______ _____ _____    ______ ____
ROOT
ATOM      1  N   LIG    1        3.880   2.599   0.025  0.00  0.00    -0.280 N 
ATOM      2  C   LIG    1        3.117   2.441   1.270  0.00  0.00    +0.113 C 
ATOM      3  C   LIG    1        1.925   1.537   1.028  0.00  0.00    +0.165 C 
ATOM      4  C   LIG    1        1.069   1.908  -0.166  0.00  0.00    +0.165 C 
ATOM      5  C   LIG    1        0.987   3.403  -0.436  0.00  0.00    +0.113 C 
ATOM      6  N   LIG    1        2.209   3.935  -1.022  0.00  0.00    -0.280 N 
ATOM      7  C   LIG    1        3.419   3.415  -0.936  0.00  0.00    +0.305 C 
ATOM      8  O   LIG    1        4.203   3.709  -1.825  0.00  0.00    -0.252 OA
ENDROOT
BRANCH   3   9
ATOM      9  O   LIG    1        2.398   0.196   0.852  0.00  0.00    -0.387 OA
ATOM     10  H   LIG    1        1.695  -0.463   0.780  0.00  0.00    +0.210 HD
ENDBRANCH   3   9
BRANCH   4  11
ATOM     11  O   LIG    1       -0.255   1.390   0.036  0.00  0.00    -0.387 OA
ATOM     12  H   LIG    1       -0.291   0.428   0.133  0.00  0.00    +0.210 HD
ENDBRANCH   4  11
BRANCH   1  13
ATOM     13  C   LIG    1        5.136   1.874  -0.158  0.00  0.00    +0.110 C 
BRANCH  13  14
ATOM     14  C   LIG    1        4.872   0.581  -0.933  0.00  0.00    +0.019 C 
BRANCH  14  15
ATOM     15  C   LIG    1        6.186  -0.177  -1.124  0.00  0.00    +0.004 C 
BRANCH  15  17
ATOM     16  C   LIG    1        5.442  -1.128  -3.312  0.00  0.00    +0.007 C 
ATOM     17  C   LIG    1        5.921  -1.470  -1.899  0.00  0.00    -0.017 C 
ATOM     18  C   LIG    1        7.212  -2.288  -1.983  0.00  0.00    +0.007 C 
ENDBRANCH  15  17
ENDBRANCH  14  15
ENDBRANCH  13  14
ENDBRANCH   1  13
BRANCH   2  19
ATOM     19  C   LIG    1        4.029   1.779   2.313  0.00  0.00    +0.060 C 
BRANCH  19  20
ATOM     20  C   LIG    1        3.321   1.731   3.642  0.00  0.00    -0.046 A 
ATOM     21  C   LIG    1        3.502   2.749   4.559  0.00  0.00    +0.004 A 
ATOM     22  C   LIG    1        2.848   2.707   5.777  0.00  0.00    +0.000 A 
ATOM     23  C   LIG    1        2.021   1.642   6.081  0.00  0.00    +0.000 A 
ATOM     24  C   LIG    1        1.844   0.621   5.166  0.00  0.00    +0.000 A 
ATOM     25  C   LIG    1        2.494   0.666   3.946  0.00  0.00    +0.004 A 
ENDBRANCH  19  20
ENDBRANCH   2  19
BRANCH   5  26
ATOM     26  C   LIG    1        0.561   4.191   0.795  0.00  0.00    +0.060 C 
BRANCH  26  27
ATOM     27  C   LIG    1        0.415   5.647   0.434  0.00  0.00    -0.046 A 
ATOM     28  C   LIG    1        1.495   6.501   0.553  0.00  0.00    +0.004 A 
ATOM     29  C   LIG    1        1.362   7.835   0.218  0.00  0.00    +0.000 A 
ATOM     30  C   LIG    1        0.146   8.318  -0.227  0.00  0.00    +0.000 A 
ATOM     31  C   LIG    1       -0.936   7.465  -0.341  0.00  0.00    +0.000 A 
ATOM     32  C   LIG    1       -0.802   6.130  -0.011  0.00  0.00    +0.004 A 
ENDBRANCH  26  27
ENDBRANCH   5  26
BRANCH   6  33
ATOM     33  C   LIG    1        2.074   5.153  -1.835  0.00  0.00    +0.110 C 
BRANCH  33  34
ATOM     34  C   LIG    1        1.763   4.769  -3.283  0.00  0.00    +0.019 C 
BRANCH  34  35
ATOM     35  C   LIG    1        1.621   6.037  -4.127  0.00  0.00    +0.004 C 
BRANCH  35  36
ATOM     36  C   LIG    1        1.311   5.653  -5.575  0.00  0.00    -0.017 C 
ATOM     37  C   LIG    1        2.503   4.901  -6.170  0.00  0.00    +0.007 C 
ATOM     38  C   LIG    1        1.047   6.918  -6.393  0.00  0.00    +0.007 C 
ENDBRANCH  35  36
ENDBRANCH  34  35
ENDBRANCH  33  34
ENDBRANCH   6  33
TORSDOF 14
