REMARK  Name = ZINC13641454
REMARK                            x       y       z     vdW  Elec       q    Type
REMARK                         _______ _______ _______ _____ _____    ______ ____
ROOT
ATOM      1  C   LIG    1       -2.669   0.777  -0.038  0.00  0.00    -0.015 C 
ENDROOT
BRANCH   1   2
ATOM      2  C   LIG    1       -2.603   0.307   1.416  0.00  0.00    -0.075 C 
ATOM      3  C   LIG    1       -1.281  -0.425   1.657  0.00  0.00    -0.014 C 
BRANCH   2   4
ATOM      4  N   LIG    1       -2.713   1.477   2.305  0.00  0.00    +0.380 N 
ATOM      5  H   LIG    1       -3.619   1.934   2.152  0.00  0.00    -0.090 HD
ATOM      6  H   LIG    1       -1.967   2.141   2.102  0.00  0.00    -0.090 HD
ATOM      7  H   LIG    1       -2.649   1.183   3.278  0.00  0.00    -0.090 HD
ENDBRANCH   2   4
ENDBRANCH   1   2
BRANCH   1   8
ATOM      8  C   LIG    1       -4.020   1.447  -0.297  0.00  0.00    +0.002 C 
BRANCH   8   9
ATOM      9  C   LIG    1       -5.138   0.412  -0.156  0.00  0.00    -0.000 C 
BRANCH   9  11
ATOM     10  C   LIG    1       -7.606   0.047  -0.274  0.00  0.00    +0.004 C 
ATOM     11  C   LIG    1       -6.489   1.082  -0.415  0.00  0.00    -0.003 C 
ENDBRANCH   9  11
ENDBRANCH   8   9
ENDBRANCH   1   8
BRANCH   1  12
ATOM     12  C   LIG    1       -1.543   1.780  -0.301  0.00  0.00    +0.122 C 
BRANCH  12  13
ATOM     13  C   LIG    1       -1.520   2.136  -1.765  0.00  0.00    +0.305 C 
ATOM     14  O   LIG    1       -2.249   1.562  -2.538  0.00  0.00    -0.251 OA
BRANCH  13  15
ATOM     15  O   LIG    1       -0.692   3.095  -2.209  0.00  0.00    -0.481 OA
ATOM     16  H   LIG    1       -0.126   3.540  -1.609  0.00  0.00    +0.295 HD
ENDBRANCH  13  15
ENDBRANCH  12  13
ENDBRANCH   1  12
TORSDOF 8
