REMARK  Name = ZINC13735077
REMARK                            x       y       z     vdW  Elec       q    Type
REMARK                         _______ _______ _______ _____ _____    ______ ____
ROOT
ATOM      1  C   LIG    1        0.251  -0.321   0.206  0.00  0.00    +0.039 A 
ATOM      2  C   LIG    1        0.082   1.041   0.066  0.00  0.00    +0.011 A 
ATOM      3  C   LIG    1        1.197   1.878  -0.010  0.00  0.00    -0.014 A 
ATOM      4  C   LIG    1        2.473   1.325   0.058  0.00  0.00    -0.029 A 
ATOM      5  C   LIG    1        3.466   2.457  -0.048  0.00  0.00    +0.061 C 
ATOM      6  C   LIG    1        2.647   3.718  -0.184  0.00  0.00    -0.029 A 
ATOM      7  C   LIG    1        3.004   5.043  -0.316  0.00  0.00    +0.043 A 
ATOM      8  C   LIG    1        2.024   6.017  -0.424  0.00  0.00    +0.124 A 
ATOM      9  F   LIG    1        2.375   7.315  -0.553  0.00  0.00    -0.205 F 
ATOM     10  C   LIG    1        0.686   5.660  -0.401  0.00  0.00    +0.039 A 
ATOM     11  C   LIG    1        0.322   4.337  -0.269  0.00  0.00    +0.011 A 
ATOM     12  C   LIG    1        2.635  -0.036   0.199  0.00  0.00    +0.043 A 
ATOM     13  C   LIG    1        1.304   3.351  -0.160  0.00  0.00    -0.014 A 
ATOM     14  C   LIG    1        1.524  -0.863   0.273  0.00  0.00    +0.124 A 
ATOM     15  F   LIG    1        1.684  -2.197   0.411  0.00  0.00    -0.205 F 
ENDROOT
BRANCH   5  16
ATOM     16  C   LIG    1        4.351   2.268  -1.281  0.00  0.00    +0.133 C 
BRANCH  16  17
ATOM     17  C   LIG    1        5.454   3.295  -1.271  0.00  0.00    +0.306 C 
ATOM     18  O   LIG    1        5.606   4.008  -0.307  0.00  0.00    -0.251 OA
BRANCH  17  19
ATOM     19  O   LIG    1        6.267   3.417  -2.331  0.00  0.00    -0.481 OA
ATOM     20  H   LIG    1        6.149   2.864  -3.078  0.00  0.00    +0.295 HD
ENDBRANCH  17  19
ENDBRANCH  16  17
ENDBRANCH   5  16
TORSDOF 3
