REMARK  Name = ZINC13686644
REMARK                            x       y       z     vdW  Elec       q    Type
REMARK                         _______ _______ _______ _____ _____    ______ ____
ROOT
ATOM      1  C   LIG    1        0.823  -1.590  -0.435  0.00  0.00    +0.049 C 
ENDROOT
BRANCH   1   2
ATOM      2  C   LIG    1        0.534  -0.297  -1.154  0.00  0.00    -0.046 A 
ATOM      3  C   LIG    1        1.551   0.616  -1.370  0.00  0.00    +0.004 A 
ATOM      4  C   LIG    1        1.294   1.804  -2.029  0.00  0.00    +0.001 A 
ATOM      5  C   LIG    1        0.020   2.087  -2.477  0.00  0.00    +0.015 A 
ATOM      6  C   LIG    1       -1.011   1.171  -2.263  0.00  0.00    +0.059 A 
ATOM      7  C   LIG    1       -0.745  -0.027  -1.596  0.00  0.00    +0.018 A 
BRANCH   6   8
ATOM      8  C   LIG    1       -2.378   1.467  -2.738  0.00  0.00    +0.337 C 
ATOM      9  O   LIG    1       -3.273   0.668  -2.550  0.00  0.00    -0.245 OA
BRANCH   8  10
ATOM     10  O   LIG    1       -2.631   2.623  -3.381  0.00  0.00    -0.477 OA
ATOM     11  H   LIG    1       -1.941   3.240  -3.526  0.00  0.00    +0.295 HD
ENDBRANCH   8  10
ENDBRANCH   6   8
ENDBRANCH   1   2
BRANCH   1  12
ATOM     12  C   LIG    1        1.081  -2.697  -1.459  0.00  0.00    +0.102 C 
BRANCH  12  13
ATOM     13  C   LIG    1        2.346  -2.393  -2.220  0.00  0.00    +0.310 C 
ATOM     14  O   LIG    1        3.295  -1.914  -1.646  0.00  0.00    -0.251 OA
BRANCH  13  16
ATOM     15  C   LIG    1        3.668  -2.337  -4.202  0.00  0.00    +0.280 C 
ATOM     16  O   LIG    1        2.418  -2.655  -3.534  0.00  0.00    -0.468 OA
ENDBRANCH  13  16
ENDBRANCH  12  13
BRANCH  12  17
ATOM     17  C   LIG    1        1.229  -4.036  -0.736  0.00  0.00    +0.016 C 
BRANCH  17  18
ATOM     18  C   LIG    1        1.362  -5.160  -1.765  0.00  0.00    +0.011 C 
BRANCH  18  19
ATOM     19  C   LIG    1        1.511  -6.500  -1.042  0.00  0.00    +0.065 C 
BRANCH  19  20
ATOM     20  S   LIG    1        1.668  -7.832  -2.263  0.00  0.00    -0.178 S 
ATOM     21  H   LIG    1        1.791  -8.945  -1.516  0.00  0.00    +0.102 HD
ENDBRANCH  19  20
ENDBRANCH  18  19
ENDBRANCH  17  18
ENDBRANCH  12  17
ENDBRANCH   1  12
TORSDOF 10
