REMARK  Name = ZINC13584908
REMARK                            x       y       z     vdW  Elec       q    Type
REMARK                         _______ _______ _______ _____ _____    ______ ____
ROOT
ATOM      1  C   LIG    1        0.533   5.560  -0.394  0.00  0.00    +0.095 A 
ATOM      2  C   LIG    1        1.694   5.582   0.403  0.00  0.00    +0.074 A 
ATOM      3  C   LIG    1        2.058   4.294   0.641  0.00  0.00    +0.129 A 
ATOM      4  N   LIG    1        1.162   3.487   0.009  0.00  0.00    -0.218 N 
ATOM      5  N   LIG    1        0.218   4.303  -0.627  0.00  0.00    -0.165 NA
ENDROOT
BRANCH   1   9
ATOM      6  C   LIG    1       -1.587   8.965  -1.804  0.00  0.00    +0.000 A 
ATOM      7  C   LIG    1       -2.031   7.695  -2.125  0.00  0.00    +0.001 A 
ATOM      8  C   LIG    1       -1.347   6.587  -1.670  0.00  0.00    +0.010 A 
ATOM      9  C   LIG    1       -0.207   6.748  -0.886  0.00  0.00    +0.002 A 
ATOM     10  C   LIG    1        0.233   8.030  -0.561  0.00  0.00    +0.010 A 
ATOM     11  C   LIG    1       -0.456   9.132  -1.026  0.00  0.00    +0.001 A 
ENDBRANCH   1   9
BRANCH   4  12
ATOM     12  C   LIG    1        1.177   2.086   0.002  0.00  0.00    +0.067 A 
ATOM     13  C   LIG    1       -0.017   1.377   0.010  0.00  0.00    +0.028 A 
ATOM     14  C   LIG    1        0.002  -0.004   0.002  0.00  0.00    +0.002 A 
ATOM     15  C   LIG    1        1.208  -0.681  -0.013  0.00  0.00    +0.000 A 
ATOM     16  C   LIG    1        2.399   0.023  -0.021  0.00  0.00    +0.002 A 
ATOM     17  C   LIG    1        2.387   1.404  -0.013  0.00  0.00    +0.028 A 
ENDBRANCH   4  12
BRANCH   3  18
ATOM     18  N   LIG    1        3.153   3.876   1.395  0.00  0.00    -0.266 N 
ATOM     19  H   LIG    1        3.331   2.929   1.507  0.00  0.00    +0.157 HD
ATOM     20  C   LIG    1        3.963   4.787   1.970  0.00  0.00    +0.249 C 
ATOM     21  O   LIG    1        3.740   5.973   1.830  0.00  0.00    -0.270 OA
BRANCH  20  22
ATOM     22  C   LIG    1        5.125   4.343   2.769  0.00  0.00    +0.038 A 
ATOM     23  C   LIG    1        5.966   5.284   3.365  0.00  0.00    +0.013 A 
ATOM     24  C   LIG    1        7.048   4.864   4.110  0.00  0.00    +0.002 A 
ATOM     25  C   LIG    1        7.301   3.513   4.268  0.00  0.00    +0.020 A 
ATOM     26  C   LIG    1        6.471   2.574   3.680  0.00  0.00    +0.042 A 
ATOM     27 CL   LIG    1        6.796   0.881   3.885  0.00  0.00    -0.084 Cl
ATOM     28  C   LIG    1        5.381   2.981   2.937  0.00  0.00    +0.033 A 
ENDBRANCH  20  22
ENDBRANCH   3  18
TORSDOF 4
