REMARK  Name = ZINC13732955
REMARK                            x       y       z     vdW  Elec       q    Type
REMARK                         _______ _______ _______ _____ _____    ______ ____
ROOT
ATOM      1  C   LIG    1       -1.483  -7.941  -1.579  0.00  0.00    +0.138 C 
ATOM      2  N   LIG    1       -1.879  -6.820  -0.724  0.00  0.00    -0.271 N 
ATOM      3  C   LIG    1       -3.146  -6.861  -0.163  0.00  0.00    +0.045 A 
ATOM      4  C   LIG    1       -4.189  -7.325  -0.967  0.00  0.00    +0.024 A 
ATOM      5  C   LIG    1       -5.475  -7.396  -0.478  0.00  0.00    +0.002 A 
ATOM      6  C   LIG    1       -5.746  -7.007   0.823  0.00  0.00    +0.001 A 
ATOM      7  C   LIG    1       -4.731  -6.546   1.630  0.00  0.00    +0.012 A 
ATOM      8  C   LIG    1       -3.416  -6.467   1.146  0.00  0.00    +0.022 A 
ATOM      9  C   LIG    1       -2.382  -5.961   2.062  0.00  0.00    +0.077 C 
ATOM     10  N   LIG    1       -1.431  -5.163   1.728  0.00  0.00    -0.251 NA
ATOM     11  C   LIG    1       -1.278  -4.673   0.358  0.00  0.00    +0.280 C 
ATOM     12  C   LIG    1       -0.995  -5.840  -0.547  0.00  0.00    +0.262 C 
ATOM     13  O   LIG    1        0.066  -5.890  -1.132  0.00  0.00    -0.271 OA
ENDROOT
BRANCH   9  14
ATOM     14  C   LIG    1       -2.442  -6.404   3.475  0.00  0.00    +0.001 A 
ATOM     15  C   LIG    1       -1.863  -5.625   4.477  0.00  0.00    +0.010 A 
ATOM     16  C   LIG    1       -1.927  -6.040   5.792  0.00  0.00    +0.001 A 
ATOM     17  C   LIG    1       -2.553  -7.231   6.115  0.00  0.00    +0.000 A 
ATOM     18  C   LIG    1       -3.123  -8.011   5.124  0.00  0.00    +0.001 A 
ATOM     19  C   LIG    1       -3.071  -7.604   3.807  0.00  0.00    +0.010 A 
ENDBRANCH   9  14
BRANCH  11  20
ATOM     20  N   LIG    1       -0.165  -3.723   0.298  0.00  0.00    -0.270 N 
ATOM     21  H   LIG    1        0.750  -4.045   0.338  0.00  0.00    +0.153 HD
ATOM     22  C   LIG    1       -0.410  -2.403   0.186  0.00  0.00    +0.306 C 
ATOM     23  N   LIG    1        0.614  -1.529   0.130  0.00  0.00    -0.269 N 
ATOM     24  H   LIG    1        1.527  -1.854   0.094  0.00  0.00    +0.156 HD
ATOM     25  O   LIG    1       -1.557  -2.000   0.135  0.00  0.00    -0.252 OA
BRANCH  23  26
ATOM     26  C   LIG    1        0.360  -0.152   0.124  0.00  0.00    +0.036 A 
ATOM     27  C   LIG    1        1.207   0.707  -0.566  0.00  0.00    +0.023 A 
ATOM     28  C   LIG    1        0.961   2.067  -0.576  0.00  0.00    +0.003 A 
ATOM     29  C   LIG    1       -0.128   2.581   0.100  0.00  0.00    +0.015 A 
ATOM     30  C   LIG    1       -0.984   1.726   0.796  0.00  0.00    +0.061 A 
ATOM     31  C   LIG    1       -0.735   0.353   0.806  0.00  0.00    +0.038 A 
BRANCH  30  32
ATOM     32  C   LIG    1       -2.149   2.273   1.521  0.00  0.00    +0.339 C 
ATOM     33  O   LIG    1       -2.893   1.528   2.126  0.00  0.00    -0.245 OA
BRANCH  32  34
ATOM     34  O   LIG    1       -2.387   3.599   1.510  0.00  0.00    -0.464 OA
ATOM     35  C   LIG    1       -3.550   4.066   2.244  0.00  0.00    +0.280 C 
ENDBRANCH  32  34
ENDBRANCH  30  32
ENDBRANCH  23  26
ENDBRANCH  11  20
TORSDOF 5
