REMARK  Name = ZINC13611905
REMARK                            x       y       z     vdW  Elec       q    Type
REMARK                         _______ _______ _______ _____ _____    ______ ____
ROOT
ATOM      1  C   LIG    1        4.240   2.111  -0.028  0.00  0.00    +0.085 C 
ENDROOT
BRANCH   1   2
ATOM      2  C   LIG    1        3.518   0.787  -0.028  0.00  0.00    +0.217 C 
ATOM      3  O   LIG    1        4.149  -0.247  -0.041  0.00  0.00    -0.287 OA
BRANCH   2   4
ATOM      4  C   LIG    1        2.045   0.752  -0.013  0.00  0.00    +0.266 A 
ATOM      5  N   LIG    1        1.268   1.806  -0.000  0.00  0.00    -0.187 NA
ATOM      6  C   LIG    1       -0.017   1.404   0.010  0.00  0.00    +0.199 A 
ATOM      7  C   LIG    1        0.002  -0.004   0.002  0.00  0.00    +0.175 A 
ATOM      8  C   LIG    1       -1.201  -0.701   0.010  0.00  0.00    +0.051 A 
ATOM      9  C   LIG    1       -2.378   0.026   0.025  0.00  0.00    +0.023 A 
ATOM     10  C   LIG    1       -2.326   1.413   0.032  0.00  0.00    +0.113 A 
ATOM     11  N   LIG    1       -1.179   2.055   0.029  0.00  0.00    -0.233 NA
ATOM     12  O   LIG    1        1.299  -0.370  -0.012  0.00  0.00    -0.431 OA
ENDBRANCH   2   4
ENDBRANCH   1   2
BRANCH   1  13
ATOM     13  C   LIG    1        5.750   1.867  -0.045  0.00  0.00    +0.008 C 
BRANCH  13  14
ATOM     14  C   LIG    1        6.483   3.211  -0.044  0.00  0.00    +0.000 C 
BRANCH  14  15
ATOM     15  C   LIG    1        7.994   2.967  -0.061  0.00  0.00    +0.000 C 
BRANCH  15  16
ATOM     16  C   LIG    1        8.726   4.311  -0.061  0.00  0.00    +0.005 C 
BRANCH  16  17
ATOM     17  C   LIG    1       10.237   4.068  -0.078  0.00  0.00    +0.035 C 
BRANCH  17  21
ATOM     18  C   LIG    1       12.283   7.817  -0.077  0.00  0.00    +0.000 A 
ATOM     19  C   LIG    1       11.964   7.204   1.120  0.00  0.00    +0.000 A 
ATOM     20  C   LIG    1       11.302   5.990   1.120  0.00  0.00    +0.003 A 
ATOM     21  C   LIG    1       10.958   5.391  -0.077  0.00  0.00    -0.047 A 
ATOM     22  C   LIG    1       11.282   6.002  -1.274  0.00  0.00    +0.003 A 
ATOM     23  C   LIG    1       11.940   7.217  -1.274  0.00  0.00    +0.000 A 
ENDBRANCH  17  21
ENDBRANCH  16  17
ENDBRANCH  15  16
ENDBRANCH  14  15
ENDBRANCH  13  14
ENDBRANCH   1  13
TORSDOF 8
