REMARK  Name = ZINC13732894
REMARK                            x       y       z     vdW  Elec       q    Type
REMARK                         _______ _______ _______ _____ _____    ______ ____
ROOT
ATOM      1  C   LIG    1       -6.350   0.204  -1.787  0.00  0.00    +0.138 C 
ATOM      2  N   LIG    1       -5.625   1.172  -0.960  0.00  0.00    -0.271 N 
ATOM      3  C   LIG    1       -6.326   2.280  -0.510  0.00  0.00    +0.045 A 
ATOM      4  C   LIG    1       -7.211   2.886  -1.405  0.00  0.00    +0.024 A 
ATOM      5  C   LIG    1       -7.945   3.989  -1.028  0.00  0.00    +0.002 A 
ATOM      6  C   LIG    1       -7.811   4.510   0.248  0.00  0.00    +0.001 A 
ATOM      7  C   LIG    1       -6.944   3.927   1.143  0.00  0.00    +0.012 A 
ATOM      8  C   LIG    1       -6.189   2.802   0.774  0.00  0.00    +0.022 A 
ATOM      9  C   LIG    1       -5.278   2.233   1.780  0.00  0.00    +0.077 C 
ATOM     10  N   LIG    1       -4.093   1.795   1.535  0.00  0.00    -0.251 NA
ATOM     11  C   LIG    1       -3.526   1.817   0.188  0.00  0.00    +0.280 C 
ATOM     12  C   LIG    1       -4.344   0.919  -0.700  0.00  0.00    +0.262 C 
ATOM     13  O   LIG    1       -3.823  -0.059  -1.192  0.00  0.00    -0.271 OA
ENDROOT
BRANCH   9  14
ATOM     14  C   LIG    1       -5.761   2.159   3.178  0.00  0.00    +0.001 A 
ATOM     15  C   LIG    1       -4.850   2.130   4.233  0.00  0.00    +0.010 A 
ATOM     16  C   LIG    1       -5.306   2.067   5.534  0.00  0.00    +0.001 A 
ATOM     17  C   LIG    1       -6.664   2.020   5.792  0.00  0.00    +0.000 A 
ATOM     18  C   LIG    1       -7.573   2.042   4.749  0.00  0.00    +0.001 A 
ATOM     19  C   LIG    1       -7.130   2.111   3.445  0.00  0.00    +0.010 A 
ENDBRANCH   9  14
BRANCH  11  20
ATOM     20  N   LIG    1       -2.143   1.335   0.230  0.00  0.00    -0.270 N 
ATOM     21  H   LIG    1       -1.962   0.389   0.346  0.00  0.00    +0.153 HD
ATOM     22  C   LIG    1       -1.122   2.207   0.109  0.00  0.00    +0.306 C 
ATOM     23  N   LIG    1        0.151   1.764   0.148  0.00  0.00    -0.269 N 
ATOM     24  H   LIG    1        0.332   0.811   0.189  0.00  0.00    +0.156 HD
ATOM     25  O   LIG    1       -1.348   3.392  -0.037  0.00  0.00    -0.252 OA
BRANCH  23  26
ATOM     26  C   LIG    1        1.211   2.677   0.124  0.00  0.00    +0.035 A 
ATOM     27  C   LIG    1        1.109   3.841  -0.627  0.00  0.00    +0.023 A 
ATOM     28  C   LIG    1        2.155   4.742  -0.646  0.00  0.00    +0.002 A 
ATOM     29  C   LIG    1        3.307   4.482   0.075  0.00  0.00    +0.012 A 
ATOM     30  C   LIG    1        3.413   3.322   0.819  0.00  0.00    +0.057 A 
ATOM     31  C   LIG    1        2.368   2.419   0.846  0.00  0.00    +0.035 A 
BRANCH  30  32
ATOM     32  C   LIG    1        4.670   3.043   1.602  0.00  0.00    +0.417 C 
ATOM     33  F   LIG    1        4.355   2.283   2.734  0.00  0.00    -0.166 F 
ATOM     34  F   LIG    1        5.251   4.252   1.999  0.00  0.00    -0.166 F 
ATOM     35  F   LIG    1        5.571   2.334   0.800  0.00  0.00    -0.166 F 
ENDBRANCH  30  32
ENDBRANCH  23  26
ENDBRANCH  11  20
TORSDOF 4
