REMARK  Name = ZINC13608489
REMARK                            x       y       z     vdW  Elec       q    Type
REMARK                         _______ _______ _______ _____ _____    ______ ____
ROOT
ATOM      1  C   LIG    1        1.198  -0.699  -0.014  0.00  0.00    +0.023 A 
ATOM      2  C   LIG    1        0.002  -0.004   0.002  0.00  0.00    +0.111 A 
ATOM      3  N   LIG    1       -0.016   1.314   0.009  0.00  0.00    -0.261 NA
ATOM      4  C   LIG    1        1.095   2.024   0.003  0.00  0.00    +0.133 A 
ATOM      5  C   LIG    1        2.335   1.399  -0.013  0.00  0.00    +0.047 A 
ATOM      6  C   LIG    1        2.390   0.007  -0.021  0.00  0.00    -0.041 A 
ENDROOT
BRANCH   5   7
ATOM      7  N   LIG    1        3.510   2.154  -0.020  0.00  0.00    -0.340 N 
ATOM      8  H   LIG    1        4.372   1.710  -0.032  0.00  0.00    +0.146 HD
BRANCH   7   9
ATOM      9  C   LIG    1        3.440   3.618  -0.011  0.00  0.00    +0.071 C 
ATOM     10  C   LIG    1        4.378   4.376  -0.953  0.00  0.00    +0.024 C 
ATOM     11  C   LIG    1        4.641   4.379   0.554  0.00  0.00    +0.024 C 
ENDBRANCH   7   9
ENDBRANCH   5   7
BRANCH   6  12
ATOM     12  C   LIG    1        3.713  -0.714  -0.039  0.00  0.00    -0.049 C 
BRANCH  12  13
ATOM     13  N   LIG    1        4.274  -0.720   1.324  0.00  0.00    +0.381 N 
ATOM     14  H   LIG    1        4.435   0.247   1.627  0.00  0.00    -0.090 HD
ATOM     15  H   LIG    1        5.160  -1.224   1.334  0.00  0.00    -0.090 HD
ATOM     16  H   LIG    1        3.623  -1.167   1.968  0.00  0.00    -0.090 HD
ENDBRANCH  12  13
ENDBRANCH   6  12
TORSDOF 4
