REMARK  Name = ZINC13581278
REMARK                            x       y       z     vdW  Elec       q    Type
REMARK                         _______ _______ _______ _____ _____    ______ ____
ROOT
ATOM      1  C   LIG    1       -1.979   2.986   8.270  0.00  0.00    +0.122 A 
ATOM      2  C   LIG    1       -0.822   2.206   8.405  0.00  0.00    +0.047 A 
ATOM      3  C   LIG    1       -0.220   1.689   7.298  0.00  0.00    -0.038 A 
ATOM      4  C   LIG    1        1.025   0.847   7.418  0.00  0.00    +0.044 C 
ATOM      5  C   LIG    1       -0.791   1.960   6.037  0.00  0.00    +0.005 A 
ATOM      6  C   LIG    1       -0.223   1.454   4.859  0.00  0.00    +0.033 A 
ATOM      7  C   LIG    1       -0.807   1.745   3.645  0.00  0.00    +0.034 A 
ATOM      8  C   LIG    1       -1.962   2.531   3.582  0.00  0.00    +0.025 A 
ATOM      9  C   LIG    1       -2.532   3.028   4.712  0.00  0.00    +0.030 A 
ATOM     10  C   LIG    1       -1.961   2.755   5.967  0.00  0.00    +0.073 A 
ATOM     11  N   LIG    1       -2.508   3.237   7.090  0.00  0.00    -0.232 NA
ENDROOT
BRANCH   1  15
ATOM     12  N   LIG    1       -4.698   3.845  11.281  0.00  0.00    -0.300 NA
ATOM     13  C   LIG    1       -4.364   4.911  10.327  0.00  0.00    +0.103 C 
ATOM     14  C   LIG    1       -3.775   4.291   9.057  0.00  0.00    +0.122 C 
ATOM     15  N   LIG    1       -2.582   3.507   9.406  0.00  0.00    -0.313 N 
ATOM     16  C   LIG    1       -2.916   2.440  10.360  0.00  0.00    +0.122 C 
ATOM     17  C   LIG    1       -3.505   3.061  11.630  0.00  0.00    +0.103 C 
BRANCH  12  19
ATOM     18  C   LIG    1       -5.892   3.252  13.335  0.00  0.00    +0.020 C 
ATOM     19  C   LIG    1       -5.336   4.395  12.484  0.00  0.00    +0.081 C 
ENDBRANCH  12  19
ENDBRANCH   1  15
BRANCH   7  20
ATOM     20  N   LIG    1       -0.242   1.246   2.466  0.00  0.00    -0.283 N 
ATOM     21  H   LIG    1        0.233   0.254   2.460  0.00  0.00    +0.155 HD
ATOM     22  C   LIG    1       -0.279   1.982   1.337  0.00  0.00    +0.255 C 
ATOM     23  O   LIG    1       -0.873   3.039   1.321  0.00  0.00    -0.272 OA
BRANCH  22  24
ATOM     24  C   LIG    1        0.419   1.491   0.095  0.00  0.00    +0.324 C 
BRANCH  24  25
ATOM     25  O   LIG    1        0.236   2.438  -0.960  0.00  0.00    -0.483 OA
BRANCH  25  26
ATOM     26  C   LIG    1        0.807   2.145  -2.158  0.00  0.00    +0.121 A 
ATOM     27  C   LIG    1        1.532   0.972  -2.314  0.00  0.00    +0.047 A 
ATOM     28  C   LIG    1        2.107   0.673  -3.534  0.00  0.00    +0.023 A 
ATOM     29  C   LIG    1        1.968   1.548  -4.598  0.00  0.00    +0.041 A 
ATOM     30 CL   LIG    1        2.697   1.174  -6.128  0.00  0.00    -0.084 Cl
ATOM     31  C   LIG    1        1.250   2.721  -4.442  0.00  0.00    +0.023 A 
ATOM     32  C   LIG    1        0.670   3.020  -3.225  0.00  0.00    +0.047 A 
ENDBRANCH  25  26
ENDBRANCH  24  25
ENDBRANCH  22  24
ENDBRANCH   7  20
TORSDOF 6
