REMARK  Name = ZINC13588925
REMARK                            x       y       z     vdW  Elec       q    Type
REMARK                         _______ _______ _______ _____ _____    ______ ____
ROOT
ATOM      1  C   LIG    1       -0.014   1.378  -0.047  0.00  0.00    +0.001 A 
ATOM      2  C   LIG    1        1.168   2.082   0.106  0.00  0.00    +0.002 A 
ATOM      3  C   LIG    1        2.377   1.420   0.162  0.00  0.00    +0.024 A 
ATOM      4  C   LIG    1        2.420   0.032   0.064  0.00  0.00    +0.041 A 
ATOM      5  C   LIG    1        1.222  -0.675  -0.090  0.00  0.00    +0.026 A 
ATOM      6  C   LIG    1        1.578  -2.112  -0.164  0.00  0.00    +0.133 C 
ATOM      7  C   LIG    1        3.052  -2.149  -0.040  0.00  0.00    +0.074 C 
ATOM      8  C   LIG    1        3.849  -3.286  -0.055  0.00  0.00    +0.069 C 
ATOM      9  C   LIG    1        3.408  -4.694   0.036  0.00  0.00    +0.011 A 
ATOM     10  C   LIG    1        2.159  -5.297   0.158  0.00  0.00    +0.025 A 
ATOM     11  C   LIG    1        2.068  -6.673   0.222  0.00  0.00    +0.014 A 
ATOM     12  I   LIG    1        0.193  -7.589   0.405  0.00  0.00    -0.044 I 
ATOM     13  C   LIG    1        3.215  -7.449   0.166  0.00  0.00    +0.016 A 
ATOM     14  C   LIG    1        4.457  -6.861   0.045  0.00  0.00    +0.025 A 
ATOM     15  C   LIG    1        4.570  -5.476  -0.021  0.00  0.00    +0.042 A 
ATOM     16  N   LIG    1        5.675  -4.643  -0.141  0.00  0.00    -0.281 N 
ATOM     17  H   LIG    1        6.592  -4.954  -0.198  0.00  0.00    +0.155 HD
ATOM     18  C   LIG    1        5.310  -3.349  -0.172  0.00  0.00    +0.251 C 
ATOM     19  O   LIG    1        6.062  -2.396  -0.276  0.00  0.00    -0.270 OA
ATOM     20  N   LIG    1        0.767  -3.126  -0.307  0.00  0.00    -0.085 NA
ATOM     21  N   LIG    1        3.486  -0.857   0.091  0.00  0.00    -0.312 N 
ATOM     22  H   LIG    1        4.415  -0.598   0.189  0.00  0.00    +0.152 HD
ATOM     23  C   LIG    1        0.008   0.002  -0.145  0.00  0.00    +0.012 A 
ENDROOT
BRANCH  20  24
ATOM     24  O   LIG    1       -0.628  -2.907  -0.410  0.00  0.00    -0.409 OA
ATOM     25  H   LIG    1       -1.146  -3.717  -0.514  0.00  0.00    +0.328 HD
ENDBRANCH  20  24
TORSDOF 1
