REMARK  Name = ZINC13739804
REMARK                            x       y       z     vdW  Elec       q    Type
REMARK                         _______ _______ _______ _____ _____    ______ ____
ROOT
ATOM      1  C   LIG    1        2.144   1.363  -1.109  0.00  0.00    -0.020 C 
ATOM      2  C   LIG    1        1.772   0.259  -1.716  0.00  0.00    -0.023 C 
ATOM      3  C   LIG    1        0.509  -0.476  -1.363  0.00  0.00    +0.009 C 
ATOM      4  C   LIG    1        0.002  -0.004   0.002  0.00  0.00    -0.074 C 
ATOM      5  N   LIG    1       -0.027   1.472  -0.012  0.00  0.00    +0.384 N 
ATOM      6  H   LIG    1       -0.498   1.790  -0.867  0.00  0.00    -0.081 HD
ATOM      7  C   LIG    1        1.353   1.995  -0.000  0.00  0.00    -0.039 C 
ENDROOT
BRANCH   1  10
ATOM      8  N   LIG    1        5.197   2.439  -2.556  0.00  0.00    -0.163 N 
ATOM      9  N   LIG    1        4.221   1.600  -2.484  0.00  0.00    -0.131 NA
ATOM     10  C   LIG    1        3.401   2.014  -1.537  0.00  0.00    +0.199 A 
ATOM     11  N   LIG    1        3.933   3.139  -1.035  0.00  0.00    -0.108 NA
ATOM     12  N   LIG    1        5.027   3.366  -1.680  0.00  0.00    -0.046 NA
BRANCH   8  14
ATOM     13  C   LIG    1        7.452   1.536  -2.842  0.00  0.00    +0.031 C 
ATOM     14  C   LIG    1        6.325   2.348  -3.485  0.00  0.00    +0.165 C 
ENDBRANCH   8  14
ENDBRANCH   1  10
BRANCH   5  15
ATOM     15  C   LIG    1       -0.769   1.978   1.165  0.00  0.00    -0.074 C 
ATOM     16  C   LIG    1       -2.239   1.572   1.036  0.00  0.00    -0.014 C 
ATOM     17  C   LIG    1       -0.663   3.504   1.209  0.00  0.00    -0.014 C 
ENDBRANCH   5  15
TORSDOF 3
