REMARK  Name = ZINC13602369
REMARK                            x       y       z     vdW  Elec       q    Type
REMARK                         _______ _______ _______ _____ _____    ______ ____
ROOT
ATOM      1  S   LIG    1        0.058  -1.507   3.638  0.00  0.00    +0.075 S 
ATOM      2  O   LIG    1        1.312  -2.170   3.554  0.00  0.00    -0.150 OA
ATOM      3  O   LIG    1       -1.178  -2.205   3.578  0.00  0.00    -0.150 OA
ENDROOT
BRANCH   1   4
ATOM      4  C   LIG    1        0.060  -0.616   5.158  0.00  0.00    +0.110 A 
ATOM      5  C   LIG    1        1.258  -0.244   5.739  0.00  0.00    +0.029 A 
ATOM      6  C   LIG    1        1.264   0.455   6.932  0.00  0.00    +0.004 A 
ATOM      7  C   LIG    1        0.072   0.785   7.547  0.00  0.00    +0.023 A 
ATOM      8  C   LIG    1       -1.133   0.414   6.965  0.00  0.00    +0.026 A 
ATOM      9  C   LIG    1       -1.135  -0.284   5.764  0.00  0.00    +0.051 A 
BRANCH   8  10
ATOM     10  N   LIG    1       -2.340   0.747   7.584  0.00  0.00    -0.358 N 
ATOM     11  H   LIG    1       -3.182   0.487   7.177  0.00  0.00    +0.142 HD
ATOM     12  H   LIG    1       -2.337   1.238   8.421  0.00  0.00    +0.142 HD
ENDBRANCH   8  10
ENDBRANCH   1   4
BRANCH   1  13
ATOM     13  N   LIG    1        0.030  -0.391   2.415  0.00  0.00    -0.183 N 
ATOM     14  H   LIG    1        0.019   0.571   2.627  0.00  0.00    +0.177 HD
BRANCH  13  21
ATOM     15  C   LIG    1       -0.018   1.503   0.010  0.00  0.00    +0.051 C 
ATOM     16  C   LIG    1        0.002  -0.004   0.002  0.00  0.00    +0.035 A 
ATOM     17  C   LIG    1        0.008  -0.821  -1.136  0.00  0.00    +0.085 A 
ATOM     18  C   LIG    1       -0.006  -0.344  -2.566  0.00  0.00    +0.069 C 
ATOM     19  N   LIG    1        0.028  -2.066  -0.745  0.00  0.00    -0.081 NA
ATOM     20  O   LIG    1        0.035  -2.083   0.671  0.00  0.00    -0.338 OA
ATOM     21  C   LIG    1        0.024  -0.808   1.097  0.00  0.00    +0.240 A 
ENDBRANCH  13  21
ENDBRANCH   1  13
TORSDOF 4
