REMARK  Name = ZINC13560691
REMARK                            x       y       z     vdW  Elec       q    Type
REMARK                         _______ _______ _______ _____ _____    ______ ____
ROOT
ATOM      1  C   LIG    1        1.726  -1.091   1.415  0.00  0.00    -0.009 C 
ATOM      2  C   LIG    1        0.683  -1.875   2.216  0.00  0.00    -0.015 C 
ATOM      3  C   LIG    1        1.225  -2.145   3.622  0.00  0.00    -0.082 C 
ATOM      4  N   LIG    1        2.464  -2.927   3.531  0.00  0.00    +0.379 N 
ATOM      5  H   LIG    1        2.284  -3.782   3.026  0.00  0.00    -0.086 HD
ATOM      6  H   LIG    1        2.789  -3.149   4.460  0.00  0.00    -0.086 HD
ATOM      7  C   LIG    1        3.492  -2.151   2.826  0.00  0.00    -0.082 C 
ATOM      8  C   LIG    1        3.037  -1.882   1.390  0.00  0.00    -0.015 C 
ENDROOT
BRANCH   1   9
ATOM      9  C   LIG    1        1.224  -0.886  -0.016  0.00  0.00    +0.058 C 
BRANCH   9  15
ATOM     10  C   LIG    1       -0.016   1.343   0.009  0.00  0.00    +0.133 A 
ATOM     11  N   LIG    1       -1.297   1.740   0.030  0.00  0.00    -0.244 NA
ATOM     12  C   LIG    1       -2.073   0.691   0.027  0.00  0.00    +0.196 A 
ATOM     13  N   LIG    1       -1.303  -0.418   0.013  0.00  0.00    -0.348 N 
ATOM     14  H   LIG    1       -1.615  -1.336   0.011  0.00  0.00    +0.166 HD
ATOM     15  C   LIG    1        0.002  -0.004   0.002  0.00  0.00    +0.036 A 
ENDBRANCH   9  15
ENDBRANCH   1   9
TORSDOF 2
