REMARK  Name = ZINC13683129
REMARK                            x       y       z     vdW  Elec       q    Type
REMARK                         _______ _______ _______ _____ _____    ______ ____
ROOT
ATOM      1  N   LIG    1       -2.992   4.114  -1.331  0.00  0.00    -0.227 N 
ATOM      2  C   LIG    1       -2.613   5.252  -1.932  0.00  0.00    +0.254 C 
ATOM      3  C   LIG    1       -3.015   5.561  -3.318  0.00  0.00    +0.048 A 
ATOM      4  C   LIG    1       -2.616   6.739  -3.937  0.00  0.00    +0.014 A 
ATOM      5  C   LIG    1       -3.014   7.001  -5.237  0.00  0.00    +0.001 A 
ATOM      6  C   LIG    1       -3.806   6.101  -5.928  0.00  0.00    +0.001 A 
ATOM      7  C   LIG    1       -4.214   4.922  -5.328  0.00  0.00    +0.012 A 
ATOM      8  C   LIG    1       -3.822   4.645  -4.024  0.00  0.00    +0.039 A 
ATOM      9  C   LIG    1       -4.231   3.402  -3.339  0.00  0.00    +0.249 C 
ATOM     10  O   LIG    1       -4.925   2.578  -3.897  0.00  0.00    -0.282 OA
ATOM     11  O   LIG    1       -1.921   6.044  -1.324  0.00  0.00    -0.270 OA
ATOM     12  C   LIG    1       -3.760   3.191  -1.934  0.00  0.00    +0.294 C 
ATOM     13  O   LIG    1       -4.074   2.183  -1.337  0.00  0.00    -0.266 OA
ENDROOT
BRANCH   1  14
ATOM     14  C   LIG    1       -2.553   3.869   0.045  0.00  0.00    +0.152 C 
BRANCH  14  18
ATOM     15  C   LIG    1        1.175   1.783   0.000  0.00  0.00    +0.000 A 
ATOM     16  C   LIG    1       -0.013   1.076   0.008  0.00  0.00    +0.000 A 
ATOM     17  C   LIG    1       -1.219   1.751   0.017  0.00  0.00    +0.005 A 
ATOM     18  C   LIG    1       -1.238   3.133   0.030  0.00  0.00    -0.030 A 
ATOM     19  C   LIG    1       -0.050   3.840   0.022  0.00  0.00    +0.005 A 
ATOM     20  C   LIG    1        1.156   3.165   0.008  0.00  0.00    +0.000 A 
ENDBRANCH  14  18
ENDBRANCH   1  14
TORSDOF 2
