REMARK  Name = ZINC13686849
REMARK                            x       y       z     vdW  Elec       q    Type
REMARK                         _______ _______ _______ _____ _____    ______ ____
ROOT
ATOM      1  C   LIG    1        4.760   4.413   0.128  0.00  0.00    +0.024 C 
ATOM      2  C   LIG    1        3.481   3.614   0.387  0.00  0.00    +0.055 C 
ATOM      3  C   LIG    1        3.690   2.160  -0.038  0.00  0.00    +0.053 C 
ATOM      4  C   LIG    1        2.375   1.424  -0.017  0.00  0.00    -0.041 A 
ATOM      5  C   LIG    1        2.393   0.037  -0.022  0.00  0.00    +0.005 A 
ATOM      6  C   LIG    1        1.211  -0.676  -0.013  0.00  0.00    +0.015 A 
ATOM      7  C   LIG    1        0.002  -0.004   0.002  0.00  0.00    +0.018 A 
ATOM      8 BR   LIG    1       -1.621  -0.974   0.012  0.00  0.00    -0.050 Br
ATOM      9  C   LIG    1       -0.017   1.377   0.010  0.00  0.00    +0.020 A 
ATOM     10  C   LIG    1        1.171   2.094   0.002  0.00  0.00    -0.029 A 
ATOM     11  C   LIG    1        1.099   3.599   0.020  0.00  0.00    +0.117 C 
ATOM     12  N   LIG    1        2.377   4.178  -0.406  0.00  0.00    -0.309 NA
ATOM     13  H   LIG    1        2.343   5.269  -0.262  0.00  0.00    +0.123 HD
ENDROOT
TORSDOF 0
