REMARK  Name = ZINC13642294
REMARK                            x       y       z     vdW  Elec       q    Type
REMARK                         _______ _______ _______ _____ _____    ______ ____
ROOT
ATOM      1  C   LIG    1        1.149   2.471  -0.215  0.00  0.00    -0.050 A 
ATOM      2  C   LIG    1        1.115   3.845  -0.352  0.00  0.00    +0.003 A 
ATOM      3  C   LIG    1       -0.099   4.502  -0.447  0.00  0.00    +0.000 A 
ATOM      4  C   LIG    1       -1.282   3.786  -0.405  0.00  0.00    +0.001 A 
ATOM      5  C   LIG    1       -1.255   2.412  -0.274  0.00  0.00    +0.015 A 
ATOM      6  C   LIG    1       -0.037   1.749  -0.172  0.00  0.00    +0.014 A 
ENDROOT
BRANCH   1   7
ATOM      7  C   LIG    1        2.472   1.757  -0.111  0.00  0.00    -0.043 C 
BRANCH   7   9
ATOM      8  C   LIG    1        3.069   2.233  -2.409  0.00  0.00    -0.096 C 
ATOM      9  N   LIG    1        2.798   1.164  -1.425  0.00  0.00    +0.379 N 
ATOM     10  H   LIG    1        1.996   0.609  -1.749  0.00  0.00    -0.082 HD
ATOM     11  C   LIG    1        3.976   0.279  -1.303  0.00  0.00    -0.096 C 
ENDBRANCH   7   9
ENDBRANCH   1   7
BRANCH   6  12
ATOM     12  S   LIG    1        0.002  -0.004   0.002  0.00  0.00    -0.087 S 
BRANCH  12  13
ATOM     13  C   LIG    1       -1.694  -0.454   0.165  0.00  0.00    +0.034 A 
ATOM     14  C   LIG    1       -2.367  -1.024  -0.905  0.00  0.00    +0.020 A 
ATOM     15  C   LIG    1       -3.698  -1.377  -0.776  0.00  0.00    +0.039 A 
ATOM     16  C   LIG    1       -4.362  -1.163   0.420  0.00  0.00    +0.125 A 
ATOM     17  F   LIG    1       -5.662  -1.509   0.540  0.00  0.00    -0.205 F 
ATOM     18  C   LIG    1       -3.696  -0.595   1.493  0.00  0.00    +0.062 A 
ATOM     19  C   LIG    1       -2.360  -0.244   1.372  0.00  0.00    +0.041 A 
BRANCH  19  20
ATOM     20  N   LIG    1       -1.683   0.325   2.457  0.00  0.00    -0.357 N 
ATOM     21  H   LIG    1       -2.148   0.471   3.296  0.00  0.00    +0.142 HD
ATOM     22  H   LIG    1       -0.750   0.574   2.370  0.00  0.00    +0.142 HD
ENDBRANCH  19  20
ENDBRANCH  12  13
ENDBRANCH   6  12
TORSDOF 5
