REMARK  Name = ZINC13742644
REMARK                            x       y       z     vdW  Elec       q    Type
REMARK                         _______ _______ _______ _____ _____    ______ ____
ROOT
ATOM      1  C   LIG    1        2.038   1.711   0.869  0.00  0.00    -0.063 C 
ATOM      2  C   LIG    1        1.541   2.585  -0.287  0.00  0.00    -0.009 C 
ATOM      3  C   LIG    1        0.042   2.369  -0.502  0.00  0.00    +0.055 C 
ATOM      4  C   LIG    1       -0.221   0.875  -0.654  0.00  0.00    +0.054 A 
ATOM      5  C   LIG    1        0.696  -0.028  -0.224  0.00  0.00    +0.013 A 
ATOM      6  S   LIG    1       -0.067  -1.578  -0.622  0.00  0.00    -0.057 S 
ATOM      7  C   LIG    1       -1.522  -0.927  -1.317  0.00  0.00    +0.156 A 
ATOM      8  N   LIG    1       -1.327   0.371  -1.200  0.00  0.00    -0.230 NA
ATOM      9  C   LIG    1        2.013   0.241   0.421  0.00  0.00    +0.029 C 
ENDROOT
BRANCH   7  10
ATOM     10  N   LIG    1       -2.607  -1.600  -1.855  0.00  0.00    -0.338 N 
ATOM     11  H   LIG    1       -3.359  -1.101  -2.211  0.00  0.00    +0.144 HD
ATOM     12  H   LIG    1       -2.615  -2.570  -1.875  0.00  0.00    +0.144 HD
ENDBRANCH   7  10
BRANCH   1  13
ATOM     13  N   LIG    1        3.411   2.123   1.229  0.00  0.00    +0.382 N 
ATOM     14  H   LIG    1        3.406   3.120   1.474  0.00  0.00    -0.081 HD
BRANCH  13  15
ATOM     15  C   LIG    1        3.883   1.344   2.393  0.00  0.00    -0.079 C 
BRANCH  15  17
ATOM     16  C   LIG    1        3.819   1.212   4.887  0.00  0.00    +0.002 C 
ATOM     17  C   LIG    1        3.237   1.913   3.658  0.00  0.00    -0.022 C 
ENDBRANCH  15  17
ENDBRANCH  13  15
BRANCH  13  18
ATOM     18  C   LIG    1        4.318   1.915   0.080  0.00  0.00    -0.079 C 
BRANCH  18  19
ATOM     19  C   LIG    1        5.618   2.680   0.337  0.00  0.00    -0.022 C 
ATOM     20  C   LIG    1        6.572   2.473  -0.842  0.00  0.00    +0.002 C 
ENDBRANCH  18  19
ENDBRANCH  13  18
ENDBRANCH   1  13
TORSDOF 6
