REMARK  Name = ZINC13588701
REMARK                            x       y       z     vdW  Elec       q    Type
REMARK                         _______ _______ _______ _____ _____    ______ ____
ROOT
ATOM      1  C   LIG    1        1.496   1.764  -0.003  0.00  0.00    +0.120 C 
ATOM      2  C   LIG    1       -0.018   1.438   0.010  0.00  0.00    +0.256 C 
ATOM      3  O   LIG    1        0.002  -0.004   0.002  0.00  0.00    -0.465 OA
ATOM      4  C   LIG    1        1.177  -0.401   0.529  0.00  0.00    +0.253 C 
ATOM      5  N   LIG    1        2.080   0.531   0.560  0.00  0.00    -0.338 N 
ATOM      6  H   LIG    1        3.080   0.315   0.965  0.00  0.00    +0.164 HD
ENDROOT
BRANCH   4   7
ATOM      7  N   LIG    1        1.400  -1.676   0.990  0.00  0.00    -0.315 N 
ATOM      8  H   LIG    1        0.598  -2.427   0.938  0.00  0.00    +0.147 HD
ATOM      9  H   LIG    1        2.380  -1.945   1.410  0.00  0.00    +0.147 HD
ENDBRANCH   4   7
BRANCH   1  11
ATOM     10  C   LIG    1        3.282   3.339   0.754  0.00  0.00    +0.006 C 
ATOM     11  C   LIG    1        1.803   2.970   0.887  0.00  0.00    +0.024 C 
ENDBRANCH   1  11
TORSDOF 2
