REMARK  Name = ZINC13742933
REMARK                            x       y       z     vdW  Elec       q    Type
REMARK                         _______ _______ _______ _____ _____    ______ ____
ROOT
ATOM      1  C   LIG    1       -0.718   1.572   1.248  0.00  0.00    -0.041 C 
ATOM      2  C   LIG    1       -1.109   0.714   2.158  0.00  0.00    +0.059 C 
ENDROOT
BRANCH   2   3
ATOM      3  P   LIG    1       -1.958   1.299   3.650  0.00  0.00    +0.212 P 
ATOM      4  O   LIG    1       -3.201   2.005   3.266  0.00  0.00    -0.290 OA
ATOM      5  H   LIG    1       -1.455   2.053   4.273  0.00  0.00    +0.132 HD
BRANCH   3   6
ATOM      6  O   LIG    1       -2.323   0.042   4.588  0.00  0.00    -0.343 OA
ATOM      7  H   LIG    1       -1.508  -0.420   4.839  0.00  0.00    +0.218 HD
ENDBRANCH   3   6
ENDBRANCH   2   3
BRANCH   1   8
ATOM      8  C   LIG    1       -0.013   1.086   0.008  0.00  0.00    -0.058 C 
BRANCH   8   9
ATOM      9  N   LIG    1       -0.723   1.572  -1.182  0.00  0.00    +0.380 N 
ATOM     10  H   LIG    1       -1.755   1.192  -1.174  0.00  0.00    -0.090 HD
ATOM     11  H   LIG    1       -0.738   2.672  -1.176  0.00  0.00    -0.090 HD
ATOM     12  H   LIG    1       -0.208   1.218  -2.087  0.00  0.00    -0.090 HD
ENDBRANCH   8   9
ENDBRANCH   1   8
TORSDOF 4
