REMARK  Name = ZINC13588699
REMARK                            x       y       z     vdW  Elec       q    Type
REMARK                         _______ _______ _______ _____ _____    ______ ____
ROOT
ATOM      1  C   LIG    1        2.771   0.626  -1.400  0.00  0.00    +0.034 C 
ATOM      2  C   LIG    1        2.171   0.805  -0.005  0.00  0.00    +0.118 C 
ATOM      3  C   LIG    1        1.324  -0.427   0.396  0.00  0.00    +0.256 C 
ATOM      4  O   LIG    1        0.002  -0.004   0.002  0.00  0.00    -0.465 OA
ATOM      5  C   LIG    1       -0.016   1.344   0.009  0.00  0.00    +0.253 C 
ATOM      6  N   LIG    1        1.163   1.884   0.001  0.00  0.00    -0.338 N 
ATOM      7  H   LIG    1        1.266   2.979  -0.001  0.00  0.00    +0.164 HD
ENDROOT
BRANCH   5   8
ATOM      8  N   LIG    1       -1.177   2.078   0.019  0.00  0.00    -0.315 N 
ATOM      9  H   LIG    1       -2.151   1.566   0.021  0.00  0.00    +0.147 HD
ATOM     10  H   LIG    1       -1.133   3.177   0.025  0.00  0.00    +0.147 HD
ENDBRANCH   5   8
TORSDOF 1
