REMARK  Name = ZINC13644423
REMARK                            x       y       z     vdW  Elec       q    Type
REMARK                         _______ _______ _______ _____ _____    ______ ____
ROOT
ATOM      1  C   LIG    1        1.640   1.625  -2.368  0.00  0.00    +0.008 C 
ATOM      2  C   LIG    1        1.988   0.518  -1.371  0.00  0.00    -0.011 C 
ATOM      3  C   LIG    1        1.385  -0.833  -1.829  0.00  0.00    +0.002 C 
ATOM      4  C   LIG    1       -0.087  -0.727  -1.358  0.00  0.00    +0.032 C 
ATOM      5  C   LIG    1        0.002  -0.004   0.002  0.00  0.00    +0.006 C 
ATOM      6  C   LIG    1       -0.019   1.526   0.010  0.00  0.00    +0.104 C 
ATOM      7  C   LIG    1        1.321   0.788  -0.006  0.00  0.00    +0.009 C 
ENDROOT
BRANCH   4   8
ATOM      8  N   LIG    1       -0.864   0.085  -2.311  0.00  0.00    +0.389 N 
ATOM      9  H   LIG    1       -0.386   0.981  -2.459  0.00  0.00    -0.088 HD
ATOM     10  H   LIG    1       -1.796   0.263  -1.940  0.00  0.00    -0.088 HD
ATOM     11  H   LIG    1       -0.941  -0.402  -3.203  0.00  0.00    -0.088 HD
ENDBRANCH   4   8
BRANCH   4  12
ATOM     12  C   LIG    1       -0.686  -2.099  -1.188  0.00  0.00    +0.293 C 
ATOM     13  O   LIG    1       -0.605  -2.666  -0.124  0.00  0.00    -0.253 OA
BRANCH  12  14
ATOM     14  O   LIG    1       -1.310  -2.691  -2.218  0.00  0.00    -0.482 OA
ATOM     15  H   LIG    1       -1.373  -2.252  -3.043  0.00  0.00    +0.295 HD
ENDBRANCH  12  14
ENDBRANCH   4  12
BRANCH   6  16
ATOM     16  C   LIG    1       -0.420   2.208   1.293  0.00  0.00    +0.308 C 
ATOM     17  O   LIG    1       -0.710   1.549   2.263  0.00  0.00    -0.251 OA
BRANCH  16  18
ATOM     18  O   LIG    1       -0.456   3.549   1.357  0.00  0.00    -0.480 OA
ATOM     19  H   LIG    1       -0.231   4.060   0.605  0.00  0.00    +0.295 HD
ENDBRANCH  16  18
ENDBRANCH   6  16
TORSDOF 5
