REMARK  Name = ZINC13739909
REMARK                            x       y       z     vdW  Elec       q    Type
REMARK                         _______ _______ _______ _____ _____    ______ ____
ROOT
ATOM      1  C   LIG    1       -0.048  -4.111   1.929  0.00  0.00    +0.132 A 
ATOM      2  C   LIG    1       -0.067  -2.724   1.937  0.00  0.00    +0.053 A 
ATOM      3  C   LIG    1        0.846  -2.016   1.180  0.00  0.00    -0.004 A 
ATOM      4  C   LIG    1        1.779  -2.693   0.407  0.00  0.00    +0.124 A 
ATOM      5  C   LIG    1        1.802  -4.080   0.405  0.00  0.00    +0.062 A 
ATOM      6  C   LIG    1        0.888  -4.787   1.162  0.00  0.00    +0.100 A 
ENDROOT
BRANCH   6   7
ATOM      7  C   LIG    1        0.910  -6.294   1.155  0.00  0.00    +0.421 C 
ATOM      8  F   LIG    1       -0.319  -6.776   0.691  0.00  0.00    -0.166 F 
ATOM      9  F   LIG    1        1.134  -6.763   2.454  0.00  0.00    -0.166 F 
ATOM     10  F   LIG    1        1.934  -6.742   0.314  0.00  0.00    -0.166 F 
ENDBRANCH   6   7
BRANCH   1  12
ATOM     11  C   LIG    1       -1.882  -4.045   3.442  0.00  0.00    +0.277 C 
ATOM     12  O   LIG    1       -0.947  -4.807   2.675  0.00  0.00    -0.495 OA
ENDBRANCH   1  12
BRANCH   4  13
ATOM     13  O   LIG    1        2.675  -1.997  -0.343  0.00  0.00    -0.495 OA
ATOM     14  C   LIG    1        3.606  -2.758  -1.113  0.00  0.00    +0.277 C 
ENDBRANCH   4  13
BRANCH   3  15
ATOM     15  C   LIG    1        0.826  -0.509   1.188  0.00  0.00    +0.019 C 
BRANCH  15  16
ATOM     16  C   LIG    1        0.002  -0.004   0.002  0.00  0.00    -0.082 C 
BRANCH  16  17
ATOM     17  N   LIG    1       -0.029   1.469   0.032  0.00  0.00    +0.378 N 
ATOM     18  H   LIG    1       -0.484   1.779   0.899  0.00  0.00    -0.090 HD
ATOM     19  H   LIG    1       -0.556   1.823  -0.764  0.00  0.00    -0.090 HD
ATOM     20  H   LIG    1        0.919   1.839   0.003  0.00  0.00    -0.090 HD
ENDBRANCH  16  17
ENDBRANCH  15  16
ENDBRANCH   3  15
TORSDOF 6
