REMARK  Name = ZINC13732187
REMARK                            x       y       z     vdW  Elec       q    Type
REMARK                         _______ _______ _______ _____ _____    ______ ____
ROOT
ATOM      1  C   LIG    1        0.039  -2.784  -0.011  0.00  0.00    +0.028 A 
ATOM      2  C   LIG    1        0.041  -2.085   1.193  0.00  0.00    +0.026 A 
ATOM      3  C   LIG    1        0.023  -0.706   1.198  0.00  0.00    +0.048 A 
ATOM      4  C   LIG    1        0.002  -0.004   0.002  0.00  0.00    +0.131 A 
ATOM      5  C   LIG    1       -0.006  -0.700  -1.214  0.00  0.00    +0.102 A 
ATOM      6  C   LIG    1        0.019  -2.097  -1.212  0.00  0.00    +0.041 A 
ENDROOT
BRANCH   1   7
ATOM      7  N   LIG    1        0.057  -4.183  -0.006  0.00  0.00    -0.340 N 
ATOM      8  H   LIG    1        0.056  -4.671  -0.844  0.00  0.00    +0.146 HD
BRANCH   7   9
ATOM      9  C   LIG    1        0.079  -4.911   1.265  0.00  0.00    +0.140 C 
BRANCH   9  14
ATOM     10  C   LIG    1       -1.056  -8.487   0.839  0.00  0.00    +0.001 A 
ATOM     11  C   LIG    1        0.127  -9.117   0.499  0.00  0.00    +0.004 A 
ATOM     12  C   LIG    1        1.297  -8.388   0.406  0.00  0.00    +0.046 A 
ATOM     13  C   LIG    1        1.284  -7.023   0.654  0.00  0.00    +0.122 A 
ATOM     14  C   LIG    1        0.096  -6.394   0.995  0.00  0.00    +0.011 A 
ATOM     15  C   LIG    1       -1.071  -7.128   1.091  0.00  0.00    +0.009 A 
BRANCH  13  16
ATOM     16  O   LIG    1        2.434  -6.304   0.564  0.00  0.00    -0.506 OA
ATOM     17  H   LIG    1        2.930  -6.250   1.392  0.00  0.00    +0.292 HD
ENDBRANCH  13  16
ENDBRANCH   9  14
ENDBRANCH   7   9
ENDBRANCH   1   7
BRANCH   4  18
ATOM     18  O   LIG    1       -0.016   1.353   0.009  0.00  0.00    -0.506 OA
ATOM     19  H   LIG    1        0.862   1.758   0.003  0.00  0.00    +0.292 HD
ENDBRANCH   4  18
BRANCH   5  20
ATOM     20  C   LIG    1       -0.034   0.038  -2.490  0.00  0.00    +0.340 C 
ATOM     21  O   LIG    1       -0.050   1.253  -2.488  0.00  0.00    -0.245 OA
BRANCH  20  22
ATOM     22  O   LIG    1       -0.041  -0.634  -3.658  0.00  0.00    -0.477 OA
ATOM     23  H   LIG    1       -0.029  -1.571  -3.659  0.00  0.00    +0.295 HD
ENDBRANCH  20  22
ENDBRANCH   5  20
TORSDOF 7
