REMARK  Name = ZINC13686846
REMARK                            x       y       z     vdW  Elec       q    Type
REMARK                         _______ _______ _______ _____ _____    ______ ____
ROOT
ATOM      1  C   LIG    1       -1.240   3.128   0.032  0.00  0.00    +0.033 A 
ATOM      2  C   LIG    1       -0.052   3.832   0.024  0.00  0.00    +0.006 A 
ATOM      3  C   LIG    1        1.161   3.160   0.007  0.00  0.00    -0.042 A 
ATOM      4  C   LIG    1        1.181   1.782   0.000  0.00  0.00    -0.028 A 
ATOM      5  C   LIG    1        2.473   1.006  -0.011  0.00  0.00    +0.116 C 
ATOM      6  N   LIG    1        3.584   1.867  -0.428  0.00  0.00    -0.312 NA
ATOM      7  H   LIG    1        4.534   1.325  -0.303  0.00  0.00    +0.122 HD
ATOM      8  C   LIG    1        3.616   3.090   0.390  0.00  0.00    +0.086 C 
ATOM      9  C   LIG    1       -0.013   1.076   0.008  0.00  0.00    +0.037 A 
ATOM     10  C   LIG    1        2.431   3.970  -0.007  0.00  0.00    +0.050 C 
ATOM     11  C   LIG    1       -1.220   1.746   0.017  0.00  0.00    +0.122 A 
ENDROOT
BRANCH  11  12
ATOM     12  N   LIG    1       -2.490   0.986   0.018  0.00  0.00    +0.006 N 
ATOM     13  O   LIG    1       -2.471  -0.232   0.010  0.00  0.00    -0.130 OA
BRANCH  12  14
ATOM     14  O   LIG    1       -3.554   1.578   0.026  0.00  0.00    -0.396 OA
ATOM     15  H   LIG    1       -3.569   2.515   0.032  0.00  0.00    +0.329 HD
ENDBRANCH  12  14
ENDBRANCH  11  12
TORSDOF 2
