REMARK  Name = ZINC13675869
REMARK                            x       y       z     vdW  Elec       q    Type
REMARK                         _______ _______ _______ _____ _____    ______ ____
ROOT
ATOM      1  C   LIG    1        3.711  -0.707  -0.038  0.00  0.00    +0.032 C 
ATOM      2  C   LIG    1        3.819  -1.585   1.210  0.00  0.00    -0.069 C 
ATOM      3  N   LIG    1        4.998  -2.454   1.071  0.00  0.00    +0.382 N 
ATOM      4  H   LIG    1        5.203  -2.889   1.958  0.00  0.00    -0.085 HD
ATOM      5  H   LIG    1        5.790  -1.904   0.773  0.00  0.00    -0.085 HD
ATOM      6  C   LIG    1        4.713  -3.487   0.072  0.00  0.00    -0.046 C 
ATOM      7  C   LIG    1        4.258  -2.862  -1.221  0.00  0.00    -0.059 A 
ATOM      8  C   LIG    1        4.319  -3.622  -2.380  0.00  0.00    +0.025 A 
ATOM      9  C   LIG    1        3.909  -3.089  -3.587  0.00  0.00    +0.082 A 
ATOM     10 CL   LIG    1        3.988  -4.048  -5.032  0.00  0.00    -0.080 Cl
ATOM     11  C   LIG    1        3.435  -1.786  -3.640  0.00  0.00    +0.135 A 
ATOM     12  C   LIG    1        3.376  -1.028  -2.482  0.00  0.00    +0.051 A 
ATOM     13  C   LIG    1        3.789  -1.566  -1.274  0.00  0.00    -0.037 A 
ENDROOT
BRANCH   1  17
ATOM     14  C   LIG    1       -0.017   1.378   0.010  0.00  0.00    +0.000 A 
ATOM     15  C   LIG    1        1.171   2.086   0.002  0.00  0.00    +0.000 A 
ATOM     16  C   LIG    1        2.377   1.411  -0.013  0.00  0.00    +0.004 A 
ATOM     17  C   LIG    1        2.396   0.029  -0.020  0.00  0.00    -0.042 A 
ATOM     18  C   LIG    1        1.208  -0.679  -0.012  0.00  0.00    +0.004 A 
ATOM     19  C   LIG    1        0.002  -0.004   0.002  0.00  0.00    +0.000 A 
ENDBRANCH   1  17
BRANCH  11  20
ATOM     20  O   LIG    1        3.028  -1.256  -4.824  0.00  0.00    -0.505 OA
ATOM     21  H   LIG    1        3.731  -0.810  -5.317  0.00  0.00    +0.292 HD
ENDBRANCH  11  20
TORSDOF 2
