REMARK  Name = ZINC13580132
REMARK                            x       y       z     vdW  Elec       q    Type
REMARK                         _______ _______ _______ _____ _____    ______ ____
ROOT
ATOM      1  C   LIG    1        0.031  -0.790  -1.248  0.00  0.00    -0.002 A 
ATOM      2  C   LIG    1       -0.051  -0.070  -2.443  0.00  0.00    +0.013 A 
ATOM      3  C   LIG    1       -0.063  -0.738  -3.648  0.00  0.00    +0.047 A 
ATOM      4  C   LIG    1        0.007  -2.125  -3.676  0.00  0.00    +0.128 A 
ATOM      5  C   LIG    1        0.088  -2.845  -2.491  0.00  0.00    +0.047 A 
ATOM      6  C   LIG    1        0.106  -2.185  -1.281  0.00  0.00    +0.013 A 
ENDROOT
BRANCH   1   8
ATOM      7  C   LIG    1       -0.037   1.425   0.077  0.00  0.00    +0.068 C 
ATOM      8  C   LIG    1        0.044  -0.080   0.044  0.00  0.00    +0.065 C 
ATOM      9  N   LIG    1        0.126  -0.750   1.152  0.00  0.00    -0.177 NA
BRANCH   9  10
ATOM     10  N   LIG    1        0.138  -0.075   2.380  0.00  0.00    -0.259 N 
ATOM     11  H   LIG    1        0.086   0.894   2.401  0.00  0.00    +0.191 HD
ATOM     12  C   LIG    1        0.224  -0.781   3.548  0.00  0.00    +0.142 C 
BRANCH  12  13
ATOM     13  N   LIG    1        0.236  -0.122   4.746  0.00  0.00    -0.338 N 
ATOM     14  H   LIG    1        0.297  -0.623   5.574  0.00  0.00    +0.144 HD
ATOM     15  H   LIG    1        0.184   0.846   4.768  0.00  0.00    +0.144 HD
ENDBRANCH  12  13
BRANCH  12  16
ATOM     16  S   LIG    1        0.314  -2.438   3.511  0.00  0.00    -0.109 S 
ATOM     17  H   LIG    1        0.285  -2.865   2.220  0.00  0.00    +0.110 HD
ENDBRANCH  12  16
ENDBRANCH   9  10
ENDBRANCH   1   8
BRANCH   4  18
ATOM     18  O   LIG    1       -0.005  -2.780  -4.866  0.00  0.00    -0.456 OA
BRANCH  18  19
ATOM     19  C   LIG    1       -1.087  -3.547  -5.161  0.00  0.00    +0.128 A 
ATOM     20  C   LIG    1       -2.193  -3.541  -4.323  0.00  0.00    +0.046 A 
ATOM     21  C   LIG    1       -3.292  -4.321  -4.626  0.00  0.00    +0.004 A 
ATOM     22  C   LIG    1       -3.291  -5.108  -5.763  0.00  0.00    +0.000 A 
ATOM     23  C   LIG    1       -2.190  -5.116  -6.599  0.00  0.00    +0.004 A 
ATOM     24  C   LIG    1       -1.091  -4.333  -6.305  0.00  0.00    +0.046 A 
ENDBRANCH  18  19
ENDBRANCH   4  18
TORSDOF 6
