REMARK  Name = ZINC13727176
REMARK                            x       y       z     vdW  Elec       q    Type
REMARK                         _______ _______ _______ _____ _____    ______ ____
ROOT
ATOM      1  C   LIG    1        2.381   1.413  -0.026  0.00  0.00    +0.042 A 
ATOM      2  C   LIG    1        1.903   0.814   1.129  0.00  0.00    +0.043 A 
ATOM      3  C   LIG    1        0.714   0.098   1.091  0.00  0.00    +0.113 A 
ATOM      4  N   LIG    1        0.018  -0.031  -0.015  0.00  0.00    -0.255 NA
ATOM      5  C   LIG    1        0.419   0.520  -1.166  0.00  0.00    +0.073 A 
ATOM      6  C   LIG    1       -0.337   0.373  -2.341  0.00  0.00    +0.028 A 
ATOM      7  C   LIG    1        0.094   0.946  -3.498  0.00  0.00    +0.002 A 
ATOM      8  C   LIG    1        1.278   1.679  -3.539  0.00  0.00    +0.001 A 
ATOM      9  C   LIG    1        2.037   1.842  -2.419  0.00  0.00    +0.012 A 
ATOM     10  C   LIG    1        1.622   1.266  -1.211  0.00  0.00    +0.022 A 
ENDROOT
BRANCH   1  11
ATOM     11  N   LIG    1        3.566   2.134  -0.020  0.00  0.00    -0.314 N 
ATOM     12  H   LIG    1        4.415   1.671   0.052  0.00  0.00    +0.152 HD
BRANCH  11  19
ATOM     13  C   LIG    1        6.042   3.517  -0.245  0.00  0.00    +0.045 C 
ATOM     14  C   LIG    1        4.722   4.243  -0.229  0.00  0.00    -0.029 A 
ATOM     15  C   LIG    1        4.689   5.620  -0.325  0.00  0.00    +0.005 A 
ATOM     16  C   LIG    1        3.478   6.287  -0.311  0.00  0.00    +0.000 A 
ATOM     17  C   LIG    1        2.295   5.578  -0.200  0.00  0.00    +0.002 A 
ATOM     18  C   LIG    1        2.321   4.200  -0.108  0.00  0.00    +0.023 A 
ATOM     19  C   LIG    1        3.536   3.527  -0.117  0.00  0.00    +0.034 A 
ENDBRANCH  11  19
ENDBRANCH   1  11
TORSDOF 2
