REMARK  Name = ZINC13737041
REMARK                            x       y       z     vdW  Elec       q    Type
REMARK                         _______ _______ _______ _____ _____    ______ ____
ROOT
ATOM      1  C   LIG    1        0.205   1.519   2.459  0.00  0.00    -0.026 C 
ATOM      2  C   LIG    1       -0.461   2.134   3.693  0.00  0.00    +0.030 C 
ATOM      3  C   LIG    1        0.383   1.864   4.913  0.00  0.00    +0.034 A 
ATOM      4  C   LIG    1        1.352   0.876   4.916  0.00  0.00    +0.127 A 
ATOM      5  O   LIG    1        1.597   0.110   3.821  0.00  0.00    -0.493 OA
ATOM      6  C   LIG    1        2.105   0.652   6.065  0.00  0.00    +0.046 A 
ATOM      7  C   LIG    1        1.891   1.411   7.198  0.00  0.00    +0.007 A 
ATOM      8  C   LIG    1        0.926   2.400   7.195  0.00  0.00    +0.046 A 
ATOM      9  C   LIG    1        0.172   2.627   6.054  0.00  0.00    +0.127 A 
ATOM     10  C   LIG    1        0.604   0.076   2.795  0.00  0.00    +0.214 C 
ENDROOT
BRANCH   1  11
ATOM     11  N   LIG    1       -0.748   1.550   1.330  0.00  0.00    +0.384 N 
ATOM     12  H   LIG    1       -1.114   2.504   1.229  0.00  0.00    -0.081 HD
BRANCH  11  13
ATOM     13  C   LIG    1       -0.063   1.163   0.079  0.00  0.00    -0.079 C 
BRANCH  13  15
ATOM     14  C   LIG    1        0.011   1.568  -2.385  0.00  0.00    +0.002 C 
ATOM     15  C   LIG    1       -0.737   1.886  -1.089  0.00  0.00    -0.022 C 
ENDBRANCH  13  15
ENDBRANCH  11  13
BRANCH  11  16
ATOM     16  C   LIG    1       -1.874   0.630   1.595  0.00  0.00    -0.079 C 
BRANCH  16  17
ATOM     17  C   LIG    1       -2.935   0.822   0.509  0.00  0.00    -0.022 C 
ATOM     18  C   LIG    1       -4.186   0.019   0.871  0.00  0.00    +0.002 C 
ENDBRANCH  16  17
ENDBRANCH  11  16
ENDBRANCH   1  11
BRANCH   9  19
ATOM     19  O   LIG    1       -0.776   3.601   6.052  0.00  0.00    -0.495 OA
ATOM     20  C   LIG    1       -0.941   4.349   7.258  0.00  0.00    +0.277 C 
ENDBRANCH   9  19
TORSDOF 6
