REMARK  Name = ZINC13587284
REMARK                            x       y       z     vdW  Elec       q    Type
REMARK                         _______ _______ _______ _____ _____    ______ ____
ROOT
ATOM      1  C   LIG    1       -3.824   2.628   0.287  0.00  0.00    -0.002 A 
ATOM      2  C   LIG    1       -3.659   1.242   0.343  0.00  0.00    +0.011 A 
ATOM      3  C   LIG    1       -2.397   0.696   0.250  0.00  0.00    +0.024 A 
ATOM      4  C   LIG    1       -1.289   1.523   0.101  0.00  0.00    +0.033 A 
ATOM      5  C   LIG    1       -1.449   2.904   0.051  0.00  0.00    +0.024 A 
ATOM      6  C   LIG    1       -2.708   3.456   0.138  0.00  0.00    +0.011 A 
ENDROOT
BRANCH   1  15
ATOM      7  C   LIG    1       -5.335   5.277   1.752  0.00  0.00    +0.014 C 
ATOM      8  C   LIG    1       -5.333   4.713   0.330  0.00  0.00    +0.046 C 
ATOM      9  C   LIG    1       -6.654   5.061  -0.364  0.00  0.00    +0.107 C 
ATOM     10  C   LIG    1       -7.756   4.214   0.222  0.00  0.00    +0.233 C 
ATOM     11  N   LIG    1       -7.495   2.946   0.594  0.00  0.00    -0.207 N 
ATOM     12  H   LIG    1       -8.216   2.381   0.914  0.00  0.00    +0.177 HD
ATOM     13  N   LIG    1       -6.195   2.439   0.523  0.00  0.00    -0.184 NA
ATOM     14  O   LIG    1       -8.871   4.673   0.359  0.00  0.00    -0.274 OA
ATOM     15  C   LIG    1       -5.172   3.216   0.385  0.00  0.00    +0.070 C 
ENDBRANCH   1  15
BRANCH   4  16
ATOM     16  N   LIG    1       -0.011   0.966   0.007  0.00  0.00    -0.286 N 
ATOM     17  H   LIG    1        0.200   0.152   0.492  0.00  0.00    +0.155 HD
ATOM     18  C   LIG    1        0.927   1.556  -0.760  0.00  0.00    +0.214 C 
ATOM     19  C   LIG    1        2.336   1.022  -0.772  0.00  0.00    +0.109 C 
ATOM     20  O   LIG    1        0.636   2.516  -1.442  0.00  0.00    -0.276 OA
ENDBRANCH   4  16
TORSDOF 2
