REMARK  Name = ZINC13611722
REMARK                            x       y       z     vdW  Elec       q    Type
REMARK                         _______ _______ _______ _____ _____    ______ ____
ROOT
ATOM      1  C   LIG    1        0.814  -0.733   3.622  0.00  0.00    -0.024 A 
ATOM      2  C   LIG    1        0.602  -1.879   4.287  0.00  0.00    +0.087 A 
ATOM      3  N   LIG    1        1.414  -1.939   5.385  0.00  0.00    -0.360 N 
ATOM      4  C   LIG    1        2.191  -0.801   5.456  0.00  0.00    +0.047 A 
ATOM      5  C   LIG    1        3.161  -0.362   6.350  0.00  0.00    +0.028 A 
ATOM      6  C   LIG    1        3.791   0.846   6.145  0.00  0.00    +0.026 A 
ATOM      7  C   LIG    1        3.455   1.644   5.053  0.00  0.00    +0.049 A 
ATOM      8  C   LIG    1        2.490   1.227   4.156  0.00  0.00    +0.034 A 
ATOM      9  H   LIG    1        1.441  -2.672   6.020  0.00  0.00    +0.165 HD
ATOM     10  C   LIG    1        1.852   0.000   4.351  0.00  0.00    +0.005 A 
ENDROOT
BRANCH   7  11
ATOM     11  N   LIG    1        4.098   2.873   4.864  0.00  0.00    -0.216 N 
ATOM     12  H   LIG    1        4.434   3.115   3.986  0.00  0.00    +0.174 HD
BRANCH  11  13
ATOM     13  S   LIG    1        4.287   3.913   6.138  0.00  0.00    +0.072 S 
ATOM     14  O   LIG    1        4.872   5.098   5.613  0.00  0.00    -0.150 OA
ATOM     15  O   LIG    1        4.891   3.167   7.186  0.00  0.00    -0.150 OA
BRANCH  13  16
ATOM     16  C   LIG    1        2.675   4.352   6.696  0.00  0.00    +0.109 A 
ATOM     17  C   LIG    1        1.991   5.393   6.070  0.00  0.00    +0.029 A 
ATOM     18  C   LIG    1        0.744   5.757   6.476  0.00  0.00    +0.012 A 
ATOM     19  C   LIG    1        0.134   5.075   7.543  0.00  0.00    +0.001 A 
ATOM     20  C   LIG    1        0.829   4.017   8.180  0.00  0.00    -0.015 A 
ATOM     21  C   LIG    1        0.219   3.336   9.246  0.00  0.00    +0.008 A 
ATOM     22  C   LIG    1       -1.028   3.699   9.653  0.00  0.00    +0.002 A 
ATOM     23  C   LIG    1       -1.713   4.739   9.028  0.00  0.00    +0.020 A 
ATOM     24  C   LIG    1       -1.153   5.423   7.990  0.00  0.00    +0.049 A 
ATOM     25 CL   LIG    1       -2.024   6.715   7.226  0.00  0.00    -0.083 Cl
ATOM     26  C   LIG    1        2.113   3.666   7.729  0.00  0.00    +0.037 A 
ENDBRANCH  13  16
ENDBRANCH  11  13
ENDBRANCH   7  11
BRANCH   1  27
ATOM     27  C   LIG    1        0.120  -0.286   2.360  0.00  0.00    +0.018 C 
BRANCH  27  28
ATOM     28  C   LIG    1        0.965  -0.680   1.147  0.00  0.00    -0.075 C 
BRANCH  28  30
ATOM     29  C   LIG    1        0.225   1.222  -0.113  0.00  0.00    -0.097 C 
ATOM     30  N   LIG    1        0.289  -0.245  -0.082  0.00  0.00    +0.376 N 
ATOM     31  H   LIG    1       -0.646  -0.623  -0.104  0.00  0.00    -0.083 HD
ATOM     32  C   LIG    1        1.038  -0.727  -1.250  0.00  0.00    -0.097 C 
ENDBRANCH  28  30
ENDBRANCH  27  28
ENDBRANCH   1  27
TORSDOF 6
