REMARK  Name = ZINC13608929
REMARK                            x       y       z     vdW  Elec       q    Type
REMARK                         _______ _______ _______ _____ _____    ______ ____
ROOT
ATOM      1  C   LIG    1        0.024  -0.743   1.267  0.00  0.00    +0.084 C 
ATOM      2  C   LIG    1        1.276  -0.360   2.061  0.00  0.00    +0.027 C 
ATOM      3  C   LIG    1        1.431  -1.307   3.256  0.00  0.00    +0.055 C 
ATOM      4  C   LIG    1        0.116  -1.363   3.999  0.00  0.00    +0.024 A 
ATOM      5  C   LIG    1       -1.060  -0.955   3.475  0.00  0.00    -0.017 A 
ATOM      6  C   LIG    1       -2.073  -1.167   4.488  0.00  0.00    +0.003 A 
ATOM      7  C   LIG    1       -3.452  -0.933   4.513  0.00  0.00    +0.010 A 
ATOM      8  C   LIG    1       -4.115  -1.260   5.670  0.00  0.00    +0.001 A 
ATOM      9  C   LIG    1       -3.461  -1.796   6.768  0.00  0.00    +0.002 A 
ATOM     10  C   LIG    1       -2.098  -2.038   6.769  0.00  0.00    +0.026 A 
ATOM     11  C   LIG    1       -1.398  -1.716   5.608  0.00  0.00    +0.050 A 
ATOM     12  N   LIG    1       -0.079  -1.821   5.276  0.00  0.00    -0.333 N 
ATOM     13  C   LIG    1       -1.224  -0.394   2.086  0.00  0.00    +0.058 C 
ENDROOT
BRANCH   1  15
ATOM     14  C   LIG    1       -0.018   1.461   0.010  0.00  0.00    +0.132 C 
ATOM     15  N   LIG    1        0.002  -0.004   0.002  0.00  0.00    -0.176 NA
BRANCH  15  16
ATOM     16  S   LIG    1       -0.000  -0.824  -1.437  0.00  0.00    +0.061 S 
ATOM     17  O   LIG    1       -0.572   0.049  -2.401  0.00  0.00    -0.153 OA
ATOM     18  O   LIG    1       -0.531  -2.115  -1.167  0.00  0.00    -0.153 OA
BRANCH  16  19
ATOM     19  C   LIG    1        1.682  -1.059  -1.905  0.00  0.00    +0.106 A 
ATOM     20  C   LIG    1        2.323  -0.109  -2.677  0.00  0.00    +0.031 A 
ATOM     21  C   LIG    1        3.643  -0.292  -3.045  0.00  0.00    +0.040 A 
ATOM     22  C   LIG    1        4.322  -1.428  -2.640  0.00  0.00    +0.124 A 
ATOM     23  F   LIG    1        5.612  -1.608  -2.999  0.00  0.00    -0.205 F 
ATOM     24  C   LIG    1        3.679  -2.380  -1.867  0.00  0.00    +0.040 A 
ATOM     25  C   LIG    1        2.361  -2.192  -1.496  0.00  0.00    +0.031 A 
ENDBRANCH  16  19
ENDBRANCH  15  16
ENDBRANCH   1  15
BRANCH  12  26
ATOM     26  C   LIG    1        0.972  -2.345   6.153  0.00  0.00    +0.242 C 
BRANCH  26  27
ATOM     27  C   LIG    1        1.563  -1.217   6.958  0.00  0.00    +0.325 C 
ATOM     28  O   LIG    1        1.146  -0.080   6.812  0.00  0.00    -0.249 OA
BRANCH  27  29
ATOM     29  O   LIG    1        2.459  -1.440   7.754  0.00  0.00    -0.479 OA
ATOM     30  H   LIG    1        2.780  -2.314   7.866  0.00  0.00    +0.295 HD
ENDBRANCH  27  29
ENDBRANCH  26  27
ENDBRANCH  12  26
TORSDOF 6
