REMARK  Name = ZINC13589376
REMARK                            x       y       z     vdW  Elec       q    Type
REMARK                         _______ _______ _______ _____ _____    ______ ____
ROOT
ATOM      1  C   LIG    1       -0.718   1.572   1.248  0.00  0.00    -0.041 A 
ATOM      2  C   LIG    1       -0.853   2.933   1.474  0.00  0.00    +0.005 A 
ATOM      3  C   LIG    1       -1.500   3.390   2.600  0.00  0.00    +0.015 A 
ATOM      4  C   LIG    1       -2.014   2.476   3.529  0.00  0.00    +0.056 A 
ATOM      5  C   LIG    1       -1.870   1.098   3.297  0.00  0.00    +0.127 A 
ATOM      6  C   LIG    1       -1.220   0.659   2.154  0.00  0.00    +0.050 A 
ENDROOT
BRANCH   1   8
ATOM      7  C   LIG    1        1.423   1.615  -0.003  0.00  0.00    +0.012 C 
ATOM      8  C   LIG    1       -0.013   1.086   0.008  0.00  0.00    +0.013 C 
ATOM      9  C   LIG    1       -0.753   1.593  -1.232  0.00  0.00    +0.012 C 
ENDBRANCH   1   8
BRANCH   4  10
ATOM     10  C   LIG    1       -2.700   2.955   4.735  0.00  0.00    +0.262 C 
ATOM     11  O   LIG    1       -3.144   2.160   5.536  0.00  0.00    -0.296 OA
ENDBRANCH   4  10
BRANCH   5  12
ATOM     12  O   LIG    1       -2.363   0.202   4.188  0.00  0.00    -0.506 OA
ATOM     13  H   LIG    1       -1.737  -0.050   4.880  0.00  0.00    +0.292 HD
ENDBRANCH   5  12
TORSDOF 3
