REMARK  Name = ZINC13680273
REMARK                            x       y       z     vdW  Elec       q    Type
REMARK                         _______ _______ _______ _____ _____    ______ ____
ROOT
ATOM      1  S   LIG    1       -2.384   2.253  -0.657  0.00  0.00    +0.059 S 
ATOM      2  O   LIG    1       -2.841   2.252   0.688  0.00  0.00    -0.153 OA
ATOM      3  O   LIG    1       -3.112   2.872  -1.709  0.00  0.00    -0.153 OA
ENDROOT
BRANCH   1   4
ATOM      4  C   LIG    1       -0.786   2.995  -0.646  0.00  0.00    +0.105 A 
ATOM      5  C   LIG    1       -0.010   2.943   0.498  0.00  0.00    +0.029 A 
ATOM      6  C   LIG    1        1.242   3.524   0.512  0.00  0.00    +0.010 A 
ATOM      7  C   LIG    1        1.725   4.163  -0.628  0.00  0.00    -0.018 A 
ATOM      8  C   LIG    1        0.939   4.212  -1.778  0.00  0.00    +0.010 A 
ATOM      9  C   LIG    1       -0.310   3.624  -1.783  0.00  0.00    +0.029 A 
BRANCH   7  10
ATOM     10  C   LIG    1        3.070   4.789  -0.619  0.00  0.00    -0.018 A 
ATOM     11  C   LIG    1        3.858   4.735   0.530  0.00  0.00    +0.009 A 
ATOM     12  C   LIG    1        5.108   5.319   0.534  0.00  0.00    +0.016 A 
ATOM     13  C   LIG    1        5.580   5.958  -0.600  0.00  0.00    +0.018 A 
ATOM     14 BR   LIG    1        7.294   6.756  -0.588  0.00  0.00    -0.050 Br
ATOM     15  C   LIG    1        4.801   6.014  -1.743  0.00  0.00    +0.016 A 
ATOM     16  C   LIG    1        3.552   5.428  -1.759  0.00  0.00    +0.009 A 
ENDBRANCH   7  10
ENDBRANCH   1   4
BRANCH   1  17
ATOM     17  N   LIG    1       -2.183   0.667  -1.090  0.00  0.00    -0.178 NA
ATOM     18  H   LIG    1       -2.551   0.343  -1.927  0.00  0.00    +0.149 HD
BRANCH  17  19
ATOM     19  C   LIG    1       -1.451  -0.246  -0.209  0.00  0.00    +0.167 C 
BRANCH  19  20
ATOM     20  C   LIG    1       -2.427  -1.002   0.654  0.00  0.00    +0.254 C 
ATOM     21  N   LIG    1       -2.002  -1.610   1.780  0.00  0.00    -0.196 N 
ATOM     22  H   LIG    1       -1.082  -1.503   2.070  0.00  0.00    +0.182 HD
ATOM     23  O   LIG    1       -3.596  -1.064   0.337  0.00  0.00    -0.272 OA
BRANCH  21  24
ATOM     24  O   LIG    1       -2.896  -2.403   2.538  0.00  0.00    -0.295 OA
ATOM     25  H   LIG    1       -2.500  -2.797   3.327  0.00  0.00    +0.241 HD
ENDBRANCH  21  24
ENDBRANCH  19  20
BRANCH  19  27
ATOM     26  C   LIG    1       -1.600  -2.055  -1.925  0.00  0.00    +0.009 C 
ATOM     27  C   LIG    1       -0.646  -1.235  -1.055  0.00  0.00    +0.010 C 
ATOM     28  C   LIG    1        0.327  -0.466  -1.950  0.00  0.00    +0.009 C 
ENDBRANCH  19  27
ENDBRANCH  17  19
ENDBRANCH   1  17
TORSDOF 7
