REMARK  Name = ZINC13686870
REMARK                            x       y       z     vdW  Elec       q    Type
REMARK                         _______ _______ _______ _____ _____    ______ ____
ROOT
ATOM      1  C   LIG    1        1.172   2.081   0.002  0.00  0.00    +0.012 A 
ATOM      2  C   LIG    1        2.374   1.401  -0.015  0.00  0.00    +0.004 A 
ATOM      3  C   LIG    1        2.394   0.015  -0.025  0.00  0.00    -0.041 A 
ATOM      4  C   LIG    1        1.208  -0.689  -0.013  0.00  0.00    -0.030 A 
ATOM      5  C   LIG    1        1.177  -2.195  -0.010  0.00  0.00    +0.117 C 
ATOM      6  N   LIG    1        2.471  -2.735  -0.439  0.00  0.00    -0.304 NA
ATOM      7  H   LIG    1        2.476  -3.827  -0.304  0.00  0.00    +0.123 HD
ATOM      8  C   LIG    1        3.559  -2.148   0.359  0.00  0.00    +0.125 C 
ATOM      9  C   LIG    1        0.002  -0.004   0.002  0.00  0.00    +0.017 A 
ATOM     10  C   LIG    1        3.728  -0.685  -0.054  0.00  0.00    +0.059 C 
ATOM     11  C   LIG    1       -0.017   1.376   0.010  0.00  0.00    +0.055 A 
ENDROOT
BRANCH  11  12
ATOM     12  C   LIG    1       -1.331   2.114   0.020  0.00  0.00    +0.417 C 
ATOM     13  F   LIG    1       -2.300   1.349  -0.639  0.00  0.00    -0.166 F 
ATOM     14  F   LIG    1       -1.182   3.341  -0.634  0.00  0.00    -0.166 F 
ATOM     15  F   LIG    1       -1.732   2.334   1.342  0.00  0.00    -0.166 F 
ENDBRANCH  11  12
BRANCH   8  16
ATOM     16  C   LIG    1        4.860  -2.910   0.095  0.00  0.00    +0.358 C 
ATOM     17  F   LIG    1        5.870  -2.408   0.922  0.00  0.00    -0.208 F 
ATOM     18  F   LIG    1        5.231  -2.749  -1.245  0.00  0.00    -0.208 F 
ENDBRANCH   8  16
TORSDOF 2
