REMARK  Name = ZINC13742954
REMARK                            x       y       z     vdW  Elec       q    Type
REMARK                         _______ _______ _______ _____ _____    ______ ____
ROOT
ATOM      1  C   LIG    1       -0.019   1.526   0.010  0.00  0.00    +0.106 C 
ENDROOT
BRANCH   1   2
ATOM      2  O   LIG    1        1.322   2.020   0.000  0.00  0.00    -0.393 OA
ATOM      3  H   LIG    1        1.508   3.104   0.004  0.00  0.00    +0.210 HD
ENDBRANCH   1   2
BRANCH   1   4
ATOM      4  C   LIG    1        0.002  -0.004   0.002  0.00  0.00    +0.126 C 
BRANCH   4   6
ATOM      5  C   LIG    1        0.912  -2.425   1.477  0.00  0.00    +0.111 C 
ATOM      6  P   LIG    1        0.751  -0.610   1.549  0.00  0.00    +0.202 P 
ATOM      7  O   LIG    1        2.090  -0.003   1.720  0.00  0.00    -0.291 OA
BRANCH   6   8
ATOM      8  O   LIG    1       -0.185  -0.204   2.794  0.00  0.00    -0.344 OA
ATOM      9  H   LIG    1        0.214  -0.526   3.618  0.00  0.00    +0.218 HD
ENDBRANCH   6   8
ENDBRANCH   4   6
ENDBRANCH   1   4
BRANCH   1  10
ATOM     10  C   LIG    1       -0.759   2.033  -1.229  0.00  0.00    -0.054 C 
BRANCH  10  11
ATOM     11  N   LIG    1       -0.779   3.501  -1.221  0.00  0.00    +0.380 N 
ATOM     12  H   LIG    1       -1.294   3.856  -0.316  0.00  0.00    -0.090 HD
ATOM     13  H   LIG    1        0.253   3.882  -1.229  0.00  0.00    -0.090 HD
ATOM     14  H   LIG    1       -1.311   3.866  -2.112  0.00  0.00    -0.090 HD
ENDBRANCH  10  11
ENDBRANCH   1  10
TORSDOF 6
