REMARK  Name = ZINC13588224
REMARK                            x       y       z     vdW  Elec       q    Type
REMARK                         _______ _______ _______ _____ _____    ______ ____
ROOT
ATOM      1  C   LIG    1       -0.996   3.742   0.027  0.00  0.00    +0.016 C 
ENDROOT
BRANCH   1   2
ATOM      2  C   LIG    1       -1.124   2.240   0.020  0.00  0.00    +0.201 C 
ATOM      3  N   LIG    1       -0.018   1.470   0.010  0.00  0.00    -0.303 N 
ATOM      4  C   LIG    1        1.368   1.960  -0.001  0.00  0.00    +0.108 C 
ATOM      5  C   LIG    1        2.291   0.724  -0.043  0.00  0.00    +0.020 C 
ATOM      6  C   LIG    1        1.368  -0.379  -0.625  0.00  0.00    +0.020 C 
ATOM      7  C   LIG    1        0.002  -0.004   0.002  0.00  0.00    +0.108 C 
ATOM      8  O   LIG    1       -2.222   1.726   0.022  0.00  0.00    -0.277 OA
ENDBRANCH   1   2
BRANCH   1  12
ATOM      9  C   LIG    1       -1.406   5.806   3.809  0.00  0.00    +0.000 C 
ATOM     10  C   LIG    1       -0.266   6.225   2.878  0.00  0.00    +0.000 C 
ATOM     11  C   LIG    1       -0.566   5.746   1.457  0.00  0.00    +0.002 C 
ATOM     12  C   LIG    1       -0.696   4.221   1.449  0.00  0.00    -0.017 C 
ATOM     13  C   LIG    1       -1.836   3.802   2.380  0.00  0.00    +0.002 C 
ATOM     14  C   LIG    1       -1.536   4.281   3.801  0.00  0.00    +0.000 C 
ENDBRANCH   1  12
BRANCH   1  15
ATOM     15  N   LIG    1       -2.253   4.343  -0.437  0.00  0.00    +0.386 N 
ATOM     16  H   LIG    1       -3.073   4.041   0.232  0.00  0.00    -0.089 HD
ATOM     17  H   LIG    1       -2.160   5.439  -0.431  0.00  0.00    -0.089 HD
ATOM     18  H   LIG    1       -2.469   3.998  -1.459  0.00  0.00    -0.089 HD
ENDBRANCH   1  15
TORSDOF 3
