REMARK  Name = ZINC13732965
REMARK                            x       y       z     vdW  Elec       q    Type
REMARK                         _______ _______ _______ _____ _____    ______ ____
ROOT
ATOM      1  C   LIG    1       -3.946   0.586  -1.886  0.00  0.00    +0.138 C 
ATOM      2  N   LIG    1       -3.199   1.363  -0.895  0.00  0.00    -0.271 N 
ATOM      3  C   LIG    1       -3.895   2.327  -0.181  0.00  0.00    +0.045 A 
ATOM      4  C   LIG    1       -4.827   3.095  -0.882  0.00  0.00    +0.024 A 
ATOM      5  C   LIG    1       -5.559   4.069  -0.241  0.00  0.00    +0.002 A 
ATOM      6  C   LIG    1       -5.376   4.298   1.113  0.00  0.00    +0.001 A 
ATOM      7  C   LIG    1       -4.462   3.551   1.820  0.00  0.00    +0.012 A 
ATOM      8  C   LIG    1       -3.708   2.555   1.180  0.00  0.00    +0.022 A 
ATOM      9  C   LIG    1       -2.745   1.799   1.996  0.00  0.00    +0.077 C 
ATOM     10  N   LIG    1       -1.567   1.454   1.613  0.00  0.00    -0.251 NA
ATOM     11  C   LIG    1       -1.060   1.787   0.282  0.00  0.00    +0.280 C 
ATOM     12  C   LIG    1       -1.904   1.090  -0.749  0.00  0.00    +0.262 C 
ATOM     13  O   LIG    1       -1.392   0.258  -1.468  0.00  0.00    -0.271 OA
ENDROOT
BRANCH   9  14
ATOM     14  C   LIG    1       -3.165   1.405   3.361  0.00  0.00    +0.001 A 
ATOM     15  C   LIG    1       -2.206   1.154   4.343  0.00  0.00    +0.010 A 
ATOM     16  C   LIG    1       -2.603   0.793   5.614  0.00  0.00    +0.001 A 
ATOM     17  C   LIG    1       -3.948   0.669   5.913  0.00  0.00    +0.000 A 
ATOM     18  C   LIG    1       -4.903   0.910   4.942  0.00  0.00    +0.001 A 
ATOM     19  C   LIG    1       -4.519   1.277   3.668  0.00  0.00    +0.010 A 
ENDBRANCH   9  14
BRANCH  11  20
ATOM     20  N   LIG    1        0.331   1.341   0.161  0.00  0.00    -0.270 N 
ATOM     21  H   LIG    1        0.530   0.398   0.056  0.00  0.00    +0.153 HD
ATOM     22  C   LIG    1        1.332   2.243   0.190  0.00  0.00    +0.306 C 
ATOM     23  N   LIG    1        2.611   1.833   0.073  0.00  0.00    -0.269 N 
ATOM     24  H   LIG    1        2.815   0.885   0.039  0.00  0.00    +0.156 HD
ATOM     25  O   LIG    1        1.082   3.425   0.321  0.00  0.00    -0.252 OA
BRANCH  23  26
ATOM     26  C   LIG    1        3.641   2.772  -0.000  0.00  0.00    +0.042 A 
ATOM     27  C   LIG    1        3.508   3.999   0.614  0.00  0.00    +0.024 A 
ATOM     28  C   LIG    1        4.531   4.941   0.551  0.00  0.00    +0.002 A 
ATOM     29  C   LIG    1        5.684   4.682  -0.125  0.00  0.00    +0.008 A 
ATOM     30  C   LIG    1        5.857   3.446  -0.769  0.00  0.00    -0.016 A 
ATOM     31  C   LIG    1        7.037   3.151  -1.474  0.00  0.00    +0.008 A 
ATOM     32  C   LIG    1        7.171   1.943  -2.087  0.00  0.00    +0.001 A 
ATOM     33  C   LIG    1        6.156   0.991  -2.027  0.00  0.00    +0.001 A 
ATOM     34  C   LIG    1        5.000   1.242  -1.353  0.00  0.00    +0.010 A 
ATOM     35  C   LIG    1        4.825   2.477  -0.708  0.00  0.00    +0.003 A 
ENDBRANCH  23  26
ENDBRANCH  11  20
TORSDOF 3
