REMARK  Name = ZINC13671719
REMARK                            x       y       z     vdW  Elec       q    Type
REMARK                         _______ _______ _______ _____ _____    ______ ____
ROOT
ATOM      1  C   LIG    1        2.636  -2.735   0.092  0.00  0.00    +0.225 C 
ATOM      2  N   LIG    1        1.621  -1.862  -0.064  0.00  0.00    -0.285 N 
ATOM      3  H   LIG    1        0.750  -2.178  -0.351  0.00  0.00    +0.155 HD
ATOM      4  O   LIG    1        3.716  -2.345   0.483  0.00  0.00    -0.275 OA
ENDROOT
BRANCH   2   5
ATOM      5  C   LIG    1        1.822  -0.505   0.186  0.00  0.00    +0.033 A 
ATOM      6  C   LIG    1        1.178   0.448  -0.596  0.00  0.00    +0.024 A 
ATOM      7  C   LIG    1        1.375   1.788  -0.351  0.00  0.00    +0.015 A 
ATOM      8  C   LIG    1        2.223   2.191   0.685  0.00  0.00    +0.039 A 
ATOM      9  C   LIG    1        2.869   1.230   1.468  0.00  0.00    +0.015 A 
ATOM     10  C   LIG    1        2.667  -0.108   1.218  0.00  0.00    +0.024 A 
BRANCH   8  11
ATOM     11  C   LIG    1        2.437   3.627   0.950  0.00  0.00    +0.267 C 
ATOM     12  N   LIG    1        3.255   4.013   1.949  0.00  0.00    -0.193 N 
ATOM     13  H   LIG    1        3.703   3.348   2.494  0.00  0.00    +0.183 HD
ATOM     14  O   LIG    1        1.875   4.462   0.267  0.00  0.00    -0.268 OA
BRANCH  12  15
ATOM     15  O   LIG    1        3.460   5.391   2.203  0.00  0.00    -0.295 OA
ATOM     16  H   LIG    1        4.062   5.570   2.938  0.00  0.00    +0.241 HD
ENDBRANCH  12  15
ENDBRANCH   8  11
ENDBRANCH   2   5
BRANCH   1  17
ATOM     17  C   LIG    1        2.430  -4.195  -0.219  0.00  0.00    +0.108 C 
BRANCH  17  18
ATOM     18  C   LIG    1        3.768  -4.871  -0.365  0.00  0.00    -0.035 A 
ATOM     19  C   LIG    1        4.661  -4.872   0.690  0.00  0.00    +0.004 A 
ATOM     20  C   LIG    1        5.888  -5.497   0.556  0.00  0.00    +0.000 A 
ATOM     21  C   LIG    1        6.224  -6.112  -0.635  0.00  0.00    +0.000 A 
ATOM     22  C   LIG    1        5.333  -6.106  -1.692  0.00  0.00    +0.000 A 
ATOM     23  C   LIG    1        4.105  -5.485  -1.557  0.00  0.00    +0.004 A 
ENDBRANCH  17  18
BRANCH  17  25
ATOM     24  C   LIG    1        0.242  -4.254   0.986  0.00  0.00    +0.008 C 
ATOM     25  C   LIG    1        1.648  -4.853   0.920  0.00  0.00    -0.001 C 
ATOM     26  C   LIG    1        1.549  -6.359   0.667  0.00  0.00    +0.008 C 
ENDBRANCH  17  25
ENDBRANCH   1  17
TORSDOF 6
