REMARK  Name = ZINC13580716
REMARK                            x       y       z     vdW  Elec       q    Type
REMARK                         _______ _______ _______ _____ _____    ______ ____
ROOT
ATOM      1  C   LIG    1        5.518  -0.237   0.518  0.00  0.00    +0.130 A 
ATOM      2  C   LIG    1        4.584   0.730   0.613  0.00  0.00    +0.106 A 
ATOM      3  N   LIG    1        3.431   0.126   1.036  0.00  0.00    -0.337 N 
ATOM      4  C   LIG    1        3.701  -1.188   1.190  0.00  0.00    +0.199 A 
ATOM      5  N   LIG    1        4.949  -1.399   0.873  0.00  0.00    -0.244 NA
ENDROOT
BRANCH   3   6
ATOM      6  C   LIG    1        2.144   0.783   1.280  0.00  0.00    +0.126 C 
BRANCH   6   7
ATOM      7  C   LIG    1        1.317   0.779  -0.006  0.00  0.00    +0.009 C 
ATOM      8  C   LIG    1       -0.019   1.526   0.010  0.00  0.00    +0.005 C 
ATOM      9  C   LIG    1        0.002  -0.004   0.002  0.00  0.00    +0.005 C 
ENDBRANCH   6   7
ENDBRANCH   3   6
TORSDOF 2
