REMARK  Name = ZINC13557990
REMARK                            x       y       z     vdW  Elec       q    Type
REMARK                         _______ _______ _______ _____ _____    ______ ____
ROOT
ATOM      1  C   LIG    1       -1.321   2.384  -0.140  0.00  0.00    +0.046 A 
ATOM      2  C   LIG    1       -0.032   1.867  -0.151  0.00  0.00    +0.026 A 
ATOM      3  C   LIG    1        1.053   2.712  -0.254  0.00  0.00    +0.026 A 
ATOM      4  C   LIG    1        0.866   4.089  -0.341  0.00  0.00    +0.048 A 
ATOM      5  C   LIG    1       -0.412   4.620  -0.324  0.00  0.00    +0.039 A 
ATOM      6  C   LIG    1       -1.516   3.771  -0.221  0.00  0.00    +0.060 A 
ENDROOT
BRANCH   1   8
ATOM      7  C   LIG    1       -2.332   0.407   0.701  0.00  0.00    +0.248 C 
ATOM      8  N   LIG    1       -2.417   1.528  -0.042  0.00  0.00    -0.281 N 
ATOM      9  H   LIG    1       -3.240   1.739  -0.509  0.00  0.00    +0.155 HD
ATOM     10  O   LIG    1       -1.336   0.191   1.364  0.00  0.00    -0.270 OA
BRANCH   7  14
ATOM     11  C   LIG    1       -5.543  -2.371   0.726  0.00  0.00    +0.029 A 
ATOM     12  C   LIG    1       -4.403  -2.620   1.486  0.00  0.00    +0.024 A 
ATOM     13  C   LIG    1       -3.361  -1.722   1.480  0.00  0.00    +0.015 A 
ATOM     14  C   LIG    1       -3.447  -0.558   0.709  0.00  0.00    +0.037 A 
ATOM     15  C   LIG    1       -4.595  -0.308  -0.048  0.00  0.00    +0.015 A 
ATOM     16  C   LIG    1       -5.632  -1.213  -0.042  0.00  0.00    +0.024 A 
BRANCH  11  18
ATOM     17  C   LIG    1       -6.457  -4.553   1.447  0.00  0.00    +0.129 C 
ATOM     18  N   LIG    1       -6.595  -3.280   0.734  0.00  0.00    -0.336 N 
ATOM     19  C   LIG    1       -7.841  -2.966   0.030  0.00  0.00    +0.129 C 
ENDBRANCH  11  18
ENDBRANCH   7  14
ENDBRANCH   1   8
BRANCH   6  20
ATOM     20  C   LIG    1       -2.881   4.329  -0.203  0.00  0.00    +0.250 C 
ATOM     21  N   LIG    1       -3.063   5.664  -0.185  0.00  0.00    -0.281 N 
ATOM     22  H   LIG    1       -2.300   6.258  -0.263  0.00  0.00    +0.155 HD
ATOM     23  O   LIG    1       -3.843   3.584  -0.203  0.00  0.00    -0.270 OA
BRANCH  21  24
ATOM     24  C   LIG    1       -4.353   6.194  -0.055  0.00  0.00    +0.034 A 
ATOM     25  C   LIG    1       -4.689   7.373  -0.706  0.00  0.00    +0.027 A 
ATOM     26  C   LIG    1       -5.963   7.892  -0.581  0.00  0.00    +0.047 A 
ATOM     27  C   LIG    1       -6.903   7.240   0.204  0.00  0.00    +0.120 A 
ATOM     28  C   LIG    1       -6.566   6.065   0.859  0.00  0.00    +0.047 A 
ATOM     29  C   LIG    1       -5.295   5.542   0.731  0.00  0.00    +0.027 A 
BRANCH  27  30
ATOM     30  O   LIG    1       -8.155   7.755   0.330  0.00  0.00    -0.495 OA
ATOM     31  C   LIG    1       -8.433   8.968  -0.372  0.00  0.00    +0.277 C 
ENDBRANCH  27  30
ENDBRANCH  21  24
ENDBRANCH   6  20
BRANCH   4  32
ATOM     32  N   LIG    1        1.974   4.938  -0.445  0.00  0.00    -0.221 N 
ATOM     33  H   LIG    1        2.019   5.743   0.094  0.00  0.00    +0.173 HD
BRANCH  32  34
ATOM     34  S   LIG    1        3.206   4.568  -1.487  0.00  0.00    +0.040 S 
ATOM     35  C   LIG    1        2.463   4.662  -3.139  0.00  0.00    +0.218 C 
ATOM     36  O   LIG    1        3.549   3.224  -1.181  0.00  0.00    -0.155 OA
ATOM     37  O   LIG    1        4.152   5.614  -1.316  0.00  0.00    -0.155 OA
ENDBRANCH  32  34
ENDBRANCH   4  32
TORSDOF 8
