REMARK  Name = ZINC13585914
REMARK                            x       y       z     vdW  Elec       q    Type
REMARK                         _______ _______ _______ _____ _____    ______ ____
ROOT
ATOM      1  C   LIG    1       -0.715   3.092   0.025  0.00  0.00    +0.083 A 
ATOM      2  C   LIG    1       -1.152   1.766   0.017  0.00  0.00    +0.083 A 
ATOM      3  N   LIG    1       -0.011   0.966   0.007  0.00  0.00    -0.305 N 
ATOM      4  C   LIG    1        1.070   1.768   0.001  0.00  0.00    +0.325 A 
ATOM      5  O   LIG    1        2.225   1.388  -0.012  0.00  0.00    -0.247 OA
ATOM      6  H   LIG    1        0.002  -0.004   0.002  0.00  0.00    +0.170 HD
ATOM      7  C   LIG    1       -2.511   1.486   0.021  0.00  0.00    +0.058 A 
ATOM      8 BR   LIG    1       -3.108  -0.308   0.014  0.00  0.00    -0.047 Br
ATOM      9  C   LIG    1       -3.427   2.521   0.030  0.00  0.00    +0.049 A 
ATOM     10 BR   LIG    1       -5.279   2.140   0.036  0.00  0.00    -0.048 Br
ATOM     11  C   LIG    1       -2.993   3.837   0.035  0.00  0.00    +0.049 A 
ATOM     12 BR   LIG    1       -4.256   5.245   0.048  0.00  0.00    -0.048 Br
ATOM     13  N   LIG    1        0.678   3.057   0.012  0.00  0.00    -0.305 N 
ATOM     14  H   LIG    1        1.266   3.829   0.010  0.00  0.00    +0.170 HD
ATOM     15  C   LIG    1       -1.641   4.125   0.040  0.00  0.00    +0.058 A 
ATOM     16 BR   LIG    1       -1.054   5.923   0.044  0.00  0.00    -0.047 Br
ENDROOT
TORSDOF 0
