REMARK  Name = ZINC13679593
REMARK                            x       y       z     vdW  Elec       q    Type
REMARK                         _______ _______ _______ _____ _____    ______ ____
ROOT
ATOM      1  C   LIG    1       -0.059   1.321   0.279  0.00  0.00    +0.135 C 
ATOM      2  S   LIG    1        1.392   2.169   0.608  0.00  0.00    -0.019 S 
ENDROOT
BRANCH   1   3
ATOM      3  N   LIG    1       -1.192   2.002   0.019  0.00  0.00    -0.297 N 
ATOM      4  H   LIG    1       -1.994   1.524  -0.247  0.00  0.00    +0.154 HD
BRANCH   3   8
ATOM      5  C   LIG    1       -1.254   6.153   0.356  0.00  0.00    +0.000 A 
ATOM      6  C   LIG    1       -1.894   5.538  -0.705  0.00  0.00    +0.002 A 
ATOM      7  C   LIG    1       -1.875   4.161  -0.819  0.00  0.00    +0.023 A 
ATOM      8  C   LIG    1       -1.213   3.396   0.132  0.00  0.00    +0.033 A 
ATOM      9  C   LIG    1       -0.577   4.017   1.199  0.00  0.00    +0.023 A 
ATOM     10  C   LIG    1       -0.595   5.394   1.305  0.00  0.00    +0.002 A 
ENDBRANCH   3   8
ENDBRANCH   1   3
BRANCH   1  11
ATOM     11  N   LIG    1       -0.066  -0.027   0.275  0.00  0.00    -0.326 N 
ATOM     12  H   LIG    1       -0.887  -0.507   0.089  0.00  0.00    +0.148 HD
BRANCH  11  13
ATOM     13  C   LIG    1        1.168  -0.766   0.552  0.00  0.00    +0.105 C 
BRANCH  13  14
ATOM     14  C   LIG    1        0.888  -2.269   0.486  0.00  0.00    +0.040 C 
BRANCH  14  15
ATOM     15  C   LIG    1        2.176  -3.042   0.776  0.00  0.00    +0.124 C 
BRANCH  15  16
ATOM     16  N   LIG    1        1.908  -4.480   0.713  0.00  0.00    -0.337 N 
ATOM     17  C   LIG    1        1.522  -5.281   1.754  0.00  0.00    +0.106 A 
ATOM     18  C   LIG    1        1.383  -6.525   1.258  0.00  0.00    +0.130 A 
ATOM     19  N   LIG    1        1.685  -6.487  -0.048  0.00  0.00    -0.244 NA
ATOM     20  C   LIG    1        2.001  -5.266  -0.382  0.00  0.00    +0.199 A 
ENDBRANCH  15  16
ENDBRANCH  14  15
ENDBRANCH  13  14
ENDBRANCH  11  13
ENDBRANCH   1  11
TORSDOF 7
