REMARK  Name = ZINC13650712
REMARK                            x       y       z     vdW  Elec       q    Type
REMARK                         _______ _______ _______ _____ _____    ______ ____
ROOT
ATOM      1  C   LIG    1        4.200  -1.752  -0.074  0.00  0.00    +0.149 C 
ATOM      2  N   LIG    1        3.729  -0.365  -0.063  0.00  0.00    -0.349 N 
ATOM      3  C   LIG    1        4.536   0.740  -0.073  0.00  0.00    +0.090 A 
ATOM      4  C   LIG    1        3.788   1.854  -0.058  0.00  0.00    -0.018 A 
ATOM      5  C   LIG    1        2.386   1.429  -0.036  0.00  0.00    +0.005 A 
ATOM      6  C   LIG    1        1.167   2.110  -0.014  0.00  0.00    +0.033 A 
ATOM      7  C   LIG    1       -0.015   1.393   0.003  0.00  0.00    +0.037 A 
ATOM      8  C   LIG    1        0.009   0.000  -0.002  0.00  0.00    +0.025 A 
ATOM      9  C   LIG    1        1.206  -0.681  -0.023  0.00  0.00    +0.028 A 
ATOM     10  C   LIG    1        2.406   0.022  -0.040  0.00  0.00    +0.049 A 
ENDROOT
BRANCH   7  11
ATOM     11  N   LIG    1       -1.242   2.071   0.019  0.00  0.00    -0.251 N 
ATOM     12  H   LIG    1       -2.004   1.706  -0.456  0.00  0.00    +0.158 HD
ATOM     13  C   LIG    1       -1.362   3.231   0.696  0.00  0.00    +0.405 C 
ATOM     14  O   LIG    1       -0.388   3.732   1.221  0.00  0.00    -0.226 OA
BRANCH  13  15
ATOM     15  O   LIG    1       -2.562   3.834   0.789  0.00  0.00    -0.447 OA
BRANCH  15  16
ATOM     16  C   LIG    1       -2.618   5.080   1.533  0.00  0.00    +0.178 C 
ATOM     17  C   LIG    1       -2.984   4.801   3.005  0.00  0.00    +0.045 C 
ATOM     18  C   LIG    1       -3.898   5.987   3.400  0.00  0.00    +0.004 C 
ATOM     19  C   LIG    1       -4.731   6.220   2.115  0.00  0.00    +0.004 C 
ATOM     20  C   LIG    1       -3.728   5.982   0.967  0.00  0.00    +0.045 C 
ENDBRANCH  15  16
ENDBRANCH  13  15
ENDBRANCH   7  11
BRANCH   4  21
ATOM     21  C   LIG    1        4.294   3.273  -0.062  0.00  0.00    +0.076 C 
BRANCH  21  22
ATOM     22  C   LIG    1        4.369   3.784   1.354  0.00  0.00    -0.001 A 
ATOM     23  C   LIG    1        3.319   4.514   1.880  0.00  0.00    +0.008 A 
ATOM     24  C   LIG    1        3.379   4.980   3.177  0.00  0.00    +0.015 A 
ATOM     25  C   LIG    1        4.507   4.724   3.959  0.00  0.00    +0.062 A 
ATOM     26  C   LIG    1        5.568   3.992   3.425  0.00  0.00    +0.061 A 
ATOM     27  C   LIG    1        5.495   3.524   2.123  0.00  0.00    +0.124 A 
BRANCH  25  28
ATOM     28  C   LIG    1        4.578   5.227   5.346  0.00  0.00    +0.337 C 
ATOM     29  O   LIG    1        5.560   5.003   6.024  0.00  0.00    -0.245 OA
BRANCH  28  30
ATOM     30  O   LIG    1        3.552   5.934   5.859  0.00  0.00    -0.477 OA
ATOM     31  H   LIG    1        2.794   6.106   5.336  0.00  0.00    +0.295 HD
ENDBRANCH  28  30
ENDBRANCH  25  28
BRANCH  27  32
ATOM     32  O   LIG    1        6.526   2.810   1.599  0.00  0.00    -0.495 OA
ATOM     33  C   LIG    1        7.653   2.580   2.447  0.00  0.00    +0.277 C 
ENDBRANCH  27  32
ENDBRANCH  21  22
ENDBRANCH   4  21
TORSDOF 8
