REMARK  Name = ZINC13684518
REMARK                            x       y       z     vdW  Elec       q    Type
REMARK                         _______ _______ _______ _____ _____    ______ ____
ROOT
ATOM      1  C   LIG    1       -2.820   0.239   1.074  0.00  0.00    -0.036 C 
ATOM      2  C   LIG    1       -2.505   1.005   0.019  0.00  0.00    -0.035 C 
ATOM      3  C   LIG    1       -3.433   1.117  -1.159  0.00  0.00    +0.041 C 
ATOM      4  C   LIG    1       -4.128  -0.221  -1.424  0.00  0.00    +0.040 C 
ATOM      5  C   LIG    1       -4.732  -0.747  -0.150  0.00  0.00    -0.040 A 
ATOM      6  C   LIG    1       -5.915  -1.453  -0.173  0.00  0.00    +0.004 A 
ATOM      7  C   LIG    1       -6.437  -1.970   1.001  0.00  0.00    +0.000 A 
ATOM      8  C   LIG    1       -5.774  -1.788   2.202  0.00  0.00    +0.001 A 
ATOM      9  C   LIG    1       -4.592  -1.076   2.240  0.00  0.00    +0.008 A 
ATOM     10  C   LIG    1       -4.074  -0.534   1.066  0.00  0.00    -0.018 A 
ENDROOT
BRANCH   2  11
ATOM     11  C   LIG    1       -1.235   1.752   0.017  0.00  0.00    -0.003 A 
ATOM     12  C   LIG    1       -1.232   3.154   0.030  0.00  0.00    +0.011 A 
ATOM     13  C   LIG    1       -0.013   3.807   0.022  0.00  0.00    +0.020 A 
ATOM     14  C   LIG    1        1.154   3.063   0.007  0.00  0.00    +0.111 A 
ATOM     15  N   LIG    1        1.122   1.744   0.001  0.00  0.00    -0.263 NA
ATOM     16  C   LIG    1       -0.013   1.076   0.008  0.00  0.00    +0.118 A 
ENDBRANCH   2  11
BRANCH   1  18
ATOM     17  C   LIG    1       -2.350   1.176   3.321  0.00  0.00    +0.009 C 
ATOM     18  C   LIG    1       -1.896   0.169   2.262  0.00  0.00    +0.032 C 
ENDBRANCH   1  18
TORSDOF 2
