REMARK  Name = ZINC13679477
REMARK                            x       y       z     vdW  Elec       q    Type
REMARK                         _______ _______ _______ _____ _____    ______ ____
ROOT
ATOM      1  C   LIG    1        1.201  -2.203  -0.023  0.00  0.00    +0.044 C 
ATOM      2  C   LIG    1        1.205  -0.696  -0.014  0.00  0.00    -0.045 A 
ATOM      3  C   LIG    1        2.404  -0.015  -0.021  0.00  0.00    +0.031 A 
ATOM      4  C   LIG    1        2.406   1.373  -0.014  0.00  0.00    +0.067 A 
ATOM      5  C   LIG    1        1.187   2.075   0.002  0.00  0.00    +0.090 A 
ATOM      6  N   LIG    1        1.486   3.396   0.006  0.00  0.00    -0.226 NA
ATOM      7  C   LIG    1        2.786   3.553  -0.006  0.00  0.00    +0.158 A 
ATOM      8  C   LIG    1       -0.016   1.362   0.009  0.00  0.00    +0.033 A 
ATOM      9  N   LIG    1        3.401   2.330  -0.018  0.00  0.00    -0.337 N 
ATOM     10  H   LIG    1        4.386   2.161  -0.028  0.00  0.00    +0.167 HD
ATOM     11  C   LIG    1        0.002  -0.004   0.002  0.00  0.00    -0.045 A 
ATOM     12  C   LIG    1       -1.297  -0.767   0.010  0.00  0.00    +0.044 C 
ENDROOT
BRANCH   7  13
ATOM     13  C   LIG    1        3.486   4.857  -0.006  0.00  0.00    +0.106 A 
ATOM     14  C   LIG    1        2.746   6.039   0.001  0.00  0.00    +0.031 A 
ATOM     15  C   LIG    1        3.415   7.251   0.005  0.00  0.00    +0.004 A 
ATOM     16  C   LIG    1        4.802   7.242  -0.009  0.00  0.00    +0.020 A 
ATOM     17  C   LIG    1        5.473   6.032  -0.021  0.00  0.00    +0.111 A 
ATOM     18  N   LIG    1        4.813   4.893  -0.020  0.00  0.00    -0.252 NA
ENDBRANCH   7  13
TORSDOF 1
