REMARK  Name = ZINC13744633
REMARK                            x       y       z     vdW  Elec       q    Type
REMARK                         _______ _______ _______ _____ _____    ______ ____
ROOT
ATOM      1  C   LIG    1        2.966   4.518  -0.435  0.00  0.00    +0.162 A 
ATOM      2  C   LIG    1        1.599   4.746  -0.349  0.00  0.00    +0.053 A 
ATOM      3  C   LIG    1        0.721   3.687  -0.242  0.00  0.00    -0.033 A 
ATOM      4  C   LIG    1        1.204   2.377  -0.221  0.00  0.00    +0.025 A 
ATOM      5  C   LIG    1        0.097   1.418  -0.102  0.00  0.00    +0.167 C 
ATOM      6  C   LIG    1       -1.196   2.195  -0.050  0.00  0.00    +0.065 C 
ATOM      7  O   LIG    1        0.203   0.210  -0.059  0.00  0.00    -0.292 OA
ATOM      8  C   LIG    1        2.588   2.149  -0.309  0.00  0.00    +0.061 A 
ATOM      9  C   LIG    1       -0.786   3.672  -0.136  0.00  0.00    +0.047 C 
ATOM     10  C   LIG    1        3.458   3.213  -0.415  0.00  0.00    +0.162 A 
ENDROOT
BRANCH   1  12
ATOM     11  C   LIG    1        3.249   6.874  -0.554  0.00  0.00    +0.277 C 
ATOM     12  O   LIG    1        3.823   5.565  -0.539  0.00  0.00    -0.491 OA
ENDBRANCH   1  12
BRANCH  10  13
ATOM     13  O   LIG    1        4.797   2.991  -0.499  0.00  0.00    -0.491 OA
ATOM     14  C   LIG    1        5.232   1.630  -0.472  0.00  0.00    +0.277 C 
ENDBRANCH  10  13
BRANCH   6  15
ATOM     15  C   LIG    1       -2.088   1.820  -1.235  0.00  0.00    +0.015 C 
BRANCH  15  16
ATOM     16  C   LIG    1       -3.444   2.514  -1.092  0.00  0.00    -0.014 C 
ATOM     17  C   LIG    1       -4.177   1.958   0.132  0.00  0.00    -0.016 C 
ATOM     18  C   LIG    1       -5.557   2.611   0.234  0.00  0.00    -0.082 C 
ATOM     19  N   LIG    1       -6.334   2.327  -0.988  0.00  0.00    +0.379 N 
ATOM     20  H   LIG    1       -6.419   1.311  -1.106  0.00  0.00    -0.086 HD
ATOM     21  H   LIG    1       -7.270   2.740  -0.897  0.00  0.00    -0.086 HD
ATOM     22  C   LIG    1       -5.663   2.900  -2.170  0.00  0.00    -0.082 C 
ATOM     23  C   LIG    1       -4.286   2.255  -2.344  0.00  0.00    -0.016 C 
ENDBRANCH  15  16
ENDBRANCH   6  15
TORSDOF 4
