REMARK  Name = ZINC13684484
REMARK                            x       y       z     vdW  Elec       q    Type
REMARK                         _______ _______ _______ _____ _____    ______ ____
ROOT
ATOM      1  C   LIG    1       -4.807   4.820  -8.076  0.00  0.00    -0.011 A 
ATOM      2  C   LIG    1       -5.394   6.088  -8.004  0.00  0.00    +0.028 A 
ATOM      3  C   LIG    1       -5.287   6.815  -6.836  0.00  0.00    +0.112 A 
ATOM      4  N   LIG    1       -4.646   6.331  -5.791  0.00  0.00    -0.255 NA
ATOM      5  C   LIG    1       -4.068   5.136  -5.814  0.00  0.00    +0.072 A 
ATOM      6  C   LIG    1       -4.131   4.340  -6.952  0.00  0.00    +0.037 A 
ENDROOT
BRANCH   1   8
ATOM      7  C   LIG    1       -6.082   3.722 -10.041  0.00  0.00    +0.118 A 
ATOM      8  C   LIG    1       -4.900   4.007  -9.312  0.00  0.00    +0.029 A 
ATOM      9  C   LIG    1       -3.864   3.402  -9.959  0.00  0.00    +0.114 A 
ATOM     10  N   LIG    1       -4.366   2.762 -11.034  0.00  0.00    -0.284 N 
ATOM     11  H   LIG    1       -3.840   2.225 -11.694  0.00  0.00    +0.188 HD
ATOM     12  N   LIG    1       -5.749   2.975 -11.071  0.00  0.00    -0.172 NA
BRANCH   7  17
ATOM     13  C   LIG    1       -9.682   4.728 -10.377  0.00  0.00    +0.004 A 
ATOM     14  C   LIG    1       -9.954   5.032  -9.050  0.00  0.00    +0.020 A 
ATOM     15  C   LIG    1       -8.955   4.896  -8.104  0.00  0.00    +0.111 A 
ATOM     16  N   LIG    1       -7.753   4.478  -8.445  0.00  0.00    -0.253 NA
ATOM     17  C   LIG    1       -7.450   4.183  -9.703  0.00  0.00    +0.091 A 
ATOM     18  C   LIG    1       -8.409   4.297 -10.708  0.00  0.00    +0.030 A 
ENDBRANCH   7  17
ENDBRANCH   1   8
BRANCH   5  19
ATOM     19  C   LIG    1       -3.355   4.643  -4.611  0.00  0.00    +0.000 A 
ATOM     20  C   LIG    1       -3.288   5.436  -3.465  0.00  0.00    +0.011 A 
ATOM     21  C   LIG    1       -2.626   4.979  -2.348  0.00  0.00    +0.014 A 
ATOM     22  C   LIG    1       -2.020   3.720  -2.362  0.00  0.00    +0.037 A 
ATOM     23  C   LIG    1       -2.083   2.929  -3.511  0.00  0.00    +0.014 A 
ATOM     24  C   LIG    1       -2.750   3.386  -4.626  0.00  0.00    +0.011 A 
BRANCH  22  25
ATOM     25  C   LIG    1       -1.308   3.229  -1.164  0.00  0.00    +0.244 C 
ATOM     26  N   LIG    1       -0.724   2.015  -1.177  0.00  0.00    -0.308 N 
ATOM     27  H   LIG    1       -0.771   1.463  -1.974  0.00  0.00    +0.149 HD
ATOM     28  O   LIG    1       -1.250   3.920  -0.165  0.00  0.00    -0.270 OA
BRANCH  26  29
ATOM     29  C   LIG    1       -0.019   1.528   0.010  0.00  0.00    +0.078 C 
ATOM     30  C   LIG    1        1.422   2.047  -0.001  0.00  0.00    +0.050 C 
ATOM     31  C   LIG    1        2.174   1.469   1.202  0.00  0.00    +0.161 C 
ATOM     32  O   LIG    1        2.128   0.042   1.149  0.00  0.00    -0.380 OA
ATOM     33  C   LIG    1        0.808  -0.502   1.204  0.00  0.00    +0.161 C 
ATOM     34  C   LIG    1        0.002  -0.004   0.002  0.00  0.00    +0.050 C 
ENDBRANCH  26  29
ENDBRANCH  22  25
ENDBRANCH   5  19
TORSDOF 5
