REMARK  Name = ZINC13641829
REMARK                            x       y       z     vdW  Elec       q    Type
REMARK                         _______ _______ _______ _____ _____    ______ ____
ROOT
ATOM      1  C   LIG    1       -2.831   1.432   2.574  0.00  0.00    +0.011 A 
ATOM      2  C   LIG    1       -2.761   0.581   3.667  0.00  0.00    +0.128 A 
ATOM      3  C   LIG    1       -3.371   0.935   4.861  0.00  0.00    +0.091 A 
ATOM      4  C   LIG    1       -4.058   2.135   4.956  0.00  0.00    +0.125 A 
ATOM      5  C   LIG    1       -4.130   2.982   3.860  0.00  0.00    +0.066 A 
ATOM      6  C   LIG    1       -3.517   2.629   2.671  0.00  0.00    +0.051 A 
ATOM      7 CL   LIG    1       -3.609   3.689   1.300  0.00  0.00    -0.083 Cl
ENDROOT
BRANCH   2   8
ATOM      8  O   LIG    1       -2.091  -0.597   3.570  0.00  0.00    -0.495 OA
ATOM      9  C   LIG    1       -2.059  -1.424   4.735  0.00  0.00    +0.277 C 
ENDBRANCH   2   8
BRANCH   4  10
ATOM     10  O   LIG    1       -4.661   2.483   6.124  0.00  0.00    -0.495 OA
ATOM     11  C   LIG    1       -5.351   3.734   6.151  0.00  0.00    +0.277 C 
ENDBRANCH   4  10
BRANCH   1  12
ATOM     12  C   LIG    1       -2.164   1.050   1.278  0.00  0.00    +0.024 C 
BRANCH  12  14
ATOM     13  C   LIG    1       -0.013   1.086   0.008  0.00  0.00    -0.014 C 
ATOM     14  C   LIG    1       -0.729   1.579   1.267  0.00  0.00    -0.074 C 
BRANCH  14  15
ATOM     15  N   LIG    1       -0.760   3.052   1.297  0.00  0.00    +0.380 N 
ATOM     16  H   LIG    1       -1.215   3.362   2.164  0.00  0.00    -0.090 HD
ATOM     17  H   LIG    1       -1.287   3.407   0.500  0.00  0.00    -0.090 HD
ATOM     18  H   LIG    1        0.188   3.422   1.268  0.00  0.00    -0.090 HD
ENDBRANCH  14  15
ENDBRANCH  12  14
ENDBRANCH   1  12
TORSDOF 5
