REMARK  Name = ZINC13576034
REMARK                            x       y       z     vdW  Elec       q    Type
REMARK                         _______ _______ _______ _____ _____    ______ ____
ROOT
ATOM      1  C   LIG    1       -0.689  -3.238  -1.671  0.00  0.00    +0.028 C 
ATOM      2  C   LIG    1       -0.434  -3.025  -3.023  0.00  0.00    +0.097 C 
ATOM      3  C   LIG    1       -0.121  -4.138  -3.929  0.00  0.00    +0.218 C 
ATOM      4  N   LIG    1        0.111  -3.869  -5.203  0.00  0.00    -0.127 NA
ATOM      5  C   LIG    1        0.070  -2.628  -5.681  0.00  0.00    +0.340 C 
ATOM      6  N   LIG    1       -0.206  -1.553  -4.929  0.00  0.00    -0.188 N 
ATOM      7  O   LIG    1        0.296  -2.460  -6.867  0.00  0.00    -0.250 OA
ATOM      8  C   LIG    1       -0.471  -1.674  -3.610  0.00  0.00    +0.263 C 
ATOM      9  O   LIG    1       -0.727  -0.699  -2.928  0.00  0.00    -0.269 OA
ENDROOT
BRANCH   1  13
ATOM     10  C   LIG    1       -3.380   0.652  -0.223  0.00  0.00    +0.149 C 
ATOM     11  N   LIG    1       -2.401  -0.438  -0.207  0.00  0.00    -0.349 N 
ATOM     12  C   LIG    1       -2.188  -1.287  -1.227  0.00  0.00    +0.094 A 
ATOM     13  C   LIG    1       -1.198  -2.192  -0.878  0.00  0.00    +0.001 A 
ATOM     14  C   LIG    1       -0.785  -1.837   0.496  0.00  0.00    +0.007 A 
ATOM     15  C   LIG    1        0.147  -2.354   1.388  0.00  0.00    +0.010 A 
ATOM     16  C   LIG    1        0.306  -1.768   2.626  0.00  0.00    +0.001 A 
ATOM     17  C   LIG    1       -0.470  -0.677   2.987  0.00  0.00    +0.002 A 
ATOM     18  C   LIG    1       -1.402  -0.158   2.113  0.00  0.00    +0.026 A 
ATOM     19  C   LIG    1       -1.570  -0.730   0.857  0.00  0.00    +0.049 A 
ENDBRANCH   1  13
BRANCH   6  20
ATOM     20  C   LIG    1       -0.227  -0.284  -5.522  0.00  0.00    +0.046 A 
ATOM     21  C   LIG    1        0.894   0.533  -5.457  0.00  0.00    +0.024 A 
ATOM     22  C   LIG    1        0.871   1.783  -6.043  0.00  0.00    +0.002 A 
ATOM     23  C   LIG    1       -0.267   2.222  -6.694  0.00  0.00    +0.000 A 
ATOM     24  C   LIG    1       -1.385   1.411  -6.761  0.00  0.00    +0.002 A 
ATOM     25  C   LIG    1       -1.366   0.158  -6.182  0.00  0.00    +0.024 A 
ENDBRANCH   6  20
BRANCH   3  26
ATOM     26  O   LIG    1       -0.074  -5.407  -3.471  0.00  0.00    -0.493 OA
ATOM     27  H   LIG    1       -0.240  -5.586  -2.567  0.00  0.00    +0.294 HD
ENDBRANCH   3  26
TORSDOF 3
