REMARK  Name = ZINC13608478
REMARK                            x       y       z     vdW  Elec       q    Type
REMARK                         _______ _______ _______ _____ _____    ______ ____
ROOT
ATOM      1  C   LIG    1       -0.204   1.220   2.476  0.00  0.00    +0.047 A 
ATOM      2  C   LIG    1        0.933   0.432   2.600  0.00  0.00    +0.133 A 
ATOM      3  N   LIG    1        1.405   0.117   3.789  0.00  0.00    -0.261 NA
ATOM      4  C   LIG    1        0.819   0.521   4.899  0.00  0.00    +0.111 A 
ATOM      5  C   LIG    1       -0.320   1.303   4.857  0.00  0.00    +0.023 A 
ATOM      6  C   LIG    1       -0.848   1.664   3.628  0.00  0.00    -0.041 A 
ENDROOT
BRANCH   1   8
ATOM      7  C   LIG    1       -0.013   1.086   0.008  0.00  0.00    +0.125 C 
ATOM      8  N   LIG    1       -0.698   1.558   1.213  0.00  0.00    -0.346 N 
ATOM      9  H   LIG    1       -1.495   2.106   1.135  0.00  0.00    +0.146 HD
ENDBRANCH   1   8
BRANCH   6  10
ATOM     10  C   LIG    1       -2.089   2.515   3.541  0.00  0.00    -0.049 C 
BRANCH  10  11
ATOM     11  N   LIG    1       -3.245   1.650   3.252  0.00  0.00    +0.381 N 
ATOM     12  H   LIG    1       -3.103   1.188   2.345  0.00  0.00    -0.090 HD
ATOM     13  H   LIG    1       -4.097   2.207   3.211  0.00  0.00    -0.090 HD
ATOM     14  H   LIG    1       -3.340   0.939   3.975  0.00  0.00    -0.090 HD
ENDBRANCH  10  11
ENDBRANCH   6  10
TORSDOF 3
