REMARK  Name = ZINC13745123
REMARK                            x       y       z     vdW  Elec       q    Type
REMARK                         _______ _______ _______ _____ _____    ______ ____
ROOT
ATOM      1  N   LIG    1       -4.383   2.064   0.941  0.00  0.00    -0.259 N 
ATOM      2  C   LIG    1       -3.161   1.729   0.478  0.00  0.00    +0.282 A 
ATOM      3  C   LIG    1       -2.048   1.818   1.342  0.00  0.00    +0.151 A 
ATOM      4  C   LIG    1       -2.240   2.238   2.652  0.00  0.00    +0.168 A 
ATOM      5  N   LIG    1       -3.520   2.568   3.068  0.00  0.00    -0.280 N 
ATOM      6  C   LIG    1       -3.749   3.019   4.442  0.00  0.00    +0.155 C 
ATOM      7  N   LIG    1       -1.046   2.228   3.250  0.00  0.00    -0.218 NA
ATOM      8  C   LIG    1       -0.131   1.827   2.405  0.00  0.00    +0.202 A 
ATOM      9  N   LIG    1       -0.698   1.558   1.213  0.00  0.00    -0.328 N 
ATOM     10  C   LIG    1       -0.013   1.086   0.008  0.00  0.00    +0.150 C 
ATOM     11  O   LIG    1       -3.019   1.359  -0.674  0.00  0.00    -0.265 OA
ATOM     12  C   LIG    1       -4.554   2.474   2.210  0.00  0.00    +0.333 A 
ATOM     13  O   LIG    1       -5.670   2.768   2.593  0.00  0.00    -0.246 OA
ENDROOT
BRANCH   1  14
ATOM     14  C   LIG    1       -5.541   1.980   0.048  0.00  0.00    +0.141 C 
BRANCH  14  15
ATOM     15  C   LIG    1       -5.727   3.316  -0.674  0.00  0.00    +0.142 C 
BRANCH  15  16
ATOM     16  C   LIG    1       -6.918   3.229  -1.593  0.00  0.00    +0.309 C 
ATOM     17  O   LIG    1       -7.554   2.204  -1.662  0.00  0.00    -0.251 OA
BRANCH  16  18
ATOM     18  O   LIG    1       -7.273   4.291  -2.333  0.00  0.00    -0.465 OA
BRANCH  18  20
ATOM     19  C   LIG    1       -8.680   5.440  -3.956  0.00  0.00    +0.048 C 
ATOM     20  C   LIG    1       -8.431   4.135  -3.196  0.00  0.00    +0.229 C 
ENDBRANCH  18  20
ENDBRANCH  16  18
ENDBRANCH  15  16
ENDBRANCH  14  15
ENDBRANCH   1  14
TORSDOF 5
