REMARK  Name = ZINC13588113
REMARK                            x       y       z     vdW  Elec       q    Type
REMARK                         _______ _______ _______ _____ _____    ______ ____
ROOT
ATOM      1  C   LIG    1       -0.122   1.135   2.341  0.00  0.00    +0.162 A 
ATOM      2  C   LIG    1        1.016   0.353   2.399  0.00  0.00    +0.053 A 
ATOM      3  C   LIG    1        1.564  -0.011   3.623  0.00  0.00    -0.038 A 
ATOM      4  C   LIG    1        0.965   0.410   4.790  0.00  0.00    -0.023 A 
ATOM      5  C   LIG    1        1.520   0.070   6.150  0.00  0.00    +0.143 C 
ATOM      6  N   LIG    1        2.559  -0.957   6.017  0.00  0.00    -0.296 N 
ATOM      7  C   LIG    1        2.611  -2.014   6.851  0.00  0.00    +0.224 C 
ATOM      8  O   LIG    1        3.420  -2.898   6.662  0.00  0.00    -0.275 OA
ATOM      9  C   LIG    1        3.543  -0.786   4.936  0.00  0.00    +0.113 C 
ATOM     10  C   LIG    1       -0.184   1.188   4.737  0.00  0.00    +0.054 A 
ATOM     11  C   LIG    1        2.799  -0.873   3.605  0.00  0.00    +0.054 C 
ATOM     12  C   LIG    1       -0.732   1.552   3.521  0.00  0.00    +0.162 A 
ENDROOT
BRANCH   1  14
ATOM     13  C   LIG    1        0.033   1.024  -0.029  0.00  0.00    +0.277 C 
ATOM     14  O   LIG    1       -0.647   1.490   1.138  0.00  0.00    -0.491 OA
ENDBRANCH   1  14
BRANCH  12  15
ATOM     15  O   LIG    1       -1.858   2.313   3.477  0.00  0.00    -0.491 OA
ATOM     16  C   LIG    1       -2.426   2.703   4.729  0.00  0.00    +0.277 C 
ENDBRANCH  12  15
BRANCH   7  17
ATOM     17  C   LIG    1        1.663  -2.099   8.020  0.00  0.00    +0.109 C 
BRANCH  17  18
ATOM     18  C   LIG    1        0.458  -2.916   7.632  0.00  0.00    -0.035 A 
ATOM     19  C   LIG    1        0.603  -4.255   7.321  0.00  0.00    +0.004 A 
ATOM     20  C   LIG    1       -0.503  -5.006   6.969  0.00  0.00    +0.000 A 
ATOM     21  C   LIG    1       -1.752  -4.416   6.919  0.00  0.00    +0.000 A 
ATOM     22  C   LIG    1       -1.896  -3.076   7.226  0.00  0.00    +0.000 A 
ATOM     23  C   LIG    1       -0.791  -2.326   7.582  0.00  0.00    +0.004 A 
ENDBRANCH  17  18
BRANCH  17  24
ATOM     24  C   LIG    1        2.370  -2.763   9.203  0.00  0.00    +0.052 C 
BRANCH  24  25
ATOM     25  C   LIG    1        1.466  -2.737  10.409  0.00  0.00    -0.046 A 
ATOM     26  C   LIG    1        1.513  -1.669  11.285  0.00  0.00    +0.003 A 
ATOM     27  C   LIG    1        0.680  -1.643  12.388  0.00  0.00    +0.000 A 
ATOM     28  C   LIG    1       -0.193  -2.689  12.620  0.00  0.00    +0.000 A 
ATOM     29  C   LIG    1       -0.236  -3.760  11.746  0.00  0.00    +0.000 A 
ATOM     30  C   LIG    1        0.594  -3.784  10.641  0.00  0.00    +0.003 A 
ENDBRANCH  24  25
ENDBRANCH  17  24
ENDBRANCH   7  17
TORSDOF 6
