REMARK  Name = ZINC13581272
REMARK                            x       y       z     vdW  Elec       q    Type
REMARK                         _______ _______ _______ _____ _____    ______ ____
ROOT
ATOM      1  C   LIG    1        0.632  -2.974   4.013  0.00  0.00    +0.013 A 
ATOM      2  C   LIG    1        0.789  -2.527   2.733  0.00  0.00    +0.095 A 
ATOM      3  N   LIG    1        0.299  -3.447   1.862  0.00  0.00    -0.344 N 
ATOM      4  C   LIG    1       -0.085  -4.586   2.554  0.00  0.00    +0.054 A 
ATOM      5  C   LIG    1       -0.495  -5.828   2.111  0.00  0.00    -0.006 A 
ATOM      6  C   LIG    1       -0.407  -6.179   0.645  0.00  0.00    +0.146 C 
ATOM      7  N   LIG    1        0.863  -5.656   0.123  0.00  0.00    -0.279 N 
ATOM      8  C   LIG    1        1.935  -6.472   0.072  0.00  0.00    +0.305 C 
ATOM      9  N   LIG    1        2.535  -6.723  -1.108  0.00  0.00    -0.285 N 
ATOM     10  C   LIG    1        2.151  -5.980  -2.316  0.00  0.00    +0.109 C 
ATOM     11  C   LIG    1        3.416  -5.367  -2.936  0.00  0.00    +0.019 C 
ATOM     12  C   LIG    1        4.445  -6.473  -3.179  0.00  0.00    +0.003 C 
ATOM     13  C   LIG    1        4.827  -7.119  -1.846  0.00  0.00    +0.019 C 
ATOM     14  C   LIG    1        3.582  -7.748  -1.213  0.00  0.00    +0.109 C 
ATOM     15  O   LIG    1        2.360  -6.982   1.091  0.00  0.00    -0.252 OA
ATOM     16  C   LIG    1        0.999  -4.276  -0.342  0.00  0.00    +0.131 C 
ATOM     17  C   LIG    1       -0.967  -6.745   3.027  0.00  0.00    +0.007 A 
ATOM     18  C   LIG    1       -0.944  -6.451   4.384  0.00  0.00    +0.001 A 
ATOM     19  C   LIG    1       -0.431  -5.255   4.840  0.00  0.00    +0.010 A 
ATOM     20  C   LIG    1        0.102  -3.307   0.412  0.00  0.00    +0.141 C 
ATOM     21  C   LIG    1        0.033  -4.316   3.923  0.00  0.00    +0.008 A 
ENDROOT
BRANCH   1  23
ATOM     22  C   LIG    1        0.318  -1.183   5.827  0.00  0.00    +0.075 C 
ATOM     23  C   LIG    1        0.998  -2.256   5.247  0.00  0.00    +0.060 C 
ATOM     24  C   LIG    1        2.155  -2.522   6.117  0.00  0.00    +0.252 C 
ATOM     25  N   LIG    1        2.135  -1.655   7.143  0.00  0.00    -0.248 N 
ATOM     26  H   LIG    1        2.792  -1.629   7.856  0.00  0.00    +0.158 HD
ATOM     27  O   LIG    1        2.990  -3.388   5.938  0.00  0.00    -0.270 OA
ATOM     28  C   LIG    1        1.080  -0.829   7.045  0.00  0.00    +0.253 C 
ATOM     29  O   LIG    1        0.799   0.060   7.824  0.00  0.00    -0.270 OA
BRANCH  22  37
ATOM     30  C   LIG    1       -1.998   3.299   4.378  0.00  0.00    +0.005 A 
ATOM     31  C   LIG    1       -0.685   3.112   4.831  0.00  0.00    +0.018 A 
ATOM     32  C   LIG    1       -0.251   1.875   5.165  0.00  0.00    +0.093 A 
ATOM     33  N   LIG    1       -1.081   0.799   5.065  0.00  0.00    -0.299 N 
ATOM     34  C   LIG    1       -2.369   0.950   4.626  0.00  0.00    +0.138 A 
ATOM     35  N   LIG    1       -2.958  -0.244   4.618  0.00  0.00    -0.235 NA
ATOM     36  C   LIG    1       -2.108  -1.167   5.042  0.00  0.00    +0.140 A 
ATOM     37  C   LIG    1       -0.902  -0.543   5.334  0.00  0.00    +0.079 A 
ATOM     38  C   LIG    1       -2.837   2.228   4.275  0.00  0.00    +0.047 A 
ENDBRANCH  22  37
ENDBRANCH   1  23
TORSDOF 2
