REMARK  Name = ZINC13742895
REMARK                            x       y       z     vdW  Elec       q    Type
REMARK                         _______ _______ _______ _____ _____    ______ ____
ROOT
ATOM      1  C   LIG    1        2.377   1.104   1.474  0.00  0.00    +0.095 C 
ENDROOT
BRANCH   1   2
ATOM      2  P   LIG    1        1.451   1.638  -0.003  0.00  0.00    +0.202 P 
ATOM      3  O   LIG    1        1.314   3.111   0.006  0.00  0.00    -0.291 OA
BRANCH   2   5
ATOM      4  C   LIG    1        1.638   1.675  -2.739  0.00  0.00    +0.014 C 
ATOM      5  C   LIG    1        2.348   1.120  -1.503  0.00  0.00    +0.094 C 
ENDBRANCH   2   5
BRANCH   2   6
ATOM      6  O   LIG    1       -0.011   0.963   0.007  0.00  0.00    -0.344 OA
ATOM      7  H   LIG    1       -0.504   1.247  -0.779  0.00  0.00    +0.218 HD
ENDBRANCH   2   6
ENDBRANCH   1   2
BRANCH   1   8
ATOM      8  C   LIG    1        1.690   1.645   2.729  0.00  0.00    -0.010 C 
BRANCH   8   9
ATOM      9  C   LIG    1        2.467   1.197   3.969  0.00  0.00    -0.086 C 
BRANCH   9  10
ATOM     10  N   LIG    1        1.808   1.717   5.175  0.00  0.00    +0.378 N 
ATOM     11  H   LIG    1        1.784   2.816   5.134  0.00  0.00    -0.090 HD
ATOM     12  H   LIG    1        0.780   1.329   5.226  0.00  0.00    -0.090 HD
ATOM     13  H   LIG    1        2.367   1.395   6.066  0.00  0.00    -0.090 HD
ENDBRANCH   9  10
ENDBRANCH   8   9
ENDBRANCH   1   8
TORSDOF 6
