REMARK  Name = ZINC13588694
REMARK                            x       y       z     vdW  Elec       q    Type
REMARK                         _______ _______ _______ _____ _____    ______ ____
ROOT
ATOM      1  C   LIG    1        3.472   0.406  -0.415  0.00  0.00    +0.054 C 
ATOM      2  C   LIG    1        2.166   0.501   0.378  0.00  0.00    +0.192 C 
ATOM      3  C   LIG    1        1.378   1.778  -0.002  0.00  0.00    +0.161 C 
ATOM      4  N   LIG    1       -0.015   1.293   0.009  0.00  0.00    -0.340 N 
ATOM      5  H   LIG    1       -0.976   1.830   0.021  0.00  0.00    +0.164 HD
ATOM      6  C   LIG    1        0.002  -0.004   0.002  0.00  0.00    +0.254 C 
ATOM      7  O   LIG    1        1.242  -0.532  -0.021  0.00  0.00    -0.462 OA
ENDROOT
BRANCH   6   8
ATOM      8  N   LIG    1       -1.138  -0.769   0.017  0.00  0.00    -0.315 N 
ATOM      9  H   LIG    1       -2.126  -0.285   0.036  0.00  0.00    +0.147 HD
ATOM     10  H   LIG    1       -1.064  -1.867   0.010  0.00  0.00    +0.147 HD
ENDBRANCH   6   8
TORSDOF 1
