REMARK  Name = ZINC13588692
REMARK                            x       y       z     vdW  Elec       q    Type
REMARK                         _______ _______ _______ _____ _____    ______ ____
ROOT
ATOM      1  C   LIG    1        1.378   1.778  -0.002  0.00  0.00    +0.162 C 
ATOM      2  C   LIG    1        2.166   0.501   0.378  0.00  0.00    +0.206 C 
ATOM      3  O   LIG    1        1.242  -0.532  -0.021  0.00  0.00    -0.461 OA
ATOM      4  C   LIG    1        0.002  -0.004   0.002  0.00  0.00    +0.254 C 
ATOM      5  N   LIG    1       -0.015   1.293   0.009  0.00  0.00    -0.340 N 
ATOM      6  H   LIG    1       -0.976   1.830   0.021  0.00  0.00    +0.164 HD
ENDROOT
BRANCH   4   7
ATOM      7  N   LIG    1       -1.138  -0.769   0.017  0.00  0.00    -0.315 N 
ATOM      8  H   LIG    1       -1.064  -1.867   0.011  0.00  0.00    +0.147 HD
ATOM      9  H   LIG    1       -2.126  -0.285   0.036  0.00  0.00    +0.147 HD
ENDBRANCH   4   7
BRANCH   2  10
ATOM     10  C   LIG    1        3.472   0.406  -0.414  0.00  0.00    +0.126 C 
ATOM     11 BR   LIG    1        4.409  -1.255   0.065  0.00  0.00    -0.088 Br
ENDBRANCH   2  10
TORSDOF 2
