REMARK  Name = ZINC13682481
REMARK                            x       y       z     vdW  Elec       q    Type
REMARK                         _______ _______ _______ _____ _____    ______ ____
ROOT
ATOM      1  N   LIG    1        0.124   5.317   0.108  0.00  0.00    -0.340 N 
ATOM      2  C   LIG    1        0.170   4.001   0.354  0.00  0.00    +0.105 A 
ATOM      3  C   LIG    1        1.363   3.322   0.501  0.00  0.00    +0.122 A 
ATOM      4  C   LIG    1        2.626   4.071   0.389  0.00  0.00    +0.203 A 
ATOM      5  C   LIG    1        2.532   5.514   0.112  0.00  0.00    +0.046 A 
ATOM      6  C   LIG    1        3.678   6.301  -0.014  0.00  0.00    +0.021 A 
ATOM      7  C   LIG    1        3.559   7.638  -0.264  0.00  0.00    -0.001 A 
ATOM      8  C   LIG    1        2.300   8.221  -0.394  0.00  0.00    +0.126 A 
ATOM      9  C   LIG    1        1.153   7.456  -0.273  0.00  0.00    +0.072 A 
ATOM     10  O   LIG    1        3.705   3.518   0.516  0.00  0.00    -0.286 OA
ATOM     11  C   LIG    1        1.256   6.093  -0.017  0.00  0.00    +0.057 A 
ENDROOT
BRANCH   3  12
ATOM     12  C   LIG    1        1.372   1.878   0.770  0.00  0.00    +0.342 C 
ATOM     13  O   LIG    1        2.428   1.290   0.898  0.00  0.00    -0.245 OA
BRANCH  12  14
ATOM     14  O   LIG    1        0.209   1.205   0.876  0.00  0.00    -0.477 OA
ATOM     15  H   LIG    1       -0.606   1.658   0.777  0.00  0.00    +0.295 HD
ENDBRANCH  12  14
ENDBRANCH   3  12
BRANCH   8  16
ATOM     16  O   LIG    1        2.197   9.552  -0.643  0.00  0.00    -0.495 OA
ATOM     17  C   LIG    1        0.879  10.089  -0.765  0.00  0.00    +0.277 C 
ENDBRANCH   8  16
BRANCH   1  18
ATOM     18  C   LIG    1       -1.186   5.958  -0.035  0.00  0.00    +0.115 C 
BRANCH  18  20
ATOM     19  C   LIG    1       -3.180   6.196  -1.520  0.00  0.00    +0.009 C 
ATOM     20  C   LIG    1       -1.887   5.415  -1.282  0.00  0.00    +0.008 C 
ATOM     21  C   LIG    1       -0.965   5.572  -2.493  0.00  0.00    +0.009 C 
ENDBRANCH  18  20
BRANCH  18  22
ATOM     22  C   LIG    1       -2.038   5.658   1.200  0.00  0.00    +0.181 C 
BRANCH  22  23
ATOM     23  O   LIG    1       -3.252   6.409   1.136  0.00  0.00    -0.393 OA
ATOM     24  H   LIG    1       -3.842   6.268   1.889  0.00  0.00    +0.209 HD
ENDBRANCH  22  23
ENDBRANCH  18  22
ENDBRANCH   1  18
BRANCH   7  25
ATOM     25  C   LIG    1        4.796   8.488  -0.400  0.00  0.00    +0.077 C 
BRANCH  25  26
ATOM     26  C   LIG    1        5.113   9.129   0.927  0.00  0.00    -0.006 A 
ATOM     27  C   LIG    1        6.092   8.589   1.739  0.00  0.00    +0.007 A 
ATOM     28  C   LIG    1        6.384   9.177   2.956  0.00  0.00    +0.002 A 
ATOM     29  C   LIG    1        5.697  10.306   3.362  0.00  0.00    +0.023 A 
ATOM     30  C   LIG    1        4.717  10.848   2.551  0.00  0.00    +0.076 A 
ATOM     31 CL   LIG    1        3.854  12.266   3.061  0.00  0.00    -0.081 Cl
ATOM     32  C   LIG    1        4.427  10.262   1.329  0.00  0.00    +0.145 A 
ATOM     33  F   LIG    1        3.474  10.794   0.533  0.00  0.00    -0.204 F 
ENDBRANCH  25  26
ENDBRANCH   7  25
TORSDOF 9
