REMARK  Name = ZINC13600184
REMARK                            x       y       z     vdW  Elec       q    Type
REMARK                         _______ _______ _______ _____ _____    ______ ____
ROOT
ATOM      1  C   LIG    1       -1.222   3.135  -0.186  0.00  0.00    +0.162 A 
ATOM      2  C   LIG    1       -1.201   1.750  -0.192  0.00  0.00    +0.049 A 
ATOM      3  C   LIG    1       -0.014   1.076   0.028  0.00  0.00    +0.008 A 
ATOM      4  C   LIG    1        1.155   1.781   0.242  0.00  0.00    -0.039 A 
ATOM      5  C   LIG    1        1.143   3.163   0.243  0.00  0.00    +0.053 A 
ATOM      6  C   LIG    1       -0.044   3.845   0.030  0.00  0.00    +0.163 A 
ENDROOT
BRANCH   4   7
ATOM      7  C   LIG    1        2.448   1.041   0.474  0.00  0.00    +0.045 C 
ATOM      8  C   LIG    1        2.315   0.053   1.656  0.00  0.00    +0.105 C 
ATOM      9  C   LIG    1        3.134  -1.146   1.231  0.00  0.00    +0.216 C 
ATOM     10  N   LIG    1        3.370  -1.099  -0.091  0.00  0.00    -0.297 N 
ATOM     11  O   LIG    1        3.521  -2.022   1.976  0.00  0.00    -0.276 OA
ATOM     12  C   LIG    1        2.757   0.087  -0.701  0.00  0.00    +0.116 C 
BRANCH  10  13
ATOM     13  C   LIG    1        4.142  -2.103  -0.829  0.00  0.00    +0.142 C 
BRANCH  13  14
ATOM     14  C   LIG    1        3.217  -3.186  -1.320  0.00  0.00    -0.030 A 
ATOM     15  C   LIG    1        2.973  -4.296  -0.533  0.00  0.00    +0.006 A 
ATOM     16  C   LIG    1        2.121  -5.288  -0.981  0.00  0.00    +0.015 A 
ATOM     17  C   LIG    1        1.520  -5.175  -2.222  0.00  0.00    +0.018 A 
ATOM     18 BR   LIG    1        0.360  -6.534  -2.838  0.00  0.00    -0.050 Br
ATOM     19  C   LIG    1        1.768  -4.066  -3.011  0.00  0.00    +0.015 A 
ATOM     20  C   LIG    1        2.617  -3.073  -2.560  0.00  0.00    +0.006 A 
ENDBRANCH  13  14
ENDBRANCH  10  13
ENDBRANCH   4   7
BRANCH   1  22
ATOM     21  C   LIG    1       -3.559   3.007  -0.609  0.00  0.00    +0.277 C 
ATOM     22  O   LIG    1       -2.390   3.800  -0.395  0.00  0.00    -0.491 OA
ENDBRANCH   1  22
BRANCH   6  23
ATOM     23  O   LIG    1       -0.059   5.205   0.031  0.00  0.00    -0.485 OA
BRANCH  23  24
ATOM     24  C   LIG    1        1.203   5.867   0.134  0.00  0.00    +0.174 C 
ATOM     25  C   LIG    1        1.591   6.037   1.617  0.00  0.00    +0.044 C 
ATOM     26  C   LIG    1        2.280   7.424   1.672  0.00  0.00    +0.004 C 
ATOM     27  C   LIG    1        1.438   8.265   0.681  0.00  0.00    +0.004 C 
ATOM     28  C   LIG    1        1.106   7.283  -0.461  0.00  0.00    +0.044 C 
ENDBRANCH  23  24
ENDBRANCH   6  23
TORSDOF 6
