REMARK  Name = ZINC13586926
REMARK                            x       y       z     vdW  Elec       q    Type
REMARK                         _______ _______ _______ _____ _____    ______ ____
ROOT
ATOM      1  C   LIG    1        0.024   1.091   2.507  0.00  0.00    +0.005 C 
ATOM      2  C   LIG    1       -0.729   1.579   1.267  0.00  0.00    -0.031 C 
ATOM      3  C   LIG    1       -0.764   3.110   1.262  0.00  0.00    -0.001 C 
ATOM      4  C   LIG    1       -1.466   3.591  -0.011  0.00  0.00    -0.018 C 
ATOM      5  C   LIG    1       -0.729   3.040  -1.234  0.00  0.00    -0.079 C 
ATOM      6  N   LIG    1       -0.751   1.562  -1.181  0.00  0.00    +0.380 N 
ATOM      7  H   LIG    1       -1.726   1.246  -1.117  0.00  0.00    -0.082 HD
ATOM      8  C   LIG    1       -0.013   1.086   0.008  0.00  0.00    -0.076 C 
ENDROOT
BRANCH   6   9
ATOM      9  C   LIG    1       -0.145   1.005  -2.408  0.00  0.00    -0.074 C 
BRANCH   9  10
ATOM     10  C   LIG    1       -1.053   1.328  -3.596  0.00  0.00    +0.016 C 
BRANCH  10  11
ATOM     11  C   LIG    1       -0.461   0.746  -4.854  0.00  0.00    -0.049 A 
ATOM     12  C   LIG    1        0.412   1.497  -5.619  0.00  0.00    +0.003 A 
ATOM     13  C   LIG    1        0.959   0.962  -6.770  0.00  0.00    +0.000 A 
ATOM     14  C   LIG    1        0.625  -0.322  -7.161  0.00  0.00    +0.000 A 
ATOM     15  C   LIG    1       -0.251  -1.071  -6.399  0.00  0.00    +0.000 A 
ATOM     16  C   LIG    1       -0.794  -0.537  -5.245  0.00  0.00    +0.003 A 
ENDBRANCH  10  11
ENDBRANCH   9  10
ENDBRANCH   6   9
TORSDOF 3
