REMARK  Name = ZINC13643104
REMARK                            x       y       z     vdW  Elec       q    Type
REMARK                         _______ _______ _______ _____ _____    ______ ____
ROOT
ATOM      1  C   LIG    1        2.612   3.717   0.108  0.00  0.00    +0.005 C 
ATOM      2  C   LIG    1        1.846   3.763  -1.217  0.00  0.00    +0.021 C 
ATOM      3  C   LIG    1        1.225   3.080   0.004  0.00  0.00    +0.055 C 
ENDROOT
BRANCH   3   4
ATOM      4  C   LIG    1        1.148   1.575  -0.004  0.00  0.00    +0.309 C 
ATOM      5  O   LIG    1        1.954   0.926   0.619  0.00  0.00    -0.250 OA
BRANCH   4   6
ATOM      6  O   LIG    1        0.184   0.956  -0.703  0.00  0.00    -0.480 OA
ATOM      7  H   LIG    1       -0.441   1.460  -1.186  0.00  0.00    +0.295 HD
ENDBRANCH   4   6
ENDBRANCH   3   4
BRANCH   1   8
ATOM      8  C   LIG    1        3.816   2.776   0.195  0.00  0.00    +0.007 C 
BRANCH   8  10
ATOM      9  C   LIG    1        6.273   2.651   0.629  0.00  0.00    +0.007 C 
ATOM     10  C   LIG    1        5.089   3.596   0.417  0.00  0.00    -0.017 C 
ATOM     11  C   LIG    1        5.350   4.474  -0.809  0.00  0.00    +0.007 C 
ENDBRANCH   8  10
ENDBRANCH   1   8
BRANCH   3  12
ATOM     12  C   LIG    1        0.066   3.797   0.700  0.00  0.00    -0.068 C 
BRANCH  12  13
ATOM     13  N   LIG    1        0.078   3.446   2.131  0.00  0.00    +0.379 N 
ATOM     14  H   LIG    1        0.038   2.425   2.229  0.00  0.00    -0.090 HD
ATOM     15  H   LIG    1       -0.729   3.857   2.598  0.00  0.00    -0.090 HD
ATOM     16  H   LIG    1        0.932   3.789   2.567  0.00  0.00    -0.090 HD
ENDBRANCH  12  13
ENDBRANCH   3  12
TORSDOF 6
