REMARK  Name = ZINC13584912
REMARK                            x       y       z     vdW  Elec       q    Type
REMARK                         _______ _______ _______ _____ _____    ______ ____
ROOT
ATOM      1  C   LIG    1        1.069   7.406   0.030  0.00  0.00    +0.129 A 
ATOM      2  C   LIG    1       -0.039   8.193   0.039  0.00  0.00    +0.074 A 
ATOM      3  C   LIG    1        0.386   9.535   0.046  0.00  0.00    +0.095 A 
ATOM      4  N   LIG    1        1.702   9.549   0.034  0.00  0.00    -0.165 NA
ATOM      5  N   LIG    1        2.157   8.225   0.024  0.00  0.00    -0.218 N 
ENDROOT
BRANCH   3   6
ATOM      6  C   LIG    1       -0.497  10.727   0.060  0.00  0.00    +0.002 A 
ATOM      7  C   LIG    1       -1.882  10.572   0.067  0.00  0.00    +0.010 A 
ATOM      8  C   LIG    1       -2.698  11.684   0.086  0.00  0.00    +0.001 A 
ATOM      9  C   LIG    1       -2.145  12.952   0.087  0.00  0.00    +0.000 A 
ATOM     10  C   LIG    1       -0.771  13.112   0.074  0.00  0.00    +0.001 A 
ATOM     11  C   LIG    1        0.055  12.006   0.061  0.00  0.00    +0.010 A 
ENDBRANCH   3   6
BRANCH   5  12
ATOM     12  C   LIG    1        3.497   7.814   0.010  0.00  0.00    +0.067 A 
ATOM     13  C   LIG    1        3.880   6.669   0.696  0.00  0.00    +0.028 A 
ATOM     14  C   LIG    1        5.200   6.263   0.675  0.00  0.00    +0.002 A 
ATOM     15  C   LIG    1        6.142   7.002  -0.018  0.00  0.00    +0.000 A 
ATOM     16  C   LIG    1        5.764   8.146  -0.697  0.00  0.00    +0.002 A 
ATOM     17  C   LIG    1        4.444   8.554  -0.685  0.00  0.00    +0.028 A 
ENDBRANCH   5  12
BRANCH   1  19
ATOM     18  C   LIG    1       -0.070   5.323   0.031  0.00  0.00    +0.249 C 
ATOM     19  N   LIG    1        1.088   6.012   0.023  0.00  0.00    -0.266 N 
ATOM     20  H   LIG    1        1.934   5.539   0.012  0.00  0.00    +0.157 HD
ATOM     21  O   LIG    1       -1.131   5.916   0.044  0.00  0.00    -0.270 OA
BRANCH  18  27
ATOM     22  C   LIG    1       -2.514   0.972   0.019  0.00  0.00    +0.044 C 
ATOM     23  C   LIG    1       -1.222   1.748   0.017  0.00  0.00    -0.050 A 
ATOM     24  C   LIG    1       -0.013   1.076   0.008  0.00  0.00    +0.003 A 
ATOM     25  C   LIG    1        1.178   1.781   0.000  0.00  0.00    +0.001 A 
ATOM     26  C   LIG    1        1.166   3.160   0.008  0.00  0.00    +0.013 A 
ATOM     27  C   LIG    1       -0.050   3.845   0.023  0.00  0.00    +0.037 A 
ATOM     28  C   LIG    1       -1.248   3.127   0.031  0.00  0.00    +0.016 A 
ENDBRANCH  18  27
ENDBRANCH   1  19
TORSDOF 4
