REMARK  Name = ZINC13559451
REMARK                            x       y       z     vdW  Elec       q    Type
REMARK                         _______ _______ _______ _____ _____    ______ ____
ROOT
ATOM      1  N   LIG    1       -0.984  -2.097   0.000  0.00  0.00    -0.072 NA
ATOM      2  C   LIG    1       -2.030  -2.879   0.006  0.00  0.00    +0.134 C 
ATOM      3  C   LIG    1       -3.457  -2.477   0.015  0.00  0.00    +0.027 A 
ATOM      4  C   LIG    1       -4.090  -1.238   0.021  0.00  0.00    +0.012 A 
ATOM      5  C   LIG    1       -5.468  -1.173   0.030  0.00  0.00    +0.001 A 
ATOM      6  C   LIG    1       -6.218  -2.337   0.033  0.00  0.00    +0.002 A 
ATOM      7  C   LIG    1       -5.600  -3.571   0.027  0.00  0.00    +0.024 A 
ATOM      8  C   LIG    1       -4.211  -3.656   0.018  0.00  0.00    +0.041 A 
ATOM      9  N   LIG    1       -3.360  -4.754   0.011  0.00  0.00    -0.312 N 
ATOM     10  H   LIG    1       -3.655  -5.678   0.012  0.00  0.00    +0.152 HD
ATOM     11  C   LIG    1       -2.048  -4.359  -0.002  0.00  0.00    +0.074 C 
ATOM     12  C   LIG    1       -0.940  -5.193  -0.017  0.00  0.00    +0.069 C 
ATOM     13  C   LIG    1       -0.927  -6.671  -0.031  0.00  0.00    +0.010 A 
ATOM     14  C   LIG    1       -1.932  -7.634  -0.033  0.00  0.00    +0.011 A 
ATOM     15  C   LIG    1       -1.598  -8.972  -0.047  0.00  0.00    +0.016 A 
ATOM     16  C   LIG    1       -0.266  -9.356  -0.060  0.00  0.00    +0.020 A 
ATOM     17 BR   LIG    1        0.180 -11.193  -0.079  0.00  0.00    -0.050 Br
ATOM     18  C   LIG    1        0.739  -8.408  -0.057  0.00  0.00    +0.039 A 
ATOM     19  C   LIG    1        0.421  -7.055  -0.043  0.00  0.00    +0.043 A 
ATOM     20  N   LIG    1        1.219  -5.917  -0.037  0.00  0.00    -0.281 N 
ATOM     21  H   LIG    1        2.189  -5.929  -0.044  0.00  0.00    +0.155 HD
ATOM     22  C   LIG    1        0.475  -4.798  -0.029  0.00  0.00    +0.251 C 
ATOM     23  O   LIG    1        0.899  -3.656  -0.028  0.00  0.00    -0.270 OA
ENDROOT
BRANCH   1  24
ATOM     24  O   LIG    1       -1.151  -0.691   0.009  0.00  0.00    -0.317 OA
BRANCH  24  26
ATOM     25  C   LIG    1       -0.018   1.503   0.010  0.00  0.00    +0.138 C 
ATOM     26  C   LIG    1        0.002  -0.004   0.002  0.00  0.00    +0.333 C 
ATOM     27  O   LIG    1        1.056  -0.594  -0.011  0.00  0.00    -0.249 OA
ENDBRANCH  24  26
ENDBRANCH   1  24
TORSDOF 2
