REMARK  Name = ZINC13742269
REMARK                            x       y       z     vdW  Elec       q    Type
REMARK                         _______ _______ _______ _____ _____    ______ ____
ROOT
ATOM      1  C   LIG    1       -1.074  -2.045   0.003  0.00  0.00    +0.217 A 
ATOM      2  N   LIG    1       -1.125  -0.727   0.030  0.00  0.00    -0.214 NA
ATOM      3  C   LIG    1        0.004  -0.003   0.037  0.00  0.00    +0.078 A 
ATOM      4  C   LIG    1       -0.014   1.398   0.065  0.00  0.00    +0.028 A 
ATOM      5  C   LIG    1        1.162   2.087   0.071  0.00  0.00    +0.002 A 
ATOM      6  C   LIG    1        2.384   1.419   0.051  0.00  0.00    +0.001 A 
ATOM      7  C   LIG    1        2.437   0.056   0.022  0.00  0.00    +0.013 A 
ATOM      8  C   LIG    1        1.248  -0.680   0.015  0.00  0.00    +0.041 A 
ATOM      9  C   LIG    1        1.241  -2.097  -0.013  0.00  0.00    +0.136 A 
ATOM     10  N   LIG    1        0.072  -2.720  -0.018  0.00  0.00    -0.199 NA
ENDROOT
BRANCH   1  11
ATOM     11  N   LIG    1       -2.261  -2.755  -0.004  0.00  0.00    -0.314 N 
ATOM     12  H   LIG    1       -2.246  -3.724  -0.024  0.00  0.00    +0.149 HD
BRANCH  11  14
ATOM     13  C   LIG    1       -4.688  -3.053   0.006  0.00  0.00    +0.024 C 
ATOM     14  C   LIG    1       -3.541  -2.042   0.019  0.00  0.00    +0.101 C 
ENDBRANCH  11  14
ENDBRANCH   1  11
BRANCH   9  15
ATOM     15  N   LIG    1        2.422  -2.809  -0.035  0.00  0.00    -0.299 N 
ATOM     16  H   LIG    1        3.269  -2.342  -0.119  0.00  0.00    +0.154 HD
BRANCH  15  17
ATOM     17  C   LIG    1        2.400  -4.203   0.063  0.00  0.00    +0.035 A 
ATOM     18  C   LIG    1        1.328  -4.841   0.675  0.00  0.00    +0.023 A 
ATOM     19  C   LIG    1        1.307  -6.218   0.767  0.00  0.00    +0.002 A 
ATOM     20  C   LIG    1        2.355  -6.963   0.258  0.00  0.00    +0.000 A 
ATOM     21  C   LIG    1        3.426  -6.332  -0.348  0.00  0.00    +0.005 A 
ATOM     22  C   LIG    1        3.451  -4.954  -0.447  0.00  0.00    -0.029 A 
ATOM     23  C   LIG    1        4.619  -4.267  -1.106  0.00  0.00    +0.045 C 
ENDBRANCH  15  17
ENDBRANCH   9  15
TORSDOF 4
