REMARK  Name = ZINC13648755
REMARK                            x       y       z     vdW  Elec       q    Type
REMARK                         _______ _______ _______ _____ _____    ______ ____
ROOT
ATOM      1  C   LIG    1        0.084  -2.310  -1.913  0.00  0.00    +0.144 C 
ENDROOT
BRANCH   1   2
ATOM      2  C   LIG    1        0.148  -3.290  -0.740  0.00  0.00    -0.002 C 
ATOM      3  C   LIG    1        1.533  -3.939  -0.692  0.00  0.00    +0.012 C 
ATOM      4  C   LIG    1        1.597  -4.919   0.481  0.00  0.00    -0.007 C 
ATOM      5  C   LIG    1        1.340  -4.167   1.788  0.00  0.00    +0.007 C 
ATOM      6  C   LIG    1       -0.044  -3.518   1.741  0.00  0.00    -0.007 C 
ATOM      7  C   LIG    1       -1.109  -4.602   1.558  0.00  0.00    +0.038 C 
ATOM      8  C   LIG    1       -0.853  -5.354   0.251  0.00  0.00    +0.067 C 
ATOM      9  C   LIG    1        0.532  -6.003   0.298  0.00  0.00    +0.038 C 
ATOM     10  C   LIG    1       -0.917  -4.373  -0.922  0.00  0.00    +0.043 C 
ATOM     11  C   LIG    1       -0.108  -2.538   0.568  0.00  0.00    +0.012 C 
BRANCH   8  12
ATOM     12  O   LIG    1       -1.847  -6.366   0.081  0.00  0.00    -0.389 OA
ATOM     13  H   LIG    1       -1.865  -7.024   0.789  0.00  0.00    +0.210 HD
ENDBRANCH   8  12
ENDBRANCH   1   2
BRANCH   1  19
ATOM     14  C   LIG    1       -0.676   1.607  -0.263  0.00  0.00    +0.043 C 
ATOM     15  C   LIG    1        0.771   2.105  -0.044  0.00  0.00    +0.014 C 
ATOM     16  C   LIG    1        1.683   2.234  -1.265  0.00  0.00    +0.028 C 
ATOM     17  C   LIG    1        1.666   0.910  -0.423  0.00  0.00    +0.081 C 
ATOM     18  N   LIG    1        0.772  -0.181  -0.857  0.00  0.00    -0.281 N 
ATOM     19  C   LIG    1        1.074  -1.196  -1.691  0.00  0.00    +0.234 C 
ATOM     20  O   LIG    1        2.144  -1.212  -2.263  0.00  0.00    -0.274 OA
ATOM     21  C   LIG    1       -0.526   0.067  -0.187  0.00  0.00    +0.179 C 
BRANCH  21  22
ATOM     22  C   LIG    1       -1.620  -0.598  -0.914  0.00  0.00    +0.085 C 
ATOM     23  N   LIG    1       -2.465  -1.110  -1.474  0.00  0.00    -0.195 NA
ENDBRANCH  21  22
ENDBRANCH   1  19
BRANCH   1  24
ATOM     24  N   LIG    1        0.411  -3.015  -3.159  0.00  0.00    -0.319 NA
ATOM     25  H   LIG    1       -0.275  -3.725  -3.364  0.00  0.00    +0.119 HD
ATOM     26  H   LIG    1        1.339  -3.410  -3.118  0.00  0.00    +0.119 HD
ENDBRANCH   1  24
TORSDOF 5
