REMARK  Name = ZINC13650343
REMARK                            x       y       z     vdW  Elec       q    Type
REMARK                         _______ _______ _______ _____ _____    ______ ____
ROOT
ATOM      1  C   LIG    1       -1.165   1.887   0.009  0.00  0.00    +0.101 A 
ATOM      2  C   LIG    1       -0.033   1.065  -0.152  0.00  0.00    +0.134 A 
ATOM      3  C   LIG    1        1.228   1.629  -0.168  0.00  0.00    +0.091 A 
ATOM      4  C   LIG    1        1.382   3.002  -0.021  0.00  0.00    +0.124 A 
ATOM      5  C   LIG    1        0.272   3.821   0.144  0.00  0.00    +0.091 A 
ATOM      6  C   LIG    1       -0.998   3.276   0.163  0.00  0.00    +0.134 A 
ENDROOT
BRANCH   1   7
ATOM      7  C   LIG    1       -2.503   1.301   0.021  0.00  0.00    +0.173 C 
ATOM      8  O   LIG    1       -3.041   1.037   1.077  0.00  0.00    -0.292 OA
BRANCH   7  10
ATOM      9  C   LIG    1       -4.188  -0.143  -1.087  0.00  0.00    +0.015 C 
ATOM     10  C   LIG    1       -3.216   1.024  -1.277  0.00  0.00    +0.054 C 
ATOM     11  C   LIG    1       -3.994   2.269  -1.708  0.00  0.00    +0.015 C 
ENDBRANCH   7  10
ENDBRANCH   1   7
BRANCH   2  12
ATOM     12  O   LIG    1       -0.181  -0.275  -0.297  0.00  0.00    -0.506 OA
ATOM     13  H   LIG    1       -0.167  -0.765   0.537  0.00  0.00    +0.292 HD
ENDBRANCH   2  12
BRANCH   4  14
ATOM     14  O   LIG    1        2.625   3.547  -0.038  0.00  0.00    -0.507 OA
ATOM     15  H   LIG    1        2.929   3.805  -0.919  0.00  0.00    +0.292 HD
ENDBRANCH   4  14
BRANCH   6  16
ATOM     16  O   LIG    1       -2.080   4.077   0.325  0.00  0.00    -0.506 OA
ATOM     17  H   LIG    1       -2.450   4.410  -0.505  0.00  0.00    +0.292 HD
ENDBRANCH   6  16
TORSDOF 5
