REMARK  Name = ZINC13641421
REMARK                            x       y       z     vdW  Elec       q    Type
REMARK                         _______ _______ _______ _____ _____    ______ ____
ROOT
ATOM      1  C   LIG    1       -3.315   1.383   0.364  0.00  0.00    -0.018 C 
ENDROOT
BRANCH   1   2
ATOM      2  C   LIG    1       -2.513   1.097   1.635  0.00  0.00    +0.005 C 
BRANCH   2   3
ATOM      3  C   LIG    1       -1.133   1.748   1.525  0.00  0.00    -0.011 C 
BRANCH   3   5
ATOM      4  C   LIG    1       -0.472   1.847  -0.882  0.00  0.00    +0.004 C 
ATOM      5  C   LIG    1       -0.330   1.058   0.420  0.00  0.00    -0.000 C 
ENDBRANCH   3   5
BRANCH   3   6
ATOM      6  C   LIG    1       -0.394   1.606   2.857  0.00  0.00    -0.000 C 
ATOM      7  C   LIG    1        0.933   2.363   2.788  0.00  0.00    +0.004 C 
ENDBRANCH   3   6
ENDBRANCH   2   3
ENDBRANCH   1   2
BRANCH   1   8
ATOM      8  C   LIG    1       -3.658   2.873   0.302  0.00  0.00    -0.082 C 
BRANCH   8   9
ATOM      9  N   LIG    1       -2.412   3.642   0.138  0.00  0.00    +0.378 N 
ATOM     10  H   LIG    1       -1.734   3.342   0.849  0.00  0.00    -0.090 HD
ATOM     11  H   LIG    1       -2.597   4.637   0.255  0.00  0.00    -0.090 HD
ATOM     12  H   LIG    1       -2.018   3.477  -0.787  0.00  0.00    -0.090 HD
ENDBRANCH   8   9
ENDBRANCH   1   8
BRANCH   1  13
ATOM     13  C   LIG    1       -4.606   0.563   0.380  0.00  0.00    +0.122 C 
BRANCH  13  14
ATOM     14  C   LIG    1       -5.336   0.750  -0.925  0.00  0.00    +0.305 C 
ATOM     15  O   LIG    1       -4.871   1.466  -1.780  0.00  0.00    -0.251 OA
BRANCH  14  16
ATOM     16  O   LIG    1       -6.503   0.121  -1.138  0.00  0.00    -0.481 OA
ATOM     17  H   LIG    1       -6.863  -0.434  -0.475  0.00  0.00    +0.295 HD
ENDBRANCH  14  16
ENDBRANCH  13  14
ENDBRANCH   1  13
TORSDOF 9
