REMARK  Name = ZINC13588853
REMARK                            x       y       z     vdW  Elec       q    Type
REMARK                         _______ _______ _______ _____ _____    ______ ____
ROOT
ATOM      1  C   LIG    1        2.153   7.235  -4.083  0.00  0.00    +0.001 A 
ATOM      2  C   LIG    1        1.562   7.378  -2.833  0.00  0.00    +0.002 A 
ATOM      3  C   LIG    1        1.736   6.419  -1.861  0.00  0.00    +0.026 A 
ATOM      4  C   LIG    1        2.510   5.294  -2.129  0.00  0.00    +0.050 A 
ATOM      5  C   LIG    1        3.108   5.151  -3.397  0.00  0.00    +0.001 A 
ATOM      6  C   LIG    1        3.823   3.929  -3.381  0.00  0.00    +0.043 A 
ATOM      7  C   LIG    1        3.662   3.371  -2.152  0.00  0.00    +0.128 A 
ATOM      8  N   LIG    1        2.859   4.193  -1.383  0.00  0.00    -0.330 N 
ATOM      9  C   LIG    1        2.916   6.141  -4.369  0.00  0.00    +0.010 A 
ENDROOT
BRANCH   7  10
ATOM     10  C   LIG    1        4.245   2.097  -1.712  0.00  0.00    +0.353 C 
ATOM     11  O   LIG    1        4.940   1.451  -2.473  0.00  0.00    -0.243 OA
BRANCH  10  12
ATOM     12  O   LIG    1        4.010   1.643  -0.464  0.00  0.00    -0.476 OA
ATOM     13  H   LIG    1        3.475   2.141   0.123  0.00  0.00    +0.295 HD
ENDBRANCH  10  12
ENDBRANCH   7  10
BRANCH   8  14
ATOM     14  C   LIG    1        2.452   3.936   0.000  0.00  0.00    +0.157 C 
BRANCH  14  15
ATOM     15  C   LIG    1        1.157   3.166   0.008  0.00  0.00    -0.026 A 
ATOM     16  C   LIG    1        1.175   1.783   0.000  0.00  0.00    +0.005 A 
ATOM     17  C   LIG    1       -0.013   1.076   0.008  0.00  0.00    +0.002 A 
ATOM     18  C   LIG    1       -1.219   1.750   0.017  0.00  0.00    +0.020 A 
ATOM     19  C   LIG    1       -1.238   3.134   0.030  0.00  0.00    +0.041 A 
ATOM     20 CL   LIG    1       -2.752   3.982   0.049  0.00  0.00    -0.084 Cl
ATOM     21  C   LIG    1       -0.048   3.841   0.023  0.00  0.00    +0.025 A 
ENDBRANCH  14  15
ENDBRANCH   8  14
TORSDOF 4
