REMARK  Name = ZINC13675244
REMARK                            x       y       z     vdW  Elec       q    Type
REMARK                         _______ _______ _______ _____ _____    ______ ____
ROOT
ATOM      1  C   LIG    1        6.171  -0.418  -0.059  0.00  0.00    +0.136 C 
ATOM      2  C   LIG    1        4.975   0.554  -0.043  0.00  0.00    +0.087 C 
ATOM      3  C   LIG    1        3.766  -0.354  -0.036  0.00  0.00    +0.075 C 
ATOM      4  N   LIG    1        4.154  -1.586  -0.041  0.00  0.00    -0.181 NA
ATOM      5  N   LIG    1        5.537  -1.746  -0.060  0.00  0.00    -0.197 N 
ENDROOT
BRANCH   1  10
ATOM      6  C   LIG    1        9.423   0.280   4.666  0.00  0.00    +0.044 C 
ATOM      7  C   LIG    1        8.575   0.098   3.434  0.00  0.00    -0.050 A 
ATOM      8  C   LIG    1        8.963   0.671   2.237  0.00  0.00    +0.004 A 
ATOM      9  C   LIG    1        8.185   0.504   1.107  0.00  0.00    +0.006 A 
ATOM     10  C   LIG    1        7.019  -0.236   1.173  0.00  0.00    -0.025 A 
ATOM     11  C   LIG    1        6.629  -0.805   2.371  0.00  0.00    +0.006 A 
ATOM     12  C   LIG    1        7.409  -0.642   3.500  0.00  0.00    +0.004 A 
ENDBRANCH   1  10
BRANCH   3  13
ATOM     13  C   LIG    1        2.370   0.095  -0.020  0.00  0.00    +0.035 A 
ATOM     14  C   LIG    1        1.211  -0.661  -0.013  0.00  0.00    +0.017 A 
ATOM     15  C   LIG    1        0.002  -0.004   0.002  0.00  0.00    +0.008 A 
ATOM     16  C   LIG    1       -0.016   1.354   0.009  0.00  0.00    +0.046 A 
ATOM     17  S   LIG    1        1.722   1.758  -0.005  0.00  0.00    -0.095 S 
ENDBRANCH   3  13
BRANCH   5  18
ATOM     18  C   LIG    1        6.190  -2.925  -0.072  0.00  0.00    +0.151 C 
ATOM     19  S   LIG    1        7.901  -2.957  -0.088  0.00  0.00    -0.017 S 
BRANCH  18  20
ATOM     20  N   LIG    1        5.495  -4.080  -0.072  0.00  0.00    -0.339 N 
ATOM     21  H   LIG    1        5.964  -4.929  -0.081  0.00  0.00    +0.144 HD
ATOM     22  H   LIG    1        4.525  -4.062  -0.063  0.00  0.00    +0.144 HD
ENDBRANCH  18  20
ENDBRANCH   5  18
TORSDOF 4
