REMARK  Name = ZINC13679042
REMARK                            x       y       z     vdW  Elec       q    Type
REMARK                         _______ _______ _______ _____ _____    ______ ____
ROOT
ATOM      1  C   LIG    1       -0.401   4.907   3.600  0.00  0.00    +0.046 A 
ATOM      2  C   LIG    1       -1.285   3.894   3.827  0.00  0.00    +0.015 A 
ATOM      3  C   LIG    1       -1.319   2.792   2.965  0.00  0.00    +0.020 A 
ATOM      4  C   LIG    1       -2.115   1.570   2.915  0.00  0.00    +0.143 A 
ATOM      5  N   LIG    1       -1.723   0.881   1.882  0.00  0.00    -0.179 NA
ATOM      6  N   LIG    1       -0.698   1.558   1.213  0.00  0.00    -0.265 N 
ATOM      7  C   LIG    1       -0.435   2.732   1.870  0.00  0.00    +0.072 A 
ATOM      8  C   LIG    1        0.457   3.779   1.651  0.00  0.00    +0.073 A 
ATOM      9  C   LIG    1        0.473   4.856   2.515  0.00  0.00    +0.119 A 
ENDROOT
BRANCH   9  10
ATOM     10  O   LIG    1        1.347   5.875   2.305  0.00  0.00    -0.507 OA
ATOM     11  H   LIG    1        2.200   5.759   2.746  0.00  0.00    +0.292 HD
ENDBRANCH   9  10
BRANCH   6  12
ATOM     12  C   LIG    1       -0.013   1.086   0.008  0.00  0.00    +0.125 C 
BRANCH  12  13
ATOM     13  C   LIG    1       -0.753   1.593  -1.232  0.00  0.00    -0.063 C 
BRANCH  13  14
ATOM     14  N   LIG    1       -0.043   1.130  -2.437  0.00  0.00    +0.379 N 
ATOM     15  H   LIG    1        0.906   1.523  -2.442  0.00  0.00    -0.090 HD
ATOM     16  H   LIG    1       -0.535   1.441  -3.273  0.00  0.00    -0.090 HD
ATOM     17  H   LIG    1        0.019   0.113  -2.438  0.00  0.00    -0.090 HD
ENDBRANCH  13  14
ENDBRANCH  12  13
ENDBRANCH   6  12
TORSDOF 4
