REMARK  Name = ZINC13558220
REMARK                            x       y       z     vdW  Elec       q    Type
REMARK                         _______ _______ _______ _____ _____    ______ ____
ROOT
ATOM      1  C   LIG    1        0.170   1.451  -0.045  0.00  0.00    +0.012 C 
ATOM      2  C   LIG    1        0.200  -0.073  -0.054  0.00  0.00    -0.024 C 
ATOM      3  C   LIG    1       -1.239  -0.581   0.172  0.00  0.00    +0.015 C 
ATOM      4  C   LIG    1       -1.776  -0.034   1.492  0.00  0.00    +0.075 C 
ATOM      5  C   LIG    1       -0.853  -0.431   2.615  0.00  0.00    +0.139 C 
ATOM      6  C   LIG    1        0.646  -0.330   2.462  0.00  0.00    +0.027 C 
ATOM      7  C   LIG    1        1.262  -1.393   3.405  0.00  0.00    +0.019 C 
ATOM      8  C   LIG    1        1.127   1.039   2.946  0.00  0.00    +0.019 C 
ATOM      9  O   LIG    1       -1.320  -0.836   3.663  0.00  0.00    -0.297 OA
ATOM     10  C   LIG    1        0.663  -0.622  -1.405  0.00  0.00    +0.006 C 
ATOM     11  C   LIG    1       -0.117   0.026  -2.550  0.00  0.00    +0.031 C 
ATOM     12  C   LIG    1        0.384  -0.497  -3.865  0.00  0.00    -0.026 C 
ATOM     13  C   LIG    1        1.542  -1.077  -4.036  0.00  0.00    -0.063 C 
ATOM     14  C   LIG    1        2.504  -1.347  -2.916  0.00  0.00    -0.005 C 
ATOM     15  C   LIG    1        2.358  -2.824  -2.526  0.00  0.00    +0.016 C 
ATOM     16  C   LIG    1        3.950  -1.124  -3.336  0.00  0.00    +0.012 C 
ATOM     17  C   LIG    1        4.239  -1.714  -4.718  0.00  0.00    +0.019 C 
ATOM     18  C   LIG    1        3.313  -1.105  -5.766  0.00  0.00    +0.074 C 
ATOM     19  C   LIG    1        3.703  -1.569  -7.167  0.00  0.00    +0.019 C 
ATOM     20  C   LIG    1        3.487  -3.065  -7.342  0.00  0.00    +0.007 C 
ATOM     21  C   LIG    1        2.042  -3.453  -7.039  0.00  0.00    -0.034 C 
ATOM     22  C   LIG    1        1.094  -2.831  -8.062  0.00  0.00    +0.011 C 
ATOM     23  C   LIG    1        1.916  -4.982  -7.116  0.00  0.00    +0.011 C 
ATOM     24  C   LIG    1        1.671  -3.004  -5.624  0.00  0.00    +0.015 C 
ATOM     25  C   LIG    1        1.871  -1.507  -5.456  0.00  0.00    +0.033 C 
ATOM     26  C   LIG    1        2.155  -0.504  -1.678  0.00  0.00    -0.019 C 
ATOM     27  C   LIG    1        2.518   0.954  -2.004  0.00  0.00    +0.012 C 
ATOM     28  C   LIG    1        2.995  -0.956  -0.487  0.00  0.00    +0.008 C 
ATOM     29  C   LIG    1        2.540  -0.236   0.792  0.00  0.00    +0.005 C 
ATOM     30  C   LIG    1        1.087  -0.639   1.045  0.00  0.00    +0.008 C 
ENDROOT
BRANCH  18  31
ATOM     31  C   LIG    1        3.421   0.402  -5.730  0.00  0.00    +0.312 C 
ATOM     32  O   LIG    1        4.494   0.941  -5.942  0.00  0.00    -0.250 OA
BRANCH  31  33
ATOM     33  O   LIG    1        2.436   1.078  -5.490  0.00  0.00    -0.480 OA
ATOM     34  H   LIG    1        1.611   0.663  -5.327  0.00  0.00    +0.295 HD
ENDBRANCH  31  33
ENDBRANCH  18  31
TORSDOF 2
