REMARK  Name = ZINC13731055
REMARK                            x       y       z     vdW  Elec       q    Type
REMARK                         _______ _______ _______ _____ _____    ______ ____
ROOT
ATOM      1  C   LIG    1        3.711  -0.707  -0.038  0.00  0.00    -0.039 C 
ATOM      2  C   LIG    1        5.128  -0.294   0.432  0.00  0.00    -0.004 C 
ATOM      3  C   LIG    1        6.043  -0.670  -0.752  0.00  0.00    -0.009 C 
ATOM      4  C   LIG    1        5.795  -2.002  -1.463  0.00  0.00    +0.007 C 
ATOM      5  C   LIG    1        5.152  -0.695  -2.006  0.00  0.00    -0.009 C 
ATOM      6  C   LIG    1        3.727  -0.333  -1.541  0.00  0.00    -0.004 C 
ENDROOT
BRANCH   1   7
ATOM      7  N   LIG    1        3.501  -2.150   0.138  0.00  0.00    +0.386 N 
ATOM      8  H   LIG    1        4.394  -2.614   0.203  0.00  0.00    -0.081 HD
ATOM      9  C   LIG    1        2.739  -2.386   1.370  0.00  0.00    -0.078 C 
ATOM     10  C   LIG    1        2.586  -3.891   1.600  0.00  0.00    -0.019 C 
ATOM     11  C   LIG    1        1.844  -4.511   0.413  0.00  0.00    -0.004 C 
ATOM     12  C   LIG    1        2.608  -4.195  -0.876  0.00  0.00    -0.019 C 
ATOM     13  C   LIG    1        2.760  -2.679  -1.014  0.00  0.00    -0.078 C 
ENDBRANCH   1   7
BRANCH   1  17
ATOM     14  C   LIG    1        0.719   1.520   2.045  0.00  0.00    +0.000 A 
ATOM     15  C   LIG    1        1.943   1.281   2.641  0.00  0.00    +0.000 A 
ATOM     16  C   LIG    1        2.911   0.561   1.967  0.00  0.00    +0.002 A 
ATOM     17  C   LIG    1        2.655   0.078   0.697  0.00  0.00    -0.058 A 
ATOM     18  C   LIG    1        1.431   0.315   0.101  0.00  0.00    +0.002 A 
ATOM     19  C   LIG    1        0.463   1.037   0.775  0.00  0.00    +0.000 A 
ENDBRANCH   1  17
TORSDOF 2
