REMARK  Name = ZINC13678207
REMARK                            x       y       z     vdW  Elec       q    Type
REMARK                         _______ _______ _______ _____ _____    ______ ____
ROOT
ATOM      1  C   LIG    1        0.756   1.430   0.016  0.00  0.00    +0.046 C 
ATOM      2  C   LIG    1        0.448  -0.045   0.005  0.00  0.00    -0.023 A 
ATOM      3  C   LIG    1        0.341  -0.712  -1.180  0.00  0.00    +0.005 A 
ATOM      4  C   LIG    1        0.058  -2.072  -1.207  0.00  0.00    +0.002 A 
ATOM      5  C   LIG    1       -0.120  -2.773  -0.034  0.00  0.00    +0.028 A 
ATOM      6  C   LIG    1       -0.015  -2.114   1.185  0.00  0.00    +0.067 A 
ATOM      7  N   LIG    1       -0.132  -2.507   2.498  0.00  0.00    -0.334 N 
ATOM      8  H   LIG    1       -0.328  -3.403   2.816  0.00  0.00    +0.168 HD
ATOM      9  C   LIG    1        0.093  -1.399   3.272  0.00  0.00    +0.195 A 
ATOM     10  N   LIG    1        0.326  -0.364   2.504  0.00  0.00    -0.223 NA
ATOM     11  C   LIG    1        0.277  -0.736   1.213  0.00  0.00    +0.093 A 
ENDROOT
BRANCH   9  12
ATOM     12  C   LIG    1        0.066  -1.373   4.750  0.00  0.00    +0.282 C 
ATOM     13  N   LIG    1        0.158  -0.199   5.406  0.00  0.00    -0.299 N 
ATOM     14  C   LIG    1        0.129   1.078   4.677  0.00  0.00    +0.089 C 
ATOM     15  C   LIG    1       -0.912   1.990   5.335  0.00  0.00    -0.060 C 
ATOM     16  N   LIG    1       -0.614   2.116   6.768  0.00  0.00    +0.380 N 
ATOM     17  H   LIG    1        0.331   2.448   6.885  0.00  0.00    -0.082 HD
ATOM     18  C   LIG    1       -1.545   3.076   7.377  0.00  0.00    -0.096 C 
ATOM     19  C   LIG    1       -0.759   0.812   7.425  0.00  0.00    -0.060 C 
ATOM     20  C   LIG    1        0.283  -0.158   6.871  0.00  0.00    +0.089 C 
ATOM     21  O   LIG    1       -0.039  -2.411   5.375  0.00  0.00    -0.267 OA
ENDBRANCH   9  12
TORSDOF 1
