REMARK  Name = ZINC13683289
REMARK                            x       y       z     vdW  Elec       q    Type
REMARK                         _______ _______ _______ _____ _____    ______ ____
ROOT
ATOM      1  C   LIG    1       -0.117   1.036  -0.124  0.00  0.00    +0.218 C 
ATOM      2  N   LIG    1       -1.366   1.470   0.138  0.00  0.00    -0.285 N 
ATOM      3  H   LIG    1       -1.512   2.388   0.417  0.00  0.00    +0.155 HD
ATOM      4  O   LIG    1        0.075  -0.131  -0.394  0.00  0.00    -0.275 OA
ENDROOT
BRANCH   2   5
ATOM      5  C   LIG    1       -2.449   0.601   0.006  0.00  0.00    +0.034 A 
ATOM      6  C   LIG    1       -3.669   1.079  -0.459  0.00  0.00    +0.024 A 
ATOM      7  C   LIG    1       -4.750   0.231  -0.601  0.00  0.00    +0.015 A 
ATOM      8  C   LIG    1       -4.624  -1.114  -0.264  0.00  0.00    +0.048 A 
ATOM      9  C   LIG    1       -3.387  -1.599   0.214  0.00  0.00    +0.041 A 
ATOM     10  C   LIG    1       -3.287  -3.032   0.561  0.00  0.00    +0.248 C 
ATOM     11  C   LIG    1       -4.507  -3.881   0.384  0.00  0.00    +0.291 C 
ATOM     12  N   LIG    1       -5.647  -3.340  -0.078  0.00  0.00    -0.246 N 
ATOM     13  H   LIG    1       -6.423  -3.913  -0.184  0.00  0.00    +0.158 HD
ATOM     14  O   LIG    1       -4.467  -5.062   0.658  0.00  0.00    -0.266 OA
ATOM     15  O   LIG    1       -2.250  -3.505   0.977  0.00  0.00    -0.282 OA
ATOM     16  C   LIG    1       -5.760  -2.042  -0.399  0.00  0.00    +0.251 C 
ATOM     17  O   LIG    1       -6.823  -1.622  -0.812  0.00  0.00    -0.270 OA
ATOM     18  C   LIG    1       -2.305  -0.742   0.347  0.00  0.00    +0.036 A 
ENDBRANCH   2   5
BRANCH   1  19
ATOM     19  C   LIG    1        1.040   2.002  -0.088  0.00  0.00    +0.105 C 
BRANCH  19  20
ATOM     20  C   LIG    1        2.334   1.259  -0.427  0.00  0.00    +0.105 C 
BRANCH  20  23
ATOM     21  N   LIG    1        4.739   1.792  -0.659  0.00  0.00    -0.283 N 
ATOM     22  H   LIG    1        4.884   0.873  -0.935  0.00  0.00    +0.155 HD
ATOM     23  C   LIG    1        3.491   2.225  -0.391  0.00  0.00    +0.218 C 
ATOM     24  O   LIG    1        3.299   3.392  -0.121  0.00  0.00    -0.275 OA
BRANCH  21  30
ATOM     25  C   LIG    1        7.095   2.171  -0.253  0.00  0.00    +0.141 A 
ATOM     26  C   LIG    1        8.166   3.042  -0.135  0.00  0.00    +0.047 A 
ATOM     27  C   LIG    1        7.973   4.401  -0.299  0.00  0.00    +0.004 A 
ATOM     28  C   LIG    1        6.713   4.895  -0.582  0.00  0.00    +0.002 A 
ATOM     29  C   LIG    1        5.641   4.032  -0.706  0.00  0.00    +0.027 A 
ATOM     30  C   LIG    1        5.825   2.668  -0.538  0.00  0.00    +0.076 A 
BRANCH  25  32
ATOM     31  C   LIG    1        8.612   0.395   0.198  0.00  0.00    +0.277 C 
ATOM     32  O   LIG    1        7.283   0.833  -0.092  0.00  0.00    -0.493 OA
ENDBRANCH  25  32
ENDBRANCH  21  30
ENDBRANCH  20  23
ENDBRANCH  19  20
ENDBRANCH   1  19
TORSDOF 6
