REMARK  Name = ZINC13735584
REMARK                            x       y       z     vdW  Elec       q    Type
REMARK                         _______ _______ _______ _____ _____    ______ ____
ROOT
ATOM      1  C   LIG    1       -1.978   2.413  -0.604  0.00  0.00    +0.001 C 
ATOM      2  N   LIG    1       -1.501   2.775   0.729  0.00  0.00    +0.384 N 
ATOM      3  H   LIG    1       -0.868   3.581   0.668  0.00  0.00    -0.081 HD
ATOM      4  C   LIG    1       -2.649   3.118   1.629  0.00  0.00    -0.095 C 
ATOM      5  C   LIG    1       -0.778   1.605   1.244  0.00  0.00    -0.078 C 
ATOM      6  C   LIG    1       -0.013   1.086   0.008  0.00  0.00    -0.020 C 
ATOM      7  C   LIG    1       -0.801   1.618  -1.207  0.00  0.00    -0.009 C 
ENDROOT
BRANCH   1  11
ATOM      8  C   LIG    1       -3.897   5.800  -3.883  0.00  0.00    +0.069 C 
ATOM      9  C   LIG    1       -3.071   5.105  -2.832  0.00  0.00    +0.081 A 
ATOM     10  C   LIG    1       -3.241   3.784  -2.357  0.00  0.00    +0.069 A 
ATOM     11  C   LIG    1       -2.263   3.640  -1.432  0.00  0.00    +0.124 A 
ATOM     12  O   LIG    1       -1.601   4.805  -1.394  0.00  0.00    -0.361 OA
ATOM     13  N   LIG    1       -2.060   5.602  -2.180  0.00  0.00    -0.083 NA
ENDBRANCH   1  11
TORSDOF 1
