REMARK  Name = ZINC13560833
REMARK                            x       y       z     vdW  Elec       q    Type
REMARK                         _______ _______ _______ _____ _____    ______ ____
ROOT
ATOM      1  C   LIG    1       -1.253   1.615  -0.019  0.00  0.00    +0.034 A 
ATOM      2  C   LIG    1       -1.311   2.998  -0.129  0.00  0.00    +0.027 A 
ATOM      3  C   LIG    1       -2.535   3.636  -0.160  0.00  0.00    +0.048 A 
ATOM      4  C   LIG    1       -3.706   2.897  -0.070  0.00  0.00    +0.129 A 
ATOM      5  C   LIG    1       -3.648   1.516   0.045  0.00  0.00    +0.098 A 
ATOM      6  C   LIG    1       -2.424   0.876   0.071  0.00  0.00    +0.039 A 
ENDROOT
BRANCH   1   8
ATOM      7  C   LIG    1        1.044   1.553   0.607  0.00  0.00    +0.223 C 
ATOM      8  N   LIG    1       -0.011   0.966   0.007  0.00  0.00    -0.285 N 
ATOM      9  H   LIG    1        0.090   0.096  -0.409  0.00  0.00    +0.155 HD
ATOM     10  O   LIG    1        0.939   2.675   1.055  0.00  0.00    -0.275 OA
BRANCH   7  12
ATOM     11  C   LIG    1        2.693  -0.109  -0.450  0.00  0.00    +0.021 C 
ATOM     12  C   LIG    1        2.353   0.815   0.721  0.00  0.00    +0.045 C 
ATOM     13  C   LIG    1        2.799   0.380   2.118  0.00  0.00    +0.017 C 
ATOM     14  C   LIG    1        3.512   1.536   1.412  0.00  0.00    +0.017 C 
ENDBRANCH   7  12
ENDBRANCH   1   8
BRANCH   5  15
ATOM     15  C   LIG    1       -4.920   0.714   0.143  0.00  0.00    +0.421 C 
ATOM     16  F   LIG    1       -5.694   0.925  -1.003  0.00  0.00    -0.166 F 
ATOM     17  F   LIG    1       -5.640   1.118   1.272  0.00  0.00    -0.166 F 
ATOM     18  F   LIG    1       -4.607  -0.645   0.251  0.00  0.00    -0.166 F 
ENDBRANCH   5  15
BRANCH   4  19
ATOM     19  O   LIG    1       -4.911   3.526  -0.096  0.00  0.00    -0.506 OA
ATOM     20  H   LIG    1       -5.239   3.783   0.776  0.00  0.00    +0.292 HD
ENDBRANCH   4  19
TORSDOF 4
