REMARK  Name = ZINC13674492
REMARK                            x       y       z     vdW  Elec       q    Type
REMARK                         _______ _______ _______ _____ _____    ______ ____
ROOT
ATOM      1  C   LIG    1       -1.199   1.743   0.017  0.00  0.00    +0.001 A 
ATOM      2  C   LIG    1       -1.239   3.136   0.030  0.00  0.00    +0.001 A 
ATOM      3  C   LIG    1       -0.093   3.870   0.023  0.00  0.00    +0.008 A 
ATOM      4  C   LIG    1        1.152   3.215   0.008  0.00  0.00    -0.017 A 
ATOM      5  C   LIG    1        2.353   3.941  -0.001  0.00  0.00    +0.020 A 
ATOM      6  C   LIG    1        3.559   3.261  -0.015  0.00  0.00    +0.019 A 
ATOM      7  C   LIG    1        3.586   1.855  -0.023  0.00  0.00    +0.012 A 
ATOM      8  C   LIG    1        2.434   1.137  -0.015  0.00  0.00    +0.009 A 
ATOM      9  C   LIG    1        1.193   1.798   0.000  0.00  0.00    -0.018 A 
ATOM     10  C   LIG    1       -0.013   1.076   0.008  0.00  0.00    +0.008 A 
ENDROOT
BRANCH   6  11
ATOM     11  C   LIG    1        4.828   4.019  -0.024  0.00  0.00    +0.155 A 
ATOM     12  C   LIG    1        6.082   3.498  -0.033  0.00  0.00    +0.160 A 
ATOM     13  N   LIG    1        6.945   4.524  -0.042  0.00  0.00    -0.224 NA
ATOM     14  C   LIG    1        6.274   5.641  -0.029  0.00  0.00    +0.308 A 
ATOM     15  O   LIG    1        4.963   5.363  -0.018  0.00  0.00    -0.442 OA
ENDBRANCH   6  11
TORSDOF 1
