REMARK  Name = ZINC13732758
REMARK                            x       y       z     vdW  Elec       q    Type
REMARK                         _______ _______ _______ _____ _____    ______ ____
ROOT
ATOM      1  C   LIG    1       -3.518  -0.685   1.949  0.00  0.00    +0.138 C 
ATOM      2  N   LIG    1       -2.548  -0.208   0.960  0.00  0.00    -0.271 N 
ATOM      3  C   LIG    1       -2.063  -1.129   0.044  0.00  0.00    +0.045 A 
ATOM      4  C   LIG    1       -1.770  -2.410   0.517  0.00  0.00    +0.024 A 
ATOM      5  C   LIG    1       -1.287  -3.379  -0.334  0.00  0.00    +0.002 A 
ATOM      6  C   LIG    1       -1.087  -3.091  -1.674  0.00  0.00    +0.001 A 
ATOM      7  C   LIG    1       -1.370  -1.835  -2.157  0.00  0.00    +0.012 A 
ATOM      8  C   LIG    1       -1.862  -0.836  -1.303  0.00  0.00    +0.022 A 
ATOM      9  C   LIG    1       -2.139   0.486  -1.887  0.00  0.00    +0.077 C 
ATOM     10  N   LIG    1       -1.874   1.612  -1.322  0.00  0.00    -0.251 NA
ATOM     11  C   LIG    1       -1.261   1.682   0.004  0.00  0.00    +0.280 C 
ATOM     12  C   LIG    1       -2.201   1.076   1.010  0.00  0.00    +0.262 C 
ATOM     13  O   LIG    1       -2.655   1.776   1.890  0.00  0.00    -0.271 OA
ENDROOT
BRANCH   9  14
ATOM     14  C   LIG    1       -2.768   0.525  -3.227  0.00  0.00    +0.001 A 
ATOM     15  C   LIG    1       -2.623   1.651  -4.037  0.00  0.00    +0.010 A 
ATOM     16  C   LIG    1       -3.208   1.679  -5.286  0.00  0.00    +0.001 A 
ATOM     17  C   LIG    1       -3.946   0.598  -5.732  0.00  0.00    +0.000 A 
ATOM     18  C   LIG    1       -4.098  -0.520  -4.932  0.00  0.00    +0.001 A 
ATOM     19  C   LIG    1       -3.514  -0.562  -3.683  0.00  0.00    +0.010 A 
ENDBRANCH   9  14
BRANCH  11  20
ATOM     20  N   LIG    1        0.001   0.937   0.001  0.00  0.00    -0.270 N 
ATOM     21  H   LIG    1       -0.008  -0.033   0.006  0.00  0.00    +0.153 HD
ATOM     22  C   LIG    1        1.174   1.600  -0.015  0.00  0.00    +0.302 C 
ATOM     23  N   LIG    1        2.335   0.915  -0.023  0.00  0.00    -0.297 N 
ATOM     24  H   LIG    1        2.326  -0.055  -0.018  0.00  0.00    +0.151 HD
ATOM     25  O   LIG    1        1.186   2.816  -0.021  0.00  0.00    -0.253 OA
BRANCH  23  26
ATOM     26  C   LIG    1        3.611   1.635  -0.040  0.00  0.00    +0.074 C 
ATOM     27  C   LIG    1        3.978   1.988  -1.482  0.00  0.00    +0.022 C 
ATOM     28  C   LIG    1        5.310   2.740  -1.500  0.00  0.00    +0.002 C 
ATOM     29  C   LIG    1        6.404   1.856  -0.897  0.00  0.00    +0.000 C 
ATOM     30  C   LIG    1        6.036   1.503   0.546  0.00  0.00    +0.002 C 
ATOM     31  C   LIG    1        4.704   0.751   0.564  0.00  0.00    +0.022 C 
ENDBRANCH  23  26
ENDBRANCH  11  20
TORSDOF 3
