REMARK  Name = ZINC13679847
REMARK                            x       y       z     vdW  Elec       q    Type
REMARK                         _______ _______ _______ _____ _____    ______ ____
ROOT
ATOM      1  C   LIG    1        6.559  -0.108  -0.060  0.00  0.00    -0.016 C 
ATOM      2  C   LIG    1        7.357   0.077  -1.114  0.00  0.00    -0.003 C 
ENDROOT
BRANCH   2   3
ATOM      3  C   LIG    1        8.697  -0.511  -1.130  0.00  0.00    +0.005 C 
ATOM      4  C   LIG    1        9.505  -0.324  -2.197  0.00  0.00    +0.069 C 
BRANCH   4   5
ATOM      5  C   LIG    1       10.844  -0.911  -2.213  0.00  0.00    +0.259 C 
ATOM      6  N   LIG    1       11.649  -0.724  -3.277  0.00  0.00    -0.194 N 
ATOM      7  H   LIG    1       11.341  -0.200  -4.033  0.00  0.00    +0.183 HD
ATOM      8  O   LIG    1       11.232  -1.568  -1.265  0.00  0.00    -0.269 OA
BRANCH   6   9
ATOM      9  O   LIG    1       12.946  -1.292  -3.293  0.00  0.00    -0.295 OA
ATOM     10  H   LIG    1       13.449  -1.104  -4.097  0.00  0.00    +0.241 HD
ENDBRANCH   6   9
ENDBRANCH   4   5
ENDBRANCH   2   3
BRANCH   1  11
ATOM     11  C   LIG    1        5.179   0.497  -0.044  0.00  0.00    +0.101 C 
BRANCH  11  12
ATOM     12  S   LIG    1        3.939  -0.827  -0.040  0.00  0.00    -0.121 S 
BRANCH  12  16
ATOM     13  C   LIG    1       -0.017   1.379   0.010  0.00  0.00    +0.000 A 
ATOM     14  C   LIG    1        1.169   2.090   0.002  0.00  0.00    +0.001 A 
ATOM     15  C   LIG    1        2.377   1.421  -0.013  0.00  0.00    +0.015 A 
ATOM     16  C   LIG    1        2.400   0.031  -0.021  0.00  0.00    +0.008 A 
ATOM     17  C   LIG    1        1.206  -0.680  -0.013  0.00  0.00    +0.015 A 
ATOM     18  C   LIG    1        0.002  -0.004   0.002  0.00  0.00    +0.001 A 
ENDBRANCH  12  16
ENDBRANCH  11  12
ENDBRANCH   1  11
TORSDOF 6
