REMARK  Name = ZINC13686762
REMARK                            x       y       z     vdW  Elec       q    Type
REMARK                         _______ _______ _______ _____ _____    ______ ____
ROOT
ATOM      1  C   LIG    1       -3.858  -0.770   0.015  0.00  0.00    +0.232 A 
ATOM      2  N   LIG    1       -2.584  -0.480   0.006  0.00  0.00    -0.202 NA
ATOM      3  C   LIG    1       -2.447   0.874   0.018  0.00  0.00    +0.186 A 
ATOM      4  C   LIG    1       -3.727   1.408   0.027  0.00  0.00    +0.217 A 
ATOM      5  O   LIG    1       -4.580   0.368   0.025  0.00  0.00    -0.421 OA
ENDROOT
BRANCH   1  11
ATOM      6  C   LIG    1       -4.105  -4.517  -0.006  0.00  0.00    +0.001 A 
ATOM      7  C   LIG    1       -5.477  -4.697  -0.000  0.00  0.00    +0.001 A 
ATOM      8  C   LIG    1       -6.324  -3.604   0.011  0.00  0.00    +0.021 A 
ATOM      9  C   LIG    1       -5.806  -2.324   0.016  0.00  0.00    +0.053 A 
ATOM     10 CL   LIG    1       -6.870  -0.954   0.029  0.00  0.00    -0.083 Cl
ATOM     11  C   LIG    1       -4.421  -2.136   0.010  0.00  0.00    +0.055 A 
ATOM     12  C   LIG    1       -3.573  -3.244  -0.007  0.00  0.00    +0.014 A 
ENDBRANCH   1  11
BRANCH   3  13
ATOM     13  C   LIG    1       -1.187   1.624   0.017  0.00  0.00    +0.265 C 
ATOM     14  N   LIG    1       -0.011   0.966   0.007  0.00  0.00    -0.324 N 
ATOM     15  H   LIG    1        0.822   1.462   0.002  0.00  0.00    +0.145 HD
ATOM     16  H   LIG    1        0.002  -0.004   0.002  0.00  0.00    +0.145 HD
ATOM     17  O   LIG    1       -1.204   2.841   0.023  0.00  0.00    -0.269 OA
ENDBRANCH   3  13
BRANCH   4  18
ATOM     18  N   LIG    1       -4.060   2.743   0.037  0.00  0.00    -0.327 N 
ATOM     19  H   LIG    1       -4.992   3.010   0.043  0.00  0.00    +0.145 HD
ATOM     20  H   LIG    1       -3.362   3.417   0.037  0.00  0.00    +0.145 HD
ENDBRANCH   4  18
TORSDOF 3
