REMARK  Name = ZINC13744911
REMARK                            x       y       z     vdW  Elec       q    Type
REMARK                         _______ _______ _______ _____ _____    ______ ____
ROOT
ATOM      1  C   LIG    1        1.147   1.655   0.000  0.00  0.00    +0.136 C 
ATOM      2  S   LIG    1        1.124   3.367   0.009  0.00  0.00    -0.019 S 
ENDROOT
BRANCH   1   3
ATOM      3  N   LIG    1        2.323   0.998  -0.015  0.00  0.00    -0.326 N 
ATOM      4  H   LIG    1        2.336   0.028  -0.020  0.00  0.00    +0.148 HD
BRANCH   3   5
ATOM      5  C   LIG    1        3.582   1.747  -0.023  0.00  0.00    +0.108 C 
BRANCH   5   6
ATOM      6  C   LIG    1        4.758   0.769  -0.039  0.00  0.00    +0.054 C 
BRANCH   6  10
ATOM      7  C   LIG    1        8.428   2.955  -0.062  0.00  0.00    +0.000 A 
ATOM      8  C   LIG    1        7.846   2.595   1.138  0.00  0.00    +0.000 A 
ATOM      9  C   LIG    1        6.658   1.887   1.146  0.00  0.00    +0.004 A 
ATOM     10  C   LIG    1        6.053   1.540  -0.048  0.00  0.00    -0.046 A 
ATOM     11  C   LIG    1        6.638   1.895  -1.248  0.00  0.00    +0.004 A 
ATOM     12  C   LIG    1        7.823   2.607  -1.256  0.00  0.00    +0.000 A 
ENDBRANCH   6  10
ENDBRANCH   5   6
ENDBRANCH   3   5
ENDBRANCH   1   3
BRANCH   1  13
ATOM     13  N   LIG    1       -0.011   0.966   0.007  0.00  0.00    -0.276 N 
ATOM     14  H   LIG    1        0.002  -0.004   0.002  0.00  0.00    +0.156 HD
BRANCH  13  15
ATOM     15  C   LIG    1       -1.219   1.642   0.017  0.00  0.00    +0.165 A 
ATOM     16  N   LIG    1       -2.437   1.151   0.020  0.00  0.00    -0.225 NA
ATOM     17  C   LIG    1       -3.536   1.937   0.030  0.00  0.00    +0.080 A 
ATOM     18  C   LIG    1       -4.893   1.540   0.035  0.00  0.00    +0.029 A 
ATOM     19  C   LIG    1       -5.896   2.474   0.046  0.00  0.00    +0.002 A 
ATOM     20  C   LIG    1       -5.620   3.833   0.053  0.00  0.00    +0.001 A 
ATOM     21  C   LIG    1       -4.304   4.257   0.048  0.00  0.00    +0.017 A 
ATOM     22  C   LIG    1       -3.293   3.329   0.037  0.00  0.00    +0.041 A 
ATOM     23  S   LIG    1       -1.518   3.404   0.036  0.00  0.00    -0.052 S 
ENDBRANCH  13  15
ENDBRANCH   1  13
TORSDOF 6
