REMARK  Name = ZINC13675200
REMARK                            x       y       z     vdW  Elec       q    Type
REMARK                         _______ _______ _______ _____ _____    ______ ____
ROOT
ATOM      1  C   LIG    1       -2.968   1.306   1.465  0.00  0.00    +0.024 C 
ENDROOT
BRANCH   1   2
ATOM      2  C   LIG    1       -4.408   0.788   1.468  0.00  0.00    +0.036 C 
BRANCH   2   6
ATOM      3  C   LIG    1       -5.731   0.286   5.499  0.00  0.00    +0.000 A 
ATOM      4  C   LIG    1       -5.922   1.494   4.854  0.00  0.00    +0.000 A 
ATOM      5  C   LIG    1       -5.493   1.656   3.550  0.00  0.00    +0.003 A 
ATOM      6  C   LIG    1       -4.874   0.611   2.890  0.00  0.00    -0.047 A 
ATOM      7  C   LIG    1       -4.688  -0.599   3.533  0.00  0.00    +0.003 A 
ATOM      8  C   LIG    1       -5.112  -0.760   4.839  0.00  0.00    +0.000 A 
ENDBRANCH   2   6
ENDBRANCH   1   2
BRANCH   1   9
ATOM      9  C   LIG    1       -2.495   1.486   0.021  0.00  0.00    +0.117 C 
BRANCH   9  10
ATOM     10  N   LIG    1       -1.116   1.982   0.018  0.00  0.00    -0.235 N 
ATOM     11  C   LIG    1       -0.014   1.210   0.009  0.00  0.00    +0.246 C 
ATOM     12  C   LIG    1        1.174   2.091   0.002  0.00  0.00    +0.073 C 
ATOM     13  C   LIG    1        0.719   3.355   0.013  0.00  0.00    +0.073 C 
ATOM     14  O   LIG    1        0.002  -0.004   0.002  0.00  0.00    -0.270 OA
ATOM     15  C   LIG    1       -0.758   3.278   0.026  0.00  0.00    +0.246 C 
ATOM     16  O   LIG    1       -1.518   4.225   0.038  0.00  0.00    -0.270 OA
ENDBRANCH   9  10
ENDBRANCH   1   9
TORSDOF 4
