REMARK  Name = ZINC13687371
REMARK                            x       y       z     vdW  Elec       q    Type
REMARK                         _______ _______ _______ _____ _____    ______ ____
ROOT
ATOM      1  C   LIG    1        1.482  -2.493   0.599  0.00  0.00    +0.016 C 
ENDROOT
BRANCH   1   2
ATOM      2  C   LIG    1        2.218  -3.240   1.681  0.00  0.00    +0.201 C 
ATOM      3  N   LIG    1        1.793  -4.460   2.066  0.00  0.00    -0.271 N 
ATOM      4  C   LIG    1        0.633  -5.180   1.512  0.00  0.00    +0.180 C 
ATOM      5  C   LIG    1        0.924  -6.676   1.790  0.00  0.00    +0.040 C 
ATOM      6  C   LIG    1        1.604  -6.606   3.183  0.00  0.00    +0.040 C 
ATOM      7  C   LIG    1        2.414  -5.295   3.105  0.00  0.00    +0.180 C 
ATOM      8  O   LIG    1        3.192  -2.744   2.206  0.00  0.00    -0.278 OA
BRANCH   4   9
ATOM      9  C   LIG    1        0.524  -4.938   0.064  0.00  0.00    +0.085 C 
ATOM     10  N   LIG    1        0.440  -4.752  -1.054  0.00  0.00    -0.195 NA
ENDBRANCH   4   9
BRANCH   7  11
ATOM     11  C   LIG    1        3.811  -5.587   2.744  0.00  0.00    +0.085 C 
ATOM     12  N   LIG    1        4.889  -5.812   2.466  0.00  0.00    -0.195 NA
ENDBRANCH   7  11
ENDBRANCH   1   2
BRANCH   1  13
ATOM     13  N   LIG    1        2.138  -1.199   0.364  0.00  0.00    +0.390 N 
ATOM     14  H   LIG    1        2.195  -0.689   1.233  0.00  0.00    -0.084 HD
ATOM     15  H   LIG    1        3.067  -1.354   0.003  0.00  0.00    -0.084 HD
BRANCH  13  19
ATOM     16  C   LIG    1        2.382   1.047  -2.309  0.00  0.00    -0.001 C 
ATOM     17  C   LIG    1        2.521  -0.431  -2.753  0.00  0.00    -0.001 C 
ATOM     18  C   LIG    1        1.373  -1.129  -1.981  0.00  0.00    -0.010 C 
ATOM     19  C   LIG    1        1.357  -0.424  -0.609  0.00  0.00    -0.044 C 
ATOM     20  C   LIG    1        1.998   0.959  -0.818  0.00  0.00    -0.010 C 
BRANCH  19  21
ATOM     21  C   LIG    1       -0.084  -0.265  -0.118  0.00  0.00    +0.143 C 
BRANCH  21  22
ATOM     22  O   LIG    1       -0.079   0.272   1.206  0.00  0.00    -0.396 OA
ATOM     23  H   LIG    1       -0.961   0.400   1.581  0.00  0.00    +0.209 HD
ENDBRANCH  21  22
ENDBRANCH  19  21
ENDBRANCH  13  19
ENDBRANCH   1  13
TORSDOF 7
