REMARK  Name = ZINC13588429
REMARK                            x       y       z     vdW  Elec       q    Type
REMARK                         _______ _______ _______ _____ _____    ______ ____
ROOT
ATOM      1  C   LIG    1        1.437   3.495  -0.026  0.00  0.00    +0.149 A 
ATOM      2  N   LIG    1        0.529   4.420   0.185  0.00  0.00    -0.227 NA
ATOM      3  C   LIG    1        1.113   5.643   0.163  0.00  0.00    +0.090 A 
ATOM      4  C   LIG    1        0.624   6.940   0.327  0.00  0.00    +0.044 A 
ATOM      5  C   LIG    1        1.500   8.019   0.246  0.00  0.00    +0.061 A 
ATOM      6  C   LIG    1        2.863   7.803   0.001  0.00  0.00    +0.017 A 
ATOM      7  C   LIG    1        3.345   6.536  -0.159  0.00  0.00    +0.029 A 
ATOM      8  C   LIG    1        2.486   5.446  -0.081  0.00  0.00    +0.069 A 
ATOM      9  N   LIG    1        2.666   4.083  -0.191  0.00  0.00    -0.320 N 
ENDROOT
BRANCH   9  10
ATOM     10  C   LIG    1        3.933   3.391  -0.441  0.00  0.00    +0.089 C 
ATOM     11  C   LIG    1        4.890   3.643   0.726  0.00  0.00    +0.025 C 
ATOM     12  C   LIG    1        6.213   2.921   0.464  0.00  0.00    +0.002 C 
ATOM     13  C   LIG    1        6.836   3.449  -0.829  0.00  0.00    +0.000 C 
ATOM     14  C   LIG    1        5.879   3.197  -1.996  0.00  0.00    +0.002 C 
ATOM     15  C   LIG    1        4.556   3.919  -1.735  0.00  0.00    +0.025 C 
ENDBRANCH   9  10
BRANCH   1  18
ATOM     16  C   LIG    1       -0.014   0.008  -0.238  0.00  0.00    +0.008 A 
ATOM     17  C   LIG    1       -0.024   1.383  -0.225  0.00  0.00    +0.019 A 
ATOM     18  C   LIG    1        1.178   2.049  -0.072  0.00  0.00    +0.055 A 
ATOM     19  S   LIG    1        2.333   0.693   0.055  0.00  0.00    -0.094 S 
ATOM     20  C   LIG    1        1.167  -0.649  -0.100  0.00  0.00    +0.046 A 
ENDBRANCH   1  18
BRANCH   5  21
ATOM     21  C   LIG    1        0.992   9.393   0.417  0.00  0.00    +0.337 C 
ATOM     22  O   LIG    1       -0.190   9.582   0.629  0.00  0.00    -0.245 OA
BRANCH  21  23
ATOM     23  O   LIG    1        1.838  10.439   0.340  0.00  0.00    -0.477 OA
ATOM     24  H   LIG    1        2.749  10.293   0.176  0.00  0.00    +0.295 HD
ENDBRANCH  21  23
ENDBRANCH   5  21
TORSDOF 4
