REMARK  Name = ZINC13559483
REMARK                            x       y       z     vdW  Elec       q    Type
REMARK                         _______ _______ _______ _____ _____    ______ ____
ROOT
ATOM      1  C   LIG    1       -3.614   3.140  -0.047  0.00  0.00    +0.252 C 
ATOM      2  N   LIG    1       -2.456   3.823   0.046  0.00  0.00    -0.283 N 
ATOM      3  H   LIG    1       -2.468   4.790   0.129  0.00  0.00    +0.155 HD
ATOM      4  O   LIG    1       -3.604   1.927  -0.054  0.00  0.00    -0.272 OA
ENDROOT
BRANCH   2   5
ATOM      5  C   LIG    1       -1.236   3.138   0.025  0.00  0.00    +0.034 A 
ATOM      6  C   LIG    1       -1.099   1.984  -0.735  0.00  0.00    +0.025 A 
ATOM      7  C   LIG    1        0.105   1.307  -0.749  0.00  0.00    +0.035 A 
ATOM      8  C   LIG    1        1.177   1.784  -0.016  0.00  0.00    +0.133 A 
ATOM      9  C   LIG    1        1.045   2.937   0.736  0.00  0.00    +0.086 A 
ATOM     10  C   LIG    1       -0.158   3.615   0.759  0.00  0.00    +0.038 A 
BRANCH   9  11
ATOM     11  C   LIG    1        2.216   3.454   1.532  0.00  0.00    +0.420 C 
ATOM     12  F   LIG    1        3.281   3.733   0.668  0.00  0.00    -0.166 F 
ATOM     13  F   LIG    1        2.611   2.486   2.462  0.00  0.00    -0.166 F 
ATOM     14  F   LIG    1        1.843   4.622   2.205  0.00  0.00    -0.166 F 
ENDBRANCH   9  11
BRANCH   8  15
ATOM     15  N   LIG    1        2.467   1.060  -0.038  0.00  0.00    +0.007 N 
ATOM     16  O   LIG    1        2.585   0.045  -0.701  0.00  0.00    -0.130 OA
BRANCH  15  17
ATOM     17  O   LIG    1        3.412   1.479   0.606  0.00  0.00    -0.396 OA
ATOM     18  H   LIG    1        3.322   2.260   1.116  0.00  0.00    +0.329 HD
ENDBRANCH  15  17
ENDBRANCH   8  15
ENDBRANCH   2   5
BRANCH   1  20
ATOM     19  C   LIG    1       -5.191   4.252  -1.605  0.00  0.00    +0.055 C 
ATOM     20  C   LIG    1       -4.921   3.883  -0.144  0.00  0.00    +0.173 C 
BRANCH  20  21
ATOM     21  O   LIG    1       -4.852   5.074   0.643  0.00  0.00    -0.376 OA
ATOM     22  H   LIG    1       -4.683   4.915   1.582  0.00  0.00    +0.211 HD
ENDBRANCH  20  21
BRANCH  20  23
ATOM     23  C   LIG    1       -6.053   2.994   0.374  0.00  0.00    +0.273 C 
BRANCH  23  24
ATOM     24  O   LIG    1       -7.306   3.652   0.175  0.00  0.00    -0.489 OA
BRANCH  24  25
ATOM     25  C   LIG    1       -8.422   2.992   0.584  0.00  0.00    +0.121 A 
ATOM     26  C   LIG    1       -8.313   1.735   1.159  0.00  0.00    +0.048 A 
ATOM     27  C   LIG    1       -9.447   1.068   1.580  0.00  0.00    +0.042 A 
ATOM     28  C   LIG    1      -10.693   1.649   1.417  0.00  0.00    +0.124 A 
ATOM     29  F   LIG    1      -11.802   0.994   1.824  0.00  0.00    -0.205 F 
ATOM     30  C   LIG    1      -10.804   2.901   0.836  0.00  0.00    +0.042 A 
ATOM     31  C   LIG    1       -9.671   3.573   0.420  0.00  0.00    +0.048 A 
ENDBRANCH  24  25
ENDBRANCH  23  24
ENDBRANCH  20  23
ENDBRANCH   1  20
TORSDOF 9
