REMARK  Name = ZINC13588702
REMARK                            x       y       z     vdW  Elec       q    Type
REMARK                         _______ _______ _______ _____ _____    ______ ____
ROOT
ATOM      1  C   LIG    1        0.742  -0.511   1.242  0.00  0.00    +0.120 C 
ATOM      2  C   LIG    1        0.675  -2.055   1.333  0.00  0.00    +0.256 C 
ATOM      3  O   LIG    1        1.996  -2.368   1.820  0.00  0.00    -0.465 OA
ATOM      4  C   LIG    1        2.816  -1.361   1.459  0.00  0.00    +0.253 C 
ATOM      5  N   LIG    1        2.194  -0.273   1.123  0.00  0.00    -0.338 N 
ATOM      6  H   LIG    1        2.766   0.615   0.817  0.00  0.00    +0.164 HD
ENDROOT
BRANCH   4   7
ATOM      7  N   LIG    1        4.185  -1.476   1.449  0.00  0.00    -0.315 N 
ATOM      8  H   LIG    1        4.660  -2.423   1.744  0.00  0.00    +0.147 HD
ATOM      9  H   LIG    1        4.806  -0.620   1.145  0.00  0.00    +0.147 HD
ENDBRANCH   4   7
BRANCH   1  11
ATOM     10  C   LIG    1       -0.019   1.526   0.010  0.00  0.00    +0.006 C 
ATOM     11  C   LIG    1        0.002  -0.004   0.002  0.00  0.00    +0.024 C 
ENDBRANCH   1  11
TORSDOF 2
