REMARK  Name = ZINC13642311
REMARK                            x       y       z     vdW  Elec       q    Type
REMARK                         _______ _______ _______ _____ _____    ______ ____
ROOT
ATOM      1  C   LIG    1       -2.143   0.810  -0.917  0.00  0.00    -0.051 A 
ATOM      2  C   LIG    1       -2.443  -0.336  -1.626  0.00  0.00    +0.003 A 
ATOM      3  C   LIG    1       -3.683  -0.932  -1.488  0.00  0.00    +0.000 A 
ATOM      4  C   LIG    1       -4.631  -0.377  -0.647  0.00  0.00    +0.001 A 
ATOM      5  C   LIG    1       -4.340   0.771   0.061  0.00  0.00    +0.015 A 
ATOM      6  C   LIG    1       -3.093   1.371  -0.071  0.00  0.00    +0.014 A 
ENDROOT
BRANCH   1   7
ATOM      7  C   LIG    1       -0.789   1.456  -1.064  0.00  0.00    -0.046 C 
BRANCH   7   8
ATOM      8  N   LIG    1        0.056   1.075   0.084  0.00  0.00    +0.382 N 
ATOM      9  H   LIG    1        0.157   0.054   0.106  0.00  0.00    -0.085 HD
ATOM     10  H   LIG    1       -0.390   1.394   0.953  0.00  0.00    -0.085 HD
BRANCH   8  12
ATOM     11  C   LIG    1        2.241   1.283   1.168  0.00  0.00    -0.017 C 
ATOM     12  C   LIG    1        1.389   1.695  -0.034  0.00  0.00    -0.086 C 
ENDBRANCH   8  12
ENDBRANCH   7   8
ENDBRANCH   1   7
BRANCH   6  13
ATOM     13  S   LIG    1       -2.717   2.837   0.830  0.00  0.00    -0.087 S 
BRANCH  13  14
ATOM     14  C   LIG    1       -4.239   3.257   1.613  0.00  0.00    +0.033 A 
ATOM     15  C   LIG    1       -4.418   3.007   2.966  0.00  0.00    +0.017 A 
ATOM     16  C   LIG    1       -5.612   3.338   3.578  0.00  0.00    +0.004 A 
ATOM     17  C   LIG    1       -6.631   3.920   2.846  0.00  0.00    -0.049 A 
ATOM     18  C   LIG    1       -7.930   4.278   3.520  0.00  0.00    +0.044 C 
ATOM     19  C   LIG    1       -6.462   4.173   1.497  0.00  0.00    +0.027 A 
ATOM     20  C   LIG    1       -5.265   3.848   0.876  0.00  0.00    +0.039 A 
BRANCH  20  21
ATOM     21  N   LIG    1       -5.090   4.109  -0.488  0.00  0.00    -0.357 N 
ATOM     22  H   LIG    1       -5.804   4.520  -0.999  0.00  0.00    +0.142 HD
ATOM     23  H   LIG    1       -4.253   3.879  -0.922  0.00  0.00    +0.142 HD
ENDBRANCH  20  21
ENDBRANCH  13  14
ENDBRANCH   6  13
TORSDOF 6
