REMARK  Name = ZINC13641463
REMARK                            x       y       z     vdW  Elec       q    Type
REMARK                         _______ _______ _______ _____ _____    ______ ____
ROOT
ATOM      1  C   LIG    1        0.742  -0.549  -1.295  0.00  0.00    -0.015 C 
ENDROOT
BRANCH   1   3
ATOM      2  C   LIG    1       -0.302   1.541  -0.409  0.00  0.00    +0.008 C 
ATOM      3  C   LIG    1       -0.258   0.016  -0.284  0.00  0.00    -0.010 C 
BRANCH   3   4
ATOM      4  C   LIG    1        0.176  -0.367   1.132  0.00  0.00    -0.014 C 
ATOM      5  C   LIG    1        0.247  -1.891   1.248  0.00  0.00    +0.007 C 
ATOM      6  C   LIG    1       -0.839   0.174   2.140  0.00  0.00    +0.007 C 
ENDBRANCH   3   4
ENDBRANCH   1   3
BRANCH   1   7
ATOM      7  C   LIG    1        2.087   0.161  -1.134  0.00  0.00    -0.082 C 
BRANCH   7   8
ATOM      8  N   LIG    1        2.879  -0.519  -0.100  0.00  0.00    +0.378 N 
ATOM      9  H   LIG    1        3.751  -0.029   0.032  0.00  0.00    -0.090 HD
ATOM     10  H   LIG    1        3.066  -1.467  -0.389  0.00  0.00    -0.090 HD
ATOM     11  H   LIG    1        2.363  -0.527   0.767  0.00  0.00    -0.090 HD
ENDBRANCH   7   8
ENDBRANCH   1   7
BRANCH   1  12
ATOM     12  C   LIG    1        0.214  -0.326  -2.714  0.00  0.00    +0.122 C 
BRANCH  12  13
ATOM     13  C   LIG    1        1.114  -1.025  -3.700  0.00  0.00    +0.305 C 
ATOM     14  O   LIG    1        2.087  -1.644  -3.305  0.00  0.00    -0.251 OA
BRANCH  13  15
ATOM     15  O   LIG    1        0.869  -0.972  -4.893  0.00  0.00    -0.481 OA
ATOM     16  H   LIG    1        0.121  -0.496  -5.197  0.00  0.00    +0.295 HD
ENDBRANCH  13  15
ENDBRANCH  12  13
ENDBRANCH   1  12
TORSDOF 7
