REMARK  Name = ZINC13646007
REMARK                            x       y       z     vdW  Elec       q    Type
REMARK                         _______ _______ _______ _____ _____    ______ ____
ROOT
ATOM      1  S   LIG    1       -2.695   2.891   5.121  0.00  0.00    -0.087 S 
ENDROOT
BRANCH   1   7
ATOM      2  C   LIG    1       -2.275   5.174   6.572  0.00  0.00    -0.050 A 
ATOM      3  C   LIG    1       -1.649   6.376   6.836  0.00  0.00    +0.003 A 
ATOM      4  C   LIG    1       -0.650   6.837   5.998  0.00  0.00    +0.000 A 
ATOM      5  C   LIG    1       -0.274   6.095   4.892  0.00  0.00    +0.001 A 
ATOM      6  C   LIG    1       -0.891   4.890   4.625  0.00  0.00    +0.015 A 
ATOM      7  C   LIG    1       -1.899   4.426   5.462  0.00  0.00    +0.014 A 
BRANCH   2   8
ATOM      8  C   LIG    1       -3.363   4.673   7.486  0.00  0.00    -0.043 C 
BRANCH   8  10
ATOM      9  C   LIG    1       -5.702   4.049   7.505  0.00  0.00    -0.096 C 
ATOM     10  N   LIG    1       -4.666   4.841   6.809  0.00  0.00    +0.379 N 
ATOM     11  H   LIG    1       -4.585   4.506   5.841  0.00  0.00    -0.082 HD
ATOM     12  C   LIG    1       -5.047   6.269   6.793  0.00  0.00    -0.096 C 
ENDBRANCH   8  10
ENDBRANCH   2   8
ENDBRANCH   1   7
BRANCH   1  13
ATOM     13  C   LIG    1       -1.824   2.261   3.724  0.00  0.00    +0.033 A 
ATOM     14  C   LIG    1       -0.894   1.245   3.885  0.00  0.00    +0.017 A 
ATOM     15  C   LIG    1       -0.216   0.749   2.787  0.00  0.00    +0.007 A 
ATOM     16  C   LIG    1       -0.454   1.270   1.529  0.00  0.00    -0.020 A 
ATOM     17  C   LIG    1       -1.380   2.284   1.359  0.00  0.00    +0.029 A 
ATOM     18  C   LIG    1       -2.068   2.784   2.454  0.00  0.00    +0.039 A 
BRANCH  18  19
ATOM     19  N   LIG    1       -3.005   3.810   2.285  0.00  0.00    -0.357 N 
ATOM     20  H   LIG    1       -3.486   4.158   3.051  0.00  0.00    +0.142 HD
ATOM     21  H   LIG    1       -3.174   4.172   1.401  0.00  0.00    +0.142 HD
ENDBRANCH  18  19
BRANCH  16  22
ATOM     22  C   LIG    1        0.293   0.728   0.337  0.00  0.00    +0.191 C 
BRANCH  22  23
ATOM     23  O   LIG    1        1.498   1.474   0.151  0.00  0.00    -0.390 OA
ATOM     24  H   LIG    1        2.031   1.179  -0.600  0.00  0.00    +0.210 HD
ENDBRANCH  22  23
ENDBRANCH  16  22
ENDBRANCH   1  13
TORSDOF 7
