REMARK  Name = ZINC13687069
REMARK                            x       y       z     vdW  Elec       q    Type
REMARK                         _______ _______ _______ _____ _____    ______ ____
ROOT
ATOM      1  C   LIG    1        2.539  -2.743  -0.452  0.00  0.00    +0.058 C 
ATOM      2  C   LIG    1        1.179  -2.196  -0.019  0.00  0.00    +0.054 C 
ATOM      3  C   LIG    1        1.208  -0.689  -0.015  0.00  0.00    -0.041 A 
ATOM      4  C   LIG    1        0.002  -0.004   0.002  0.00  0.00    +0.005 A 
ATOM      5  C   LIG    1       -0.017   1.376   0.010  0.00  0.00    +0.015 A 
ATOM      6  C   LIG    1        1.174   2.080   0.002  0.00  0.00    +0.018 A 
ATOM      7 BR   LIG    1        1.157   3.971   0.014  0.00  0.00    -0.050 Br
ATOM      8  C   LIG    1        2.376   1.399  -0.015  0.00  0.00    +0.020 A 
ATOM      9  C   LIG    1        2.395   0.012  -0.025  0.00  0.00    -0.029 A 
ATOM     10  C   LIG    1        3.730  -0.686  -0.050  0.00  0.00    +0.117 C 
ATOM     11  N   LIG    1        3.583  -2.088   0.353  0.00  0.00    -0.309 NA
ATOM     12  H   LIG    1        3.307  -2.130   1.417  0.00  0.00    +0.123 HD
ENDROOT
BRANCH   1  14
ATOM     13  C   LIG    1        3.896  -4.817  -0.767  0.00  0.00    +0.005 C 
ATOM     14  C   LIG    1        2.583  -4.255  -0.219  0.00  0.00    +0.015 C 
ENDBRANCH   1  14
TORSDOF 1
