REMARK  Name = ZINC13741432
REMARK                            x       y       z     vdW  Elec       q    Type
REMARK                         _______ _______ _______ _____ _____    ______ ____
ROOT
ATOM      1  C   LIG    1       -1.378   3.077  -1.139  0.00  0.00    +0.086 A 
ATOM      2  C   LIG    1       -2.416   3.027  -2.054  0.00  0.00    +0.134 A 
ATOM      3  C   LIG    1       -2.418   3.951  -3.116  0.00  0.00    +0.033 A 
ATOM      4  C   LIG    1       -1.413   4.847  -3.235  0.00  0.00    +0.116 A 
ATOM      5  C   LIG    1       -1.461   5.783  -4.413  0.00  0.00    +0.075 C 
ATOM      6  C   LIG    1       -2.318   6.981  -4.159  0.00  0.00    +0.008 C 
ATOM      7  C   LIG    1       -3.820   6.818  -4.274  0.00  0.00    +0.000 C 
ATOM      8  C   LIG    1       -4.373   6.058  -3.055  0.00  0.00    +0.000 C 
ATOM      9  C   LIG    1       -4.756   4.628  -3.522  0.00  0.00    +0.005 C 
ATOM     10  O   LIG    1       -0.414   4.888  -2.347  0.00  0.00    -0.427 OA
ATOM     11  C   LIG    1       -3.524   3.967  -4.138  0.00  0.00    +0.042 C 
ATOM     12  C   LIG    1       -0.369   4.032  -1.310  0.00  0.00    +0.344 A 
ATOM     13  O   LIG    1        0.555   4.090  -0.515  0.00  0.00    -0.245 OA
ENDROOT
BRANCH   2  14
ATOM     14  O   LIG    1       -3.407   2.113  -1.928  0.00  0.00    -0.506 OA
ATOM     15  H   LIG    1       -4.157   2.418  -1.399  0.00  0.00    +0.292 HD
ENDBRANCH   2  14
BRANCH   1  16
ATOM     16  C   LIG    1       -1.332   2.114   0.020  0.00  0.00    +0.059 C 
BRANCH  16  17
ATOM     17  C   LIG    1       -0.136   1.208  -0.127  0.00  0.00    -0.040 A 
ATOM     18  C   LIG    1       -0.273  -0.023  -0.739  0.00  0.00    +0.004 A 
ATOM     19  C   LIG    1        0.823  -0.857  -0.867  0.00  0.00    +0.000 A 
ATOM     20  C   LIG    1        2.055  -0.457  -0.385  0.00  0.00    +0.000 A 
ATOM     21  C   LIG    1        2.192   0.774   0.227  0.00  0.00    +0.000 A 
ATOM     22  C   LIG    1        1.096   1.607   0.357  0.00  0.00    +0.004 A 
ENDBRANCH  16  17
BRANCH  16  24
ATOM     23  C   LIG    1       -2.493   3.722   1.539  0.00  0.00    +0.005 C 
ATOM     24  C   LIG    1       -1.221   2.897   1.330  0.00  0.00    +0.010 C 
ENDBRANCH  16  24
ENDBRANCH   1  16
TORSDOF 4
