REMARK  Name = ZINC13579603
REMARK                            x       y       z     vdW  Elec       q    Type
REMARK                         _______ _______ _______ _____ _____    ______ ____
ROOT
ATOM      1  C   LIG    1        0.990   7.382   0.027  0.00  0.00    +0.170 C 
ATOM      2  C   LIG    1        2.342   8.092   0.137  0.00  0.00    +0.119 C 
ATOM      3  N   LIG    1        2.134   9.546   0.068  0.00  0.00    -0.293 NA
ATOM      4  C   LIG    1        1.470   9.917  -1.191  0.00  0.00    +0.113 C 
ATOM      5  C   LIG    1        0.127   9.189  -1.288  0.00  0.00    +0.175 C 
ATOM      6  O   LIG    1        0.346   7.779  -1.187  0.00  0.00    -0.371 OA
ENDROOT
BRANCH   1   7
ATOM      7  C   LIG    1        1.207   5.868   0.018  0.00  0.00    +0.262 C 
BRANCH   7   8
ATOM      8  O   LIG    1       -0.059   5.205   0.028  0.00  0.00    -0.486 OA
BRANCH   8  14
ATOM      9  C   LIG    1       -1.240   3.135   0.030  0.00  0.00    +0.161 A 
ATOM     10  C   LIG    1       -1.220   1.749   0.017  0.00  0.00    +0.049 A 
ATOM     11  C   LIG    1       -0.013   1.076   0.008  0.00  0.00    +0.004 A 
ATOM     12  C   LIG    1        1.176   1.782   0.000  0.00  0.00    +0.004 A 
ATOM     13  C   LIG    1        1.163   3.164   0.007  0.00  0.00    +0.049 A 
ATOM     14  C   LIG    1       -0.044   3.845   0.022  0.00  0.00    +0.162 A 
BRANCH   9  16
ATOM     15  C   LIG    1       -3.615   3.004   0.052  0.00  0.00    +0.277 C 
ATOM     16  O   LIG    1       -2.427   3.799   0.044  0.00  0.00    -0.491 OA
ENDBRANCH   9  16
ENDBRANCH   8  14
ENDBRANCH   7   8
ENDBRANCH   1   7
BRANCH   3  17
ATOM     17  C   LIG    1        3.403  10.268   0.227  0.00  0.00    +0.119 C 
BRANCH  17  18
ATOM     18  C   LIG    1        4.373   9.819  -0.836  0.00  0.00    -0.033 A 
ATOM     19  C   LIG    1        5.221   8.754  -0.592  0.00  0.00    +0.006 A 
ATOM     20  C   LIG    1        6.106   8.338  -1.568  0.00  0.00    +0.020 A 
ATOM     21  C   LIG    1        6.152   8.995  -2.785  0.00  0.00    +0.041 A 
ATOM     22 CL   LIG    1        7.270   8.478  -4.009  0.00  0.00    -0.084 Cl
ATOM     23  C   LIG    1        5.308  10.064  -3.026  0.00  0.00    +0.020 A 
ATOM     24  C   LIG    1        4.419  10.475  -2.051  0.00  0.00    +0.006 A 
ENDBRANCH  17  18
ENDBRANCH   3  17
TORSDOF 6
