REMARK  Name = ZINC13611722
REMARK                            x       y       z     vdW  Elec       q    Type
REMARK                         _______ _______ _______ _____ _____    ______ ____
ROOT
ATOM      1  C   LIG    1        0.658  -0.603   3.669  0.00  0.00    -0.024 A 
ATOM      2  C   LIG    1        0.437  -1.759   4.313  0.00  0.00    +0.087 A 
ATOM      3  N   LIG    1        1.290  -1.872   5.376  0.00  0.00    -0.360 N 
ATOM      4  C   LIG    1        2.103  -0.760   5.444  0.00  0.00    +0.047 A 
ATOM      5  C   LIG    1        3.121  -0.373   6.309  0.00  0.00    +0.028 A 
ATOM      6  C   LIG    1        3.780   0.820   6.108  0.00  0.00    +0.026 A 
ATOM      7  C   LIG    1        3.426   1.656   5.051  0.00  0.00    +0.049 A 
ATOM      8  C   LIG    1        2.413   1.292   4.184  0.00  0.00    +0.034 A 
ATOM      9  H   LIG    1        1.319  -2.622   5.991  0.00  0.00    +0.165 HD
ATOM     10  C   LIG    1        1.746   0.080   4.373  0.00  0.00    +0.005 A 
ENDROOT
BRANCH   7  11
ATOM     11  N   LIG    1        4.099   2.870   4.867  0.00  0.00    -0.216 N 
ATOM     12  H   LIG    1        3.850   3.462   4.120  0.00  0.00    +0.174 HD
BRANCH  11  13
ATOM     13  S   LIG    1        5.312   3.310   5.904  0.00  0.00    +0.072 S 
ATOM     14  O   LIG    1        6.368   2.379   5.711  0.00  0.00    -0.150 OA
ATOM     15  O   LIG    1        4.706   3.522   7.171  0.00  0.00    -0.150 OA
BRANCH  13  16
ATOM     16  C   LIG    1        5.916   4.875   5.365  0.00  0.00    +0.109 A 
ATOM     17  C   LIG    1        6.957   4.928   4.440  0.00  0.00    +0.029 A 
ATOM     18  C   LIG    1        7.447   6.120   4.004  0.00  0.00    +0.012 A 
ATOM     19  C   LIG    1        6.897   7.318   4.491  0.00  0.00    +0.001 A 
ATOM     20  C   LIG    1        5.838   7.264   5.432  0.00  0.00    -0.015 A 
ATOM     21  C   LIG    1        5.288   8.462   5.918  0.00  0.00    +0.008 A 
ATOM     22  C   LIG    1        5.777   9.655   5.482  0.00  0.00    +0.002 A 
ATOM     23  C   LIG    1        6.817   9.709   4.557  0.00  0.00    +0.020 A 
ATOM     24  C   LIG    1        7.376   8.569   4.063  0.00  0.00    +0.049 A 
ATOM     25 CL   LIG    1        8.672   8.660   2.912  0.00  0.00    -0.083 Cl
ATOM     26  C   LIG    1        5.355   6.014   5.855  0.00  0.00    +0.037 A 
ENDBRANCH  13  16
ENDBRANCH  11  13
ENDBRANCH   7  11
BRANCH   1  27
ATOM     27  C   LIG    1       -0.071  -0.103   2.448  0.00  0.00    +0.018 C 
BRANCH  27  28
ATOM     28  C   LIG    1        0.713  -0.491   1.192  0.00  0.00    -0.075 C 
BRANCH  28  30
ATOM     29  C   LIG    1       -0.018   1.465   0.010  0.00  0.00    -0.097 C 
ATOM     30  N   LIG    1        0.002  -0.004   0.002  0.00  0.00    +0.376 N 
ATOM     31  H   LIG    1       -0.945  -0.353   0.009  0.00  0.00    -0.083 HD
ATOM     32  C   LIG    1        0.690  -0.478  -1.207  0.00  0.00    -0.097 C 
ENDBRANCH  28  30
ENDBRANCH  27  28
ENDBRANCH   1  27
TORSDOF 6
