REMARK  Name = ZINC13641448
REMARK                            x       y       z     vdW  Elec       q    Type
REMARK                         _______ _______ _______ _____ _____    ______ ____
ROOT
ATOM      1  C   LIG    1        0.883  -0.559   1.241  0.00  0.00    -0.015 C 
ENDROOT
BRANCH   1   3
ATOM      2  C   LIG    1        1.196   1.484  -0.163  0.00  0.00    -0.014 C 
ATOM      3  C   LIG    1        0.611   0.070  -0.127  0.00  0.00    -0.075 C 
BRANCH   3   4
ATOM      4  N   LIG    1        1.239  -0.746  -1.175  0.00  0.00    +0.380 N 
ATOM      5  H   LIG    1        0.982  -0.385  -2.081  0.00  0.00    -0.090 HD
ATOM      6  H   LIG    1        0.924  -1.701  -1.091  0.00  0.00    -0.090 HD
ATOM      7  H   LIG    1        2.242  -0.713  -1.071  0.00  0.00    -0.090 HD
ENDBRANCH   3   4
ENDBRANCH   1   3
BRANCH   1   8
ATOM      8  C   LIG    1        0.136   0.226   2.321  0.00  0.00    +0.122 C 
BRANCH   8   9
ATOM      9  C   LIG    1       -1.349   0.087   2.106  0.00  0.00    +0.305 C 
ATOM     10  O   LIG    1       -1.771  -0.578   1.175  0.00  0.00    -0.251 OA
BRANCH   9  11
ATOM     11  O   LIG    1       -2.129   0.640   2.863  0.00  0.00    -0.481 OA
ATOM     12  H   LIG    1       -1.805   1.151   3.578  0.00  0.00    +0.295 HD
ENDBRANCH   9  11
ENDBRANCH   8   9
ENDBRANCH   1   8
BRANCH   1  13
ATOM     13  C   LIG    1        2.385  -0.522   1.531  0.00  0.00    +0.005 C 
BRANCH  13  14
ATOM     14  C   LIG    1        2.672  -1.274   2.832  0.00  0.00    -0.017 C 
ATOM     15  C   LIG    1        4.151  -1.120   3.194  0.00  0.00    +0.007 C 
ATOM     16  C   LIG    1        2.345  -2.757   2.646  0.00  0.00    +0.007 C 
ENDBRANCH  13  14
ENDBRANCH   1  13
TORSDOF 7
