REMARK  Name = ZINC13686650
REMARK                            x       y       z     vdW  Elec       q    Type
REMARK                         _______ _______ _______ _____ _____    ______ ____
ROOT
ATOM      1  C   LIG    1       -0.772   1.460   3.762  0.00  0.00    +0.049 C 
ENDROOT
BRANCH   1   2
ATOM      2  C   LIG    1       -0.110   0.856   4.974  0.00  0.00    -0.046 A 
ATOM      3  C   LIG    1       -0.487  -0.401   5.413  0.00  0.00    +0.004 A 
ATOM      4  C   LIG    1        0.119  -0.965   6.521  0.00  0.00    +0.001 A 
ATOM      5  C   LIG    1        1.098  -0.271   7.202  0.00  0.00    +0.015 A 
ATOM      6  C   LIG    1        1.480   0.999   6.768  0.00  0.00    +0.059 A 
ATOM      7  C   LIG    1        0.867   1.560   5.646  0.00  0.00    +0.018 A 
BRANCH   6   8
ATOM      8  C   LIG    1        2.527   1.748   7.494  0.00  0.00    +0.337 C 
ATOM      9  O   LIG    1        2.857   2.853   7.114  0.00  0.00    -0.245 OA
BRANCH   8  10
ATOM     10  O   LIG    1        3.116   1.204   8.576  0.00  0.00    -0.477 OA
ATOM     11  H   LIG    1        2.862   0.351   8.869  0.00  0.00    +0.295 HD
ENDBRANCH   8  10
ENDBRANCH   6   8
ENDBRANCH   1   2
BRANCH   1  12
ATOM     12  C   LIG    1        0.011   1.072   2.506  0.00  0.00    +0.102 C 
BRANCH  12  13
ATOM     13  C   LIG    1        1.384   1.692   2.560  0.00  0.00    +0.310 C 
ATOM     14  O   LIG    1        1.734   2.460   1.696  0.00  0.00    -0.251 OA
BRANCH  13  16
ATOM     15  C   LIG    1        3.524   2.024   3.555  0.00  0.00    +0.280 C 
ATOM     16  O   LIG    1        2.217   1.390   3.568  0.00  0.00    -0.468 OA
ENDBRANCH  13  16
ENDBRANCH  12  13
BRANCH  12  17
ATOM     17  C   LIG    1       -0.729   1.579   1.267  0.00  0.00    +0.016 C 
BRANCH  17  18
ATOM     18  C   LIG    1       -0.013   1.086   0.008  0.00  0.00    +0.011 C 
BRANCH  18  19
ATOM     19  C   LIG    1       -0.753   1.593  -1.232  0.00  0.00    +0.065 C 
BRANCH  19  20
ATOM     20  S   LIG    1        0.096   1.008  -2.724  0.00  0.00    -0.178 S 
ATOM     21  H   LIG    1       -0.637   1.510  -3.733  0.00  0.00    +0.102 HD
ENDBRANCH  19  20
ENDBRANCH  18  19
ENDBRANCH  17  18
ENDBRANCH  12  17
ENDBRANCH   1  12
TORSDOF 10
