REMARK  Name = ZINC13686598
REMARK                            x       y       z     vdW  Elec       q    Type
REMARK                         _______ _______ _______ _____ _____    ______ ____
ROOT
ATOM      1  C   LIG    1       -1.389  -0.445  -4.441  0.00  0.00    +0.001 A 
ATOM      2  C   LIG    1       -1.093  -1.020  -3.217  0.00  0.00    +0.004 A 
ATOM      3  C   LIG    1        0.090  -0.713  -2.570  0.00  0.00    -0.046 A 
ATOM      4  C   LIG    1        0.984   0.169  -3.142  0.00  0.00    +0.018 A 
ATOM      5  C   LIG    1        0.693   0.752  -4.376  0.00  0.00    +0.059 A 
ATOM      6  C   LIG    1       -0.504   0.438  -5.024  0.00  0.00    +0.015 A 
ENDROOT
BRANCH   5   7
ATOM      7  C   LIG    1        1.645   1.696  -4.995  0.00  0.00    +0.337 C 
ATOM      8  O   LIG    1        2.685   1.967  -4.429  0.00  0.00    -0.245 OA
BRANCH   7   9
ATOM      9  O   LIG    1        1.361   2.257  -6.186  0.00  0.00    -0.477 OA
ATOM     10  H   LIG    1        0.558   2.048  -6.623  0.00  0.00    +0.295 HD
ENDBRANCH   7   9
ENDBRANCH   5   7
BRANCH   3  11
ATOM     11  C   LIG    1        0.403  -1.342  -1.237  0.00  0.00    +0.050 C 
BRANCH  11  12
ATOM     12  C   LIG    1        1.080  -2.696  -1.459  0.00  0.00    +0.111 C 
BRANCH  12  13
ATOM     13  C   LIG    1        2.419  -2.487  -2.118  0.00  0.00    +0.309 C 
ATOM     14  O   LIG    1        3.283  -1.864  -1.546  0.00  0.00    -0.251 OA
BRANCH  13  15
ATOM     15  O   LIG    1        2.653  -2.992  -3.339  0.00  0.00    -0.480 OA
ATOM     16  H   LIG    1        1.983  -3.475  -3.782  0.00  0.00    +0.295 HD
ENDBRANCH  13  15
ENDBRANCH  12  13
BRANCH  12  17
ATOM     17  C   LIG    1        1.278  -3.395  -0.112  0.00  0.00    +0.080 C 
BRANCH  17  18
ATOM     18  S   LIG    1       -0.340  -3.793   0.606  0.00  0.00    -0.177 S 
ATOM     19  H   LIG    1       -0.039  -4.395   1.770  0.00  0.00    +0.102 HD
ENDBRANCH  17  18
ENDBRANCH  12  17
ENDBRANCH  11  12
ENDBRANCH   3  11
TORSDOF 8
