REMARK  Name = ZINC13590038
REMARK                            x       y       z     vdW  Elec       q    Type
REMARK                         _______ _______ _______ _____ _____    ______ ____
ROOT
ATOM      1  C   LIG    1        1.439   1.623   2.510  0.00  0.00    +0.004 C 
ATOM      2  C   LIG    1        0.008   1.080   2.509  0.00  0.00    +0.002 C 
ATOM      3  C   LIG    1       -0.729   1.579   1.266  0.00  0.00    -0.025 C 
ATOM      4  C   LIG    1       -0.013   1.086   0.008  0.00  0.00    -0.078 C 
ATOM      5  N   LIG    1       -0.723   1.573  -1.182  0.00  0.00    +0.388 N 
ATOM      6  H1  LIG    1       -1.763   1.214  -1.160  0.00  0.00    -0.085 HD
ATOM      7  H2  LIG    1       -0.224   1.196  -2.087  0.00  0.00    -0.085 HD
ATOM      8  CA  LIG    1       -0.736   3.040  -1.232  0.00  0.00    +0.039 C 
ATOM      9  C   LIG    1       -1.472   3.589  -0.007  0.00  0.00    -0.001 C 
ATOM     10  C   LIG    1       -0.761   3.110   1.263  0.00  0.00    -0.010 C 
ATOM     11  C   LIG    1        0.671   3.650   1.269  0.00  0.00    +0.007 C 
ATOM     12  C   LIG    1        1.401   3.152   2.518  0.00  0.00    -0.010 C 
ENDROOT
BRANCH   8  13
ATOM     13  C   LIG    1       -1.440   3.493  -2.485  0.00  0.00    +0.291 C 
ATOM     14  O   LIG    1       -2.187   2.740  -3.064  0.00  0.00    -0.253 OA
BRANCH  13  15
ATOM     15  OXT LIG    1       -1.237   4.733  -2.957  0.00  0.00    -0.482 OA
ATOM     16  HXT LIG    1       -0.658   5.317  -2.508  0.00  0.00    +0.295 HD
ENDBRANCH  13  15
ENDBRANCH   8  13
BRANCH  12  17
ATOM     17  C   LIG    1        2.831   3.697   2.524  0.00  0.00    +0.011 C 
BRANCH  17  18
ATOM     18  C   LIG    1        3.522   3.303   3.831  0.00  0.00    +0.080 C 
BRANCH  18  19
ATOM     19  C   LIG    1        4.930   3.839   3.837  0.00  0.00    +0.174 A 
ATOM     20  N   LIG    1        5.325   5.027   4.298  0.00  0.00    -0.113 NA
ATOM     21  N   LIG    1        6.601   5.102   4.122  0.00  0.00    -0.049 NA
ATOM     22  N   LIG    1        7.006   4.015   3.564  0.00  0.00    -0.176 N 
ATOM     23  H   LIG    1        8.011   3.700   3.245  0.00  0.00    +0.214 HD
ATOM     24  N   LIG    1        6.000   3.228   3.392  0.00  0.00    -0.138 NA
ENDBRANCH  18  19
ENDBRANCH  17  18
ENDBRANCH  12  17
TORSDOF 5
