REMARK  Name = ZINC13732808
REMARK                            x       y       z     vdW  Elec       q    Type
REMARK                         _______ _______ _______ _____ _____    ______ ____
ROOT
ATOM      1  C   LIG    1        2.003   6.436   2.982  0.00  0.00    +0.138 C 
ATOM      2  N   LIG    1        1.647   5.952   1.645  0.00  0.00    -0.271 N 
ATOM      3  C   LIG    1        2.651   5.368   0.889  0.00  0.00    +0.045 A 
ATOM      4  C   LIG    1        3.915   5.961   0.933  0.00  0.00    +0.024 A 
ATOM      5  C   LIG    1        4.963   5.435   0.210  0.00  0.00    +0.002 A 
ATOM      6  C   LIG    1        4.772   4.306  -0.570  0.00  0.00    +0.001 A 
ATOM      7  C   LIG    1        3.534   3.709  -0.625  0.00  0.00    +0.012 A 
ATOM      8  C   LIG    1        2.455   4.233   0.110  0.00  0.00    +0.022 A 
ATOM      9  C   LIG    1        1.159   3.546  -0.005  0.00  0.00    +0.077 C 
ATOM     10  N   LIG    1        0.019   4.135  -0.088  0.00  0.00    -0.251 NA
ATOM     11  C   LIG    1       -0.099   5.593  -0.076  0.00  0.00    +0.280 C 
ATOM     12  C   LIG    1        0.385   6.109   1.252  0.00  0.00    +0.262 C 
ATOM     13  O   LIG    1       -0.394   6.683   1.982  0.00  0.00    -0.271 OA
ENDROOT
BRANCH   9  14
ATOM     14  C   LIG    1        1.168   2.064  -0.020  0.00  0.00    +0.001 A 
ATOM     15  C   LIG    1        2.223   1.364   0.564  0.00  0.00    +0.010 A 
ATOM     16  C   LIG    1        2.225  -0.015   0.547  0.00  0.00    +0.001 A 
ATOM     17  C   LIG    1        1.183  -0.704  -0.048  0.00  0.00    +0.000 A 
ATOM     18  C   LIG    1        0.134  -0.015  -0.630  0.00  0.00    +0.001 A 
ATOM     19  C   LIG    1        0.121   1.364  -0.619  0.00  0.00    +0.010 A 
ENDBRANCH   9  14
BRANCH  11  20
ATOM     20  N   LIG    1       -1.501   5.973  -0.268  0.00  0.00    -0.270 N 
ATOM     21  H   LIG    1       -2.135   5.872   0.459  0.00  0.00    +0.153 HD
ATOM     22  C   LIG    1       -1.909   6.462  -1.456  0.00  0.00    +0.306 C 
ATOM     23  N   LIG    1       -3.199   6.811  -1.633  0.00  0.00    -0.269 N 
ATOM     24  H   LIG    1       -3.816   6.785  -0.885  0.00  0.00    +0.156 HD
ATOM     25  O   LIG    1       -1.115   6.588  -2.367  0.00  0.00    -0.252 OA
BRANCH  23  26
ATOM     26  C   LIG    1       -3.648   7.213  -2.897  0.00  0.00    +0.036 A 
ATOM     27  C   LIG    1       -3.118   6.629  -4.040  0.00  0.00    +0.025 A 
ATOM     28  C   LIG    1       -3.563   7.026  -5.286  0.00  0.00    +0.023 A 
ATOM     29  C   LIG    1       -4.536   8.004  -5.396  0.00  0.00    +0.059 A 
ATOM     30 CL   LIG    1       -5.093   8.500  -6.964  0.00  0.00    -0.082 Cl
ATOM     31  C   LIG    1       -5.066   8.588  -4.258  0.00  0.00    +0.061 A 
ATOM     32 CL   LIG    1       -6.286   9.814  -4.399  0.00  0.00    -0.082 Cl
ATOM     33  C   LIG    1       -4.628   8.190  -3.008  0.00  0.00    +0.044 A 
ENDBRANCH  23  26
ENDBRANCH  11  20
TORSDOF 3
