REMARK  Name = ZINC13612559
REMARK                            x       y       z     vdW  Elec       q    Type
REMARK                         _______ _______ _______ _____ _____    ______ ____
ROOT
ATOM      1  C   UNK A  0       -1.525   3.898  -0.035  0.00  0.00    -0.048 C 
ATOM      2  N   UNK A  1       -0.792   3.408  -1.219  0.00  0.00    +0.386 N 
ATOM      3  H   UNK A  1       -1.262   3.741  -2.069  0.00  0.00    -0.085 HD
ATOM      4  H   UNK A  1        0.169   3.768  -1.195  0.00  0.00    -0.085 HD
ATOM      5  C   UNK A  1       -0.759   1.933  -1.229  0.00  0.00    -0.014 C 
ATOM      6  C   UNK A  1       -0.017   1.425   0.010  0.00  0.00    +0.134 C 
ATOM      7  C   UNK A  1       -0.736   1.919   1.268  0.00  0.00    +0.168 C 
ATOM      8  C   UNK A  1       -0.806   3.449   1.239  0.00  0.00    +0.128 C 
ENDROOT
BRANCH   6   9
ATOM      9  O   UNK A  1        0.002  -0.004   0.002  0.00  0.00    -0.391 OA
ATOM     10  H   UNK A  1        0.456  -0.395   0.761  0.00  0.00    +0.210 HD
ENDBRANCH   6   9
BRANCH   7  11
ATOM     11  O   UNK A  1       -0.015   1.496   2.427  0.00  0.00    -0.387 OA
ATOM     12  H   UNK A  1       -0.414   1.775   3.263  0.00  0.00    +0.210 HD
ENDBRANCH   7  11
BRANCH   8  13
ATOM     13  O   UNK A  1       -1.525   3.916   2.382  0.00  0.00    -0.391 OA
ATOM     14  H   UNK A  1       -1.610   4.878   2.427  0.00  0.00    +0.210 HD
ENDBRANCH   8  13
BRANCH   5  15
ATOM     15  C   UNK A  1       -0.032   1.458  -2.489  0.00  0.00    +0.143 C 
BRANCH  15  16
ATOM     16  O   UNK A  1       -0.786   1.832  -3.643  0.00  0.00    -0.397 OA
ATOM     17  H   UNK A  1       -0.384   1.562  -4.480  0.00  0.00    +0.209 HD
ENDBRANCH  15  16
ENDBRANCH   5  15
TORSDOF 5
