REMARK  Name = ZINC13588700
REMARK                            x       y       z     vdW  Elec       q    Type
REMARK                         _______ _______ _______ _____ _____    ______ ____
ROOT
ATOM      1  C   LIG    1       -0.013   1.086   0.008  0.00  0.00    +0.034 C 
ATOM      2  C   LIG    1       -0.729   1.579   1.267  0.00  0.00    +0.118 C 
ATOM      3  C   LIG    1        0.035   1.147   2.543  0.00  0.00    +0.256 C 
ATOM      4  O   LIG    1        0.842   2.315   2.799  0.00  0.00    -0.465 OA
ATOM      5  C   LIG    1        0.222   3.373   2.241  0.00  0.00    +0.253 C 
ATOM      6  N   LIG    1       -0.676   3.051   1.361  0.00  0.00    -0.338 N 
ATOM      7  H   LIG    1       -1.240   3.837   0.837  0.00  0.00    +0.164 HD
ENDROOT
BRANCH   5   8
ATOM      8  N   LIG    1        0.515   4.674   2.572  0.00  0.00    -0.315 N 
ATOM      9  H   LIG    1        1.287   4.889   3.325  0.00  0.00    +0.147 HD
ATOM     10  H   LIG    1       -0.023   5.500   2.083  0.00  0.00    +0.147 HD
ENDBRANCH   5   8
TORSDOF 1
