REMARK  Name = ZINC13642335
REMARK                            x       y       z     vdW  Elec       q    Type
REMARK                         _______ _______ _______ _____ _____    ______ ____
ROOT
ATOM      1  C   LIG    1        7.378  -2.806  -0.091  0.00  0.00    +0.247 C 
ATOM      2  N   LIG    1        8.494  -2.227   0.394  0.00  0.00    -0.281 N 
ATOM      3  C   LIG    1        8.438  -0.911   1.050  0.00  0.00    +0.124 C 
ATOM      4  C   LIG    1        9.148  -1.012   2.404  0.00  0.00    +0.100 C 
ATOM      5  N   LIG    1       10.500  -1.550   2.205  0.00  0.00    -0.301 NA
ATOM      6  H   LIG    1       11.047  -0.944   1.612  0.00  0.00    +0.123 HD
ATOM      7  CA  LIG    1       10.457  -2.916   1.665  0.00  0.00    +0.195 C 
ATOM      8  C   LIG    1        9.799  -2.896   0.286  0.00  0.00    +0.213 C 
ATOM      9  O   LIG    1        7.422  -3.939  -0.530  0.00  0.00    -0.270 OA
ENDROOT
BRANCH   1  19
ATOM     10  C   LIG    1        0.004   1.397  -0.065  0.00  0.00    +0.001 A 
ATOM     11  C   LIG    1        1.170   2.087  -0.379  0.00  0.00    +0.001 A 
ATOM     12  C   LIG    1        2.377   1.448  -0.393  0.00  0.00    +0.009 A 
ATOM     13  C   LIG    1        2.442   0.086  -0.090  0.00  0.00    -0.010 A 
ATOM     14  C   LIG    1        1.259  -0.618   0.230  0.00  0.00    -0.017 A 
ATOM     15  C   LIG    1        1.321  -1.997   0.536  0.00  0.00    +0.009 A 
ATOM     16  C   LIG    1        2.492  -2.666   0.532  0.00  0.00    +0.009 A 
ATOM     17  C   LIG    1        3.711  -2.018   0.221  0.00  0.00    -0.017 A 
ATOM     18  C   LIG    1        4.919  -2.725   0.221  0.00  0.00    +0.021 A 
ATOM     19  C   LIG    1        6.099  -2.064  -0.088  0.00  0.00    +0.038 A 
ATOM     20  C   LIG    1        6.087  -0.696  -0.399  0.00  0.00    +0.014 A 
ATOM     21  C   LIG    1        4.918   0.004  -0.402  0.00  0.00    +0.010 A 
ATOM     22  C   LIG    1        3.716  -0.639  -0.094  0.00  0.00    -0.010 A 
ATOM     23  C   LIG    1        0.036   0.067   0.235  0.00  0.00    +0.008 A 
ENDBRANCH   1  19
BRANCH   7  24
ATOM     24  C   LIG    1       11.858  -3.456   1.549  0.00  0.00    +0.324 C 
ATOM     25  O   LIG    1       12.807  -2.767   1.885  0.00  0.00    -0.249 OA
BRANCH  24  26
ATOM     26  OXT LIG    1       12.044  -4.581   1.119  0.00  0.00    -0.479 OA
ATOM     27  HXT LIG    1       11.316  -5.111   0.861  0.00  0.00    +0.295 HD
ENDBRANCH  24  26
ENDBRANCH   7  24
BRANCH   8  28
ATOM     28  C   LIG    1       10.677  -2.140  -0.678  0.00  0.00    +0.328 C 
ATOM     29  O   LIG    1       10.432  -0.987  -0.942  0.00  0.00    -0.249 OA
BRANCH  28  30
ATOM     30  O   LIG    1       11.732  -2.748  -1.242  0.00  0.00    -0.479 OA
ATOM     31  H   LIG    1       12.235  -2.184  -1.845  0.00  0.00    +0.295 HD
ENDBRANCH  28  30
ENDBRANCH   8  28
TORSDOF 5
