REMARK  Name = ZINC13742268
REMARK                            x       y       z     vdW  Elec       q    Type
REMARK                         _______ _______ _______ _____ _____    ______ ____
ROOT
ATOM      1  C   LIG    1       -2.438   3.866   0.053  0.00  0.00    +0.136 A 
ATOM      2  C   LIG    1       -1.226   3.130   0.058  0.00  0.00    +0.041 A 
ATOM      3  C   LIG    1       -1.209   1.731   0.058  0.00  0.00    +0.013 A 
ATOM      4  C   LIG    1       -0.013   1.074   0.069  0.00  0.00    +0.001 A 
ATOM      5  C   LIG    1        1.188   1.776   0.067  0.00  0.00    +0.002 A 
ATOM      6  C   LIG    1        1.205   3.140   0.062  0.00  0.00    +0.028 A 
ATOM      7  C   LIG    1       -0.005   3.847   0.057  0.00  0.00    +0.078 A 
ATOM      8  N   LIG    1       -0.043   5.187   0.051  0.00  0.00    -0.215 NA
ATOM      9  C   LIG    1       -1.199   5.823   0.046  0.00  0.00    +0.215 A 
ATOM     10  N   LIG    1       -2.369   5.189   0.047  0.00  0.00    -0.199 NA
ENDROOT
BRANCH   9  11
ATOM     11  N   LIG    1       -1.195   7.206   0.040  0.00  0.00    -0.327 N 
ATOM     12  H   LIG    1       -2.033   7.694   0.036  0.00  0.00    +0.145 HD
ATOM     13  H   LIG    1       -0.353   7.688   0.040  0.00  0.00    +0.145 HD
ENDBRANCH   9  11
BRANCH   1  14
ATOM     14  N   LIG    1       -3.657   3.222   0.054  0.00  0.00    -0.299 N 
ATOM     15  H   LIG    1       -3.696   2.256  -0.028  0.00  0.00    +0.154 HD
BRANCH  14  22
ATOM     16  C   LIG    1       -6.059   2.091  -0.970  0.00  0.00    +0.045 C 
ATOM     17  C   LIG    1       -6.033   3.446  -0.311  0.00  0.00    -0.029 A 
ATOM     18  C   LIG    1       -7.198   4.179  -0.191  0.00  0.00    +0.005 A 
ATOM     19  C   LIG    1       -7.175   5.422   0.414  0.00  0.00    +0.000 A 
ATOM     20  C   LIG    1       -5.987   5.936   0.900  0.00  0.00    +0.002 A 
ATOM     21  C   LIG    1       -4.820   5.207   0.787  0.00  0.00    +0.023 A 
ATOM     22  C   LIG    1       -4.838   3.960   0.175  0.00  0.00    +0.035 A 
ENDBRANCH  14  22
ENDBRANCH   1  14
TORSDOF 3
