REMARK  Name = ZINC13679981
REMARK                            x       y       z     vdW  Elec       q    Type
REMARK                         _______ _______ _______ _____ _____    ______ ____
ROOT
ATOM      1  C   LIG    1       -1.433  -0.534   0.013  0.00  0.00    +0.102 C 
ENDROOT
BRANCH   1   3
ATOM      2  C   LIG    1       -2.571  -2.688   0.012  0.00  0.00    +0.200 C 
ATOM      3  N   LIG    1       -1.413  -1.998   0.005  0.00  0.00    -0.317 N 
ATOM      4  H   LIG    1       -0.567  -2.472  -0.006  0.00  0.00    +0.149 HD
ATOM      5  O   LIG    1       -3.630  -2.096   0.025  0.00  0.00    -0.278 OA
BRANCH   2   8
ATOM      6  N   LIG    1       -3.929  -4.720   0.069  0.00  0.00    +0.390 N 
ATOM      7  H   LIG    1       -4.540  -4.018   0.502  0.00  0.00    -0.080 HD
ATOM      8  C   LIG    1       -2.551  -4.195   0.004  0.00  0.00    +0.020 C 
ATOM      9  C   LIG    1       -1.871  -4.732   1.288  0.00  0.00    -0.008 C 
ATOM     10  C   LIG    1       -2.492  -6.151   1.400  0.00  0.00    -0.020 C 
ATOM     11  C   LIG    1       -3.933  -5.942   0.889  0.00  0.00    -0.077 C 
BRANCH   6  12
ATOM     12  C   LIG    1       -4.428  -5.019  -1.299  0.00  0.00    -0.042 C 
BRANCH  12  16
ATOM     13  C   LIG    1       -8.101  -7.184  -1.026  0.00  0.00    +0.000 A 
ATOM     14  C   LIG    1       -8.114  -5.802  -1.067  0.00  0.00    +0.000 A 
ATOM     15  C   LIG    1       -6.926  -5.101  -1.155  0.00  0.00    +0.002 A 
ATOM     16  C   LIG    1       -5.724  -5.783  -1.202  0.00  0.00    -0.064 A 
ATOM     17  C   LIG    1       -5.711  -7.165  -1.166  0.00  0.00    +0.002 A 
ATOM     18  C   LIG    1       -6.899  -7.865  -1.073  0.00  0.00    +0.000 A 
ENDBRANCH  12  16
ENDBRANCH   6  12
ENDBRANCH   2   8
ENDBRANCH   1   3
BRANCH   1  19
ATOM     19  C   LIG    1        0.002  -0.004   0.002  0.00  0.00    +0.000 C 
BRANCH  19  20
ATOM     20  C   LIG    1       -0.019   1.526   0.010  0.00  0.00    -0.077 C 
BRANCH  20  21
ATOM     21  N   LIG    1        1.373   2.020  -0.024  0.00  0.00    +0.380 N 
ATOM     22  H   LIG    1        1.868   1.571  -0.803  0.00  0.00    -0.082 HD
ATOM     23  C   LIG    1        1.384   3.484  -0.231  0.00  0.00    -0.076 C 
ATOM     24  C   LIG    1        2.833   3.952  -0.389  0.00  0.00    +0.021 C 
ATOM     25  C   LIG    1        3.620   3.592   0.871  0.00  0.00    +0.092 C 
ATOM     26  C   LIG    1        5.060   4.014   0.725  0.00  0.00    -0.011 A 
ATOM     27  C   LIG    1        6.137   3.467   0.059  0.00  0.00    +0.007 A 
ATOM     28  C   LIG    1        7.369   4.093   0.106  0.00  0.00    +0.000 A 
ATOM     29  C   LIG    1        7.522   5.267   0.820  0.00  0.00    +0.000 A 
ATOM     30  C   LIG    1        6.443   5.817   1.487  0.00  0.00    +0.006 A 
ATOM     31  C   LIG    1        5.214   5.192   1.441  0.00  0.00    -0.016 A 
ATOM     32  C   LIG    1        3.871   5.529   2.046  0.00  0.00    +0.196 C 
ATOM     33  O   LIG    1        3.098   4.315   1.996  0.00  0.00    -0.364 OA
ATOM     34  C   LIG    1        3.532   2.089   1.131  0.00  0.00    +0.021 C 
ATOM     35  C   LIG    1        2.061   1.680   1.241  0.00  0.00    -0.076 C 
ENDBRANCH  20  21
ENDBRANCH  19  20
ENDBRANCH   1  19
TORSDOF 7
