REMARK  Name = ZINC13643080
REMARK                            x       y       z     vdW  Elec       q    Type
REMARK                         _______ _______ _______ _____ _____    ______ ____
ROOT
ATOM      1  C   LIG    1       -0.782   1.623   3.610  0.00  0.00    -0.014 C 
ATOM      2  C   LIG    1       -1.317   0.812   4.792  0.00  0.00    +0.024 C 
ATOM      3  C   LIG    1        0.002   1.577   4.923  0.00  0.00    +0.058 C 
ENDROOT
BRANCH   3   4
ATOM      4  C   LIG    1        0.004   2.819   5.777  0.00  0.00    +0.310 C 
ATOM      5  O   LIG    1       -0.483   3.842   5.356  0.00  0.00    -0.250 OA
BRANCH   4   6
ATOM      6  O   LIG    1        0.546   2.790   7.004  0.00  0.00    -0.480 OA
ATOM      7  H   LIG    1        0.924   1.997   7.330  0.00  0.00    +0.295 HD
ENDBRANCH   4   6
ENDBRANCH   3   4
BRANCH   1   8
ATOM      8  C   LIG    1       -0.213   0.847   2.421  0.00  0.00    +0.008 C 
BRANCH   8  10
ATOM      9  C   LIG    1       -0.791  -0.631   0.491  0.00  0.00    +0.004 C 
ATOM     10  C   LIG    1       -1.332   0.047   1.752  0.00  0.00    -0.003 C 
ENDBRANCH   8  10
ENDBRANCH   1   8
BRANCH   1  11
ATOM     11  C   LIG    1       -1.504   2.927   3.263  0.00  0.00    +0.008 C 
BRANCH  11  12
ATOM     12  C   LIG    1       -0.505   3.918   2.662  0.00  0.00    -0.003 C 
ATOM     13  C   LIG    1       -1.196   5.265   2.437  0.00  0.00    +0.004 C 
ENDBRANCH  11  12
ENDBRANCH   1  11
BRANCH   3  14
ATOM     14  C   LIG    1        1.294   0.758   4.947  0.00  0.00    -0.068 C 
BRANCH  14  15
ATOM     15  N   LIG    1        1.903   0.860   6.285  0.00  0.00    +0.379 N 
ATOM     16  H   LIG    1        2.136   1.841   6.476  0.00  0.00    -0.090 HD
ATOM     17  H   LIG    1        2.754   0.302   6.325  0.00  0.00    -0.090 HD
ATOM     18  H   LIG    1        1.248   0.530   6.992  0.00  0.00    -0.090 HD
ENDBRANCH  14  15
ENDBRANCH   3  14
TORSDOF 8
