REMARK  Name = ZINC13586565
REMARK                            x       y       z     vdW  Elec       q    Type
REMARK                         _______ _______ _______ _____ _____    ______ ____
ROOT
ATOM      1  C   LIG    1        0.621  -8.804   1.411  0.00  0.00    +0.002 C 
ENDROOT
BRANCH   1   2
ATOM      2  C   LIG    1        0.634  -7.275   1.350  0.00  0.00    +0.015 C 
BRANCH   2   3
ATOM      3  C   LIG    1        0.086  -6.814  -0.003  0.00  0.00    +0.084 C 
BRANCH   3   7
ATOM      4  N   LIG    1        0.594  -2.768  -0.995  0.00  0.00    -0.327 N 
ATOM      5  C   LIG    1       -0.752  -3.335  -1.168  0.00  0.00    +0.120 C 
ATOM      6  C   LIG    1       -0.633  -4.861  -1.239  0.00  0.00    +0.103 C 
ATOM      7  N   LIG    1        0.099  -5.347  -0.061  0.00  0.00    -0.299 NA
ATOM      8  C   LIG    1        1.474  -4.831  -0.038  0.00  0.00    +0.103 C 
ATOM      9  C   LIG    1        1.444  -3.308   0.078  0.00  0.00    +0.120 C 
BRANCH   4  15
ATOM     10  C   LIG    1        0.848  -0.411  -1.489  0.00  0.00    +0.029 A 
ATOM     11  C   LIG    1        1.315   0.597  -2.321  0.00  0.00    +0.016 A 
ATOM     12  C   LIG    1        1.979   0.275  -3.490  0.00  0.00    +0.001 A 
ATOM     13  C   LIG    1        2.180  -1.049  -3.834  0.00  0.00    +0.002 A 
ATOM     14  C   LIG    1        1.719  -2.060  -3.011  0.00  0.00    +0.024 A 
ATOM     15  C   LIG    1        1.057  -1.747  -1.833  0.00  0.00    +0.043 A 
BRANCH  10  17
ATOM     16  C   LIG    1       -0.022   1.810   0.012  0.00  0.00    +0.090 C 
ATOM     17  S   LIG    1        0.002  -0.004   0.002  0.00  0.00    -0.127 S 
ENDBRANCH  10  17
ENDBRANCH   4  15
ENDBRANCH   3   7
ENDBRANCH   2   3
ENDBRANCH   1   2
BRANCH   1  18
ATOM     18  C   LIG    1        1.168  -9.265   2.764  0.00  0.00    +0.009 C 
BRANCH  18  19
ATOM     19  C   LIG    1        1.155 -10.793   2.825  0.00  0.00    +0.096 C 
BRANCH  19  20
ATOM     20  C   LIG    1        1.694 -11.248   4.157  0.00  0.00    +0.213 C 
ATOM     21  N   LIG    1        1.777 -12.563   4.438  0.00  0.00    -0.308 N 
ATOM     22  H   LIG    1        1.489 -13.218   3.782  0.00  0.00    +0.149 HD
ATOM     23  O   LIG    1        2.053 -10.429   4.977  0.00  0.00    -0.276 OA
BRANCH  21  24
ATOM     24  C   LIG    1        2.301 -13.004   5.732  0.00  0.00    +0.103 C 
ATOM     25  C   LIG    1        2.879 -14.411   5.589  0.00  0.00    +0.027 C 
ATOM     26  C   LIG    1        3.221 -14.938   6.988  0.00  0.00    +0.007 C 
ATOM     27  C   LIG    1        1.915 -15.203   7.735  0.00  0.00    +0.035 C 
ATOM     28  C   LIG    1        1.014 -13.997   7.671  0.00  0.00    -0.042 A 
ATOM     29  C   LIG    1       -0.027 -13.919   8.586  0.00  0.00    +0.004 A 
ATOM     30  C   LIG    1       -0.890 -12.845   8.576  0.00  0.00    +0.000 A 
ATOM     31  C   LIG    1       -0.718 -11.835   7.649  0.00  0.00    +0.000 A 
ATOM     32  C   LIG    1        0.318 -11.909   6.740  0.00  0.00    +0.006 A 
ATOM     33  C   LIG    1        1.189 -12.991   6.749  0.00  0.00    -0.024 A 
ENDBRANCH  21  24
ENDBRANCH  19  20
ENDBRANCH  18  19
ENDBRANCH   1  18
TORSDOF 9
