REMARK  Name = ZINC13556338
REMARK                            x       y       z     vdW  Elec       q    Type
REMARK                         _______ _______ _______ _____ _____    ______ ____
ROOT
ATOM      1  C   LIG    1       -0.018   1.503   0.010  0.00  0.00    +0.068 C 
ATOM      2  C   LIG    1        0.002  -0.004   0.002  0.00  0.00    +0.072 C 
ATOM      3  N   LIG    1        0.022  -0.660   1.125  0.00  0.00    -0.176 NA
ENDROOT
BRANCH   2   4
ATOM      4  C   LIG    1       -0.000  -0.730  -1.272  0.00  0.00    +0.036 A 
ATOM      5  C   LIG    1        0.011  -2.096  -1.498  0.00  0.00    +0.018 A 
ATOM      6  C   LIG    1        0.005  -2.543  -2.799  0.00  0.00    +0.023 A 
ATOM      7  C   LIG    1       -0.010  -1.639  -3.813  0.00  0.00    +0.055 A 
ATOM      8 BR   LIG    1       -0.021  -1.948  -5.678  0.00  0.00    -0.043 Br
ATOM      9  S   LIG    1       -0.025  -0.084  -2.936  0.00  0.00    -0.080 S 
ENDBRANCH   2   4
BRANCH   3  10
ATOM     10  N   LIG    1        0.024   0.034   2.342  0.00  0.00    -0.259 N 
ATOM     11  H   LIG    1        0.011   1.003   2.347  0.00  0.00    +0.191 HD
ATOM     12  C   LIG    1        0.044  -0.656   3.521  0.00  0.00    +0.142 C 
BRANCH  12  13
ATOM     13  N   LIG    1        0.046   0.021   4.710  0.00  0.00    -0.338 N 
ATOM     14  H   LIG    1        0.061  -0.468   5.547  0.00  0.00    +0.144 HD
ATOM     15  H   LIG    1        0.033   0.991   4.715  0.00  0.00    +0.144 HD
ENDBRANCH  12  13
BRANCH  12  16
ATOM     16  S   LIG    1        0.067  -2.316   3.512  0.00  0.00    -0.109 S 
ATOM     17  H   LIG    1        0.061  -2.762   2.228  0.00  0.00    +0.110 HD
ENDBRANCH  12  16
ENDBRANCH   3  10
TORSDOF 4
