REMARK  Name = ZINC13733890
REMARK                            x       y       z     vdW  Elec       q    Type
REMARK                         _______ _______ _______ _____ _____    ______ ____
ROOT
ATOM      1  N   LIG    1        4.482  -0.422   3.349  0.00  0.00    -0.315 N 
ATOM      2  H   LIG    1        3.982  -0.946   3.995  0.00  0.00    +0.149 HD
ATOM      3  C   LIG    1        5.792  -0.176   3.549  0.00  0.00    +0.225 C 
ATOM      4  O   LIG    1        6.416   0.478   2.741  0.00  0.00    -0.275 OA
ENDROOT
BRANCH   1   5
ATOM      5  C   LIG    1        3.813   0.100   2.155  0.00  0.00    +0.102 C 
BRANCH   5   6
ATOM      6  C   LIG    1        2.341  -0.319   2.170  0.00  0.00    +0.000 C 
BRANCH   6   7
ATOM      7  C   LIG    1        1.642   0.227   0.924  0.00  0.00    -0.077 C 
BRANCH   7  15
ATOM      8  C   LIG    1        0.697  -2.250  -0.002  0.00  0.00    -0.013 C 
ATOM      9  C   LIG    1        0.014  -1.517   1.155  0.00  0.00    -0.071 C 
ATOM     10  C   LIG    1       -1.481  -1.841   1.152  0.00  0.00    -0.016 C 
ATOM     11  C   LIG    1       -2.160  -1.105   2.311  0.00  0.00    -0.003 C 
ATOM     12  C   LIG    1       -1.890   0.396   2.178  0.00  0.00    -0.016 C 
ATOM     13  C   LIG    1       -0.379   0.637   2.144  0.00  0.00    -0.071 C 
ATOM     14  C   LIG    1       -0.105   2.136   2.010  0.00  0.00    -0.013 C 
ATOM     15  N   LIG    1        0.206  -0.070   0.998  0.00  0.00    +0.383 N 
ATOM     16  H   LIG    1       -0.244   0.237   0.149  0.00  0.00    -0.081 HD
ENDBRANCH   7  15
ENDBRANCH   6   7
ENDBRANCH   5   6
ENDBRANCH   1   5
BRANCH   3  17
ATOM     17  C   LIG    1        6.480  -0.714   4.777  0.00  0.00    +0.135 C 
BRANCH  17  18
ATOM     18  C   LIG    1        5.813  -0.160   6.010  0.00  0.00    -0.031 A 
ATOM     19  C   LIG    1        5.609   1.201   6.133  0.00  0.00    +0.005 A 
ATOM     20  C   LIG    1        4.997   1.709   7.264  0.00  0.00    +0.000 A 
ATOM     21  C   LIG    1        4.588   0.855   8.271  0.00  0.00    +0.000 A 
ATOM     22  C   LIG    1        4.791  -0.507   8.148  0.00  0.00    +0.000 A 
ATOM     23  C   LIG    1        5.400  -1.015   7.015  0.00  0.00    +0.005 A 
ENDBRANCH  17  18
BRANCH  17  24
ATOM     24  C   LIG    1        7.929  -0.301   4.762  0.00  0.00    -0.031 A 
ATOM     25  C   LIG    1        8.922  -1.256   4.880  0.00  0.00    +0.005 A 
ATOM     26  C   LIG    1       10.251  -0.877   4.866  0.00  0.00    +0.000 A 
ATOM     27  C   LIG    1       10.588   0.457   4.734  0.00  0.00    +0.000 A 
ATOM     28  C   LIG    1        9.596   1.412   4.615  0.00  0.00    +0.000 A 
ATOM     29  C   LIG    1        8.267   1.033   4.625  0.00  0.00    +0.005 A 
ENDBRANCH  17  24
ENDBRANCH   3  17
TORSDOF 7
