REMARK  Name = ZINC13738186
REMARK                            x       y       z     vdW  Elec       q    Type
REMARK                         _______ _______ _______ _____ _____    ______ ____
ROOT
ATOM      1  C   LIG    1        6.296  -4.708  -0.086  0.00  0.00    +0.079 A 
ATOM      2  C   LIG    1        6.907  -5.069   1.083  0.00  0.00    +0.137 A 
ATOM      3  C   LIG    1        8.275  -5.606   1.012  0.00  0.00    +0.059 A 
ATOM      4  C   LIG    1        8.957  -5.994   2.166  0.00  0.00    +0.015 A 
ATOM      5  C   LIG    1       10.237  -6.494   2.065  0.00  0.00    +0.001 A 
ATOM      6  C   LIG    1       10.846  -6.611   0.825  0.00  0.00    +0.004 A 
ATOM      7  C   LIG    1       10.183  -6.231  -0.323  0.00  0.00    +0.047 A 
ATOM      8  C   LIG    1        8.892  -5.725  -0.243  0.00  0.00    +0.143 A 
ATOM      9  O   LIG    1        8.228  -5.350  -1.358  0.00  0.00    -0.422 OA
ATOM     10  C   LIG    1        6.978  -4.864  -1.303  0.00  0.00    +0.344 A 
ATOM     11  O   LIG    1        6.421  -4.543  -2.339  0.00  0.00    -0.245 OA
ENDROOT
BRANCH   2  12
ATOM     12  O   LIG    1        6.272  -4.935   2.270  0.00  0.00    -0.506 OA
ATOM     13  H   LIG    1        5.401  -4.592   2.299  0.00  0.00    +0.292 HD
ENDBRANCH   2  12
BRANCH   1  14
ATOM     14  C   LIG    1        4.896  -4.153  -0.069  0.00  0.00    +0.049 C 
BRANCH  14  15
ATOM     15  C   LIG    1        4.954  -2.624  -0.061  0.00  0.00    +0.046 C 
BRANCH  15  16
ATOM     16  C   LIG    1        3.531  -2.060  -0.044  0.00  0.00    +0.229 C 
BRANCH  16  17
ATOM     17  O   LIG    1        3.586  -0.632  -0.037  0.00  0.00    -0.492 OA
BRANCH  17  21
ATOM     18  C   LIG    1       -0.017   1.378   0.010  0.00  0.00    +0.000 A 
ATOM     19  C   LIG    1        1.170   2.088   0.002  0.00  0.00    +0.004 A 
ATOM     20  C   LIG    1        2.377   1.417  -0.013  0.00  0.00    +0.045 A 
ATOM     21  C   LIG    1        2.399   0.030  -0.021  0.00  0.00    +0.120 A 
ATOM     22  C   LIG    1        1.207  -0.680  -0.013  0.00  0.00    +0.045 A 
ATOM     23  C   LIG    1        0.002  -0.004   0.002  0.00  0.00    +0.004 A 
ENDBRANCH  17  21
ENDBRANCH  16  17
ENDBRANCH  15  16
ENDBRANCH  14  15
ENDBRANCH   1  14
TORSDOF 6
