REMARK  Name = ZINC13728053
REMARK                            x       y       z     vdW  Elec       q    Type
REMARK                         _______ _______ _______ _____ _____    ______ ____
ROOT
ATOM      1  C   LIG    1        1.302  -0.386  -0.012  0.00  0.00    +0.131 A 
ATOM      2  C   LIG    1        0.002  -0.004   0.002  0.00  0.00    +0.112 A 
ATOM      3  N   LIG    1       -0.016   1.356   0.009  0.00  0.00    -0.301 N 
ATOM      4  C   LIG    1       -1.021   2.289   0.029  0.00  0.00    +0.133 A 
ATOM      5  C   LIG    1       -0.718   3.603   0.029  0.00  0.00    +0.148 A 
ATOM      6 CL   LIG    1       -2.002   4.772   0.049  0.00  0.00    -0.060 Cl
ATOM      7  N   LIG    1        0.551   4.024   0.019  0.00  0.00    -0.215 NA
ATOM      8  C   LIG    1        1.555   3.170   0.005  0.00  0.00    +0.166 A 
ATOM      9  C   LIG    1        1.288   1.778  -0.001  0.00  0.00    +0.178 A 
ATOM     10  N   LIG    1        2.065   0.708  -0.014  0.00  0.00    -0.233 NA
ENDROOT
BRANCH   8  11
ATOM     11  N   LIG    1        2.862   3.630  -0.006  0.00  0.00    -0.316 N 
ATOM     12  C   LIG    1        3.601   3.092  -1.157  0.00  0.00    +0.087 C 
ATOM     13  C   LIG    1        5.057   3.558  -1.088  0.00  0.00    -0.063 C 
ATOM     14  N   LIG    1        5.103   5.033  -1.087  0.00  0.00    +0.381 N 
ATOM     15  H   LIG    1        6.081   5.341  -1.033  0.00  0.00    -0.086 HD
ATOM     16  H   LIG    1        4.680   5.386  -1.953  0.00  0.00    -0.086 HD
ATOM     17  C   LIG    1        4.359   5.566   0.070  0.00  0.00    -0.063 C 
ATOM     18  C   LIG    1        2.903   5.099   0.002  0.00  0.00    +0.087 C 
ENDBRANCH   8  11
TORSDOF 1
