REMARK  Name = ZINC13683427
REMARK                            x       y       z     vdW  Elec       q    Type
REMARK                         _______ _______ _______ _____ _____    ______ ____
ROOT
ATOM      1  C   UNK A  0        4.164  -0.959   1.377  0.00  0.00    +0.115 A 
ATOM      2  N   UNK A  1        3.416  -0.546   2.356  0.00  0.00    -0.223 NA
ATOM      3  C   UNK A  1        3.752  -0.733   3.646  0.00  0.00    +0.196 A 
ATOM      4  C   UNK A  1        4.934  -1.388   3.954  0.00  0.00    +0.215 A 
ATOM      5  C   UNK A  1        5.771  -1.850   2.836  0.00  0.00    +0.294 A 
ATOM      6  O   UNK A  1        6.822  -2.433   3.037  0.00  0.00    -0.264 OA
ATOM      7  N   UNK A  1        5.334  -1.614   1.579  0.00  0.00    -0.308 N 
ATOM      8  H   UNK A  1        5.861  -1.909   0.820  0.00  0.00    +0.170 HD
ENDROOT
BRANCH   3   9
ATOM      9  C   UNK A  1        2.868  -0.244   4.725  0.00  0.00    +0.359 C 
ATOM     10  O   UNK A  1        3.178  -0.417   5.895  0.00  0.00    -0.243 OA
BRANCH   9  11
ATOM     11  O   UNK A  1        1.826   0.333   4.447  0.00  0.00    -0.476 OA
ATOM     12  H   UNK A  1        1.589   0.466   3.550  0.00  0.00    +0.295 HD
ENDBRANCH   9  11
ENDBRANCH   3   9
BRANCH   4  13
ATOM     13  O   UNK A  1        5.306  -1.595   5.240  0.00  0.00    -0.501 OA
ATOM     14  H   UNK A  1        6.148  -2.061   5.336  0.00  0.00    +0.292 HD
ENDBRANCH   4  13
BRANCH   1  15
ATOM     15  C   UNK A  0        3.711  -0.707  -0.038  0.00  0.00    +0.109 C 
BRANCH  15  19
ATOM     16  C   UNK A  0       -0.017   1.378   0.010  0.00  0.00    +0.000 A 
ATOM     17  C   UNK A  0        1.171   2.086   0.002  0.00  0.00    +0.000 A 
ATOM     18  C   UNK A  0        2.377   1.411  -0.013  0.00  0.00    +0.004 A 
ATOM     19  C   UNK A  0        2.396   0.029  -0.020  0.00  0.00    -0.040 A 
ATOM     20  C   UNK A  0        1.208  -0.679  -0.012  0.00  0.00    +0.004 A 
ATOM     21  C   UNK A  0        0.002  -0.004   0.002  0.00  0.00    +0.000 A 
ENDBRANCH  15  19
ENDBRANCH   1  15
TORSDOF 5
