REMARK  Name = ZINC13648185
REMARK                            x       y       z     vdW  Elec       q    Type
REMARK                         _______ _______ _______ _____ _____    ______ ____
ROOT
ATOM      1  C   LIG    1       -0.223   1.771   2.415  0.00  0.00    +0.404 C 
ATOM      2  N   LIG    1       -0.746   1.583   1.187  0.00  0.00    -0.256 N 
ATOM      3  C   LIG    1       -0.013   1.086   0.008  0.00  0.00    +0.112 C 
ATOM      4  C   LIG    1       -0.806   1.621  -1.210  0.00  0.00    +0.021 C 
ATOM      5  C   LIG    1       -2.269   1.504  -0.705  0.00  0.00    +0.033 C 
ATOM      6  C   LIG    1       -2.143   1.837   0.797  0.00  0.00    +0.165 C 
ATOM      7  O   LIG    1       -0.924   2.187   3.316  0.00  0.00    -0.226 OA
ENDROOT
BRANCH   6   8
ATOM      8  C   LIG    1       -3.067   0.955   1.597  0.00  0.00    +0.236 C 
ATOM      9  N   LIG    1       -4.378   1.252   1.680  0.00  0.00    -0.300 N 
ATOM     10  C   LIG    1       -5.037   2.406   1.049  0.00  0.00    +0.108 C 
ATOM     11  C   LIG    1       -6.529   2.351   1.438  0.00  0.00    +0.020 C 
ATOM     12  C   LIG    1       -6.517   1.496   2.733  0.00  0.00    +0.020 C 
ATOM     13  C   LIG    1       -5.389   0.480   2.424  0.00  0.00    +0.108 C 
ATOM     14  O   LIG    1       -2.630  -0.024   2.165  0.00  0.00    -0.274 OA
ENDBRANCH   6   8
BRANCH   1  15
ATOM     15  O   LIG    1        1.076   1.500   2.642  0.00  0.00    -0.445 OA
BRANCH  15  17
ATOM     16  C   LIG    1        0.790   0.854   4.973  0.00  0.00    +0.055 C 
ATOM     17  C   LIG    1        1.571   1.727   3.988  0.00  0.00    +0.107 C 
ATOM     18  C   LIG    1        1.388   3.201   4.357  0.00  0.00    +0.055 C 
ATOM     19  C   LIG    1        3.056   1.366   4.053  0.00  0.00    +0.055 C 
ENDBRANCH  15  17
ENDBRANCH   1  15
TORSDOF 3
