REMARK  Name = ZINC13744607
REMARK                            x       y       z     vdW  Elec       q    Type
REMARK                         _______ _______ _______ _____ _____    ______ ____
ROOT
ATOM      1  C   LIG    1        1.405   3.580  -0.053  0.00  0.00    +0.034 C 
ENDROOT
BRANCH   1   7
ATOM      2  C   LIG    1        7.167   5.693   0.955  0.00  0.00    +0.162 A 
ATOM      3  C   LIG    1        6.036   5.256   1.633  0.00  0.00    +0.054 A 
ATOM      4  C   LIG    1        4.923   4.861   0.928  0.00  0.00    -0.033 A 
ATOM      5  C   LIG    1        4.916   4.894  -0.468  0.00  0.00    -0.018 A 
ATOM      6  C   LIG    1        3.606   4.419  -0.950  0.00  0.00    +0.008 C 
ATOM      7  C   LIG    1        2.815   4.100   0.059  0.00  0.00    -0.064 C 
ATOM      8  C   LIG    1        6.055   5.334  -1.148  0.00  0.00    +0.057 A 
ATOM      9  C   LIG    1        3.565   4.352   1.347  0.00  0.00    +0.066 C 
ATOM     10  C   LIG    1        7.172   5.731  -0.437  0.00  0.00    +0.162 A 
BRANCH   2  12
ATOM     11  C   LIG    1        8.191   6.020   3.076  0.00  0.00    +0.277 C 
ATOM     12  O   LIG    1        8.268   6.085   1.651  0.00  0.00    -0.491 OA
ENDBRANCH   2  12
BRANCH  10  13
ATOM     13  O   LIG    1        8.280   6.159  -1.099  0.00  0.00    -0.491 OA
ATOM     14  C   LIG    1        8.218   6.173  -2.527  0.00  0.00    +0.277 C 
ENDBRANCH  10  13
ENDBRANCH   1   7
BRANCH   1  15
ATOM     15  C   LIG    1        1.420   2.051  -0.001  0.00  0.00    -0.010 C 
ATOM     16  C   LIG    1       -0.019   1.526   0.010  0.00  0.00    -0.015 C 
ATOM     17  C   LIG    1        0.002  -0.004   0.002  0.00  0.00    -0.078 C 
ATOM     18  N   LIG    1        0.693  -0.468  -1.220  0.00  0.00    +0.382 N 
ATOM     19  H   LIG    1        0.226  -0.063  -2.040  0.00  0.00    -0.081 HD
ATOM     20  C   LIG    1        2.103  -0.026  -1.205  0.00  0.00    -0.078 C 
ATOM     21  C   LIG    1        2.145   1.503  -1.232  0.00  0.00    -0.015 C 
BRANCH  18  22
ATOM     22  C   LIG    1        0.626  -1.941  -1.309  0.00  0.00    -0.043 C 
BRANCH  22  23
ATOM     23  C   LIG    1        1.139  -2.369  -2.660  0.00  0.00    -0.064 A 
ATOM     24  C   LIG    1        0.268  -2.476  -3.728  0.00  0.00    +0.002 A 
ATOM     25  C   LIG    1        0.739  -2.864  -4.968  0.00  0.00    +0.000 A 
ATOM     26  C   LIG    1        2.079  -3.155  -5.138  0.00  0.00    +0.000 A 
ATOM     27  C   LIG    1        2.949  -3.055  -4.069  0.00  0.00    +0.000 A 
ATOM     28  C   LIG    1        2.479  -2.661  -2.830  0.00  0.00    +0.002 A 
ENDBRANCH  22  23
ENDBRANCH  18  22
ENDBRANCH   1  15
TORSDOF 6
