REMARK  Name = ZINC13683140
REMARK                            x       y       z     vdW  Elec       q    Type
REMARK                         _______ _______ _______ _____ _____    ______ ____
ROOT
ATOM      1  C   LIG    1        2.408   0.024  -0.021  0.00  0.00    +0.001 A 
ATOM      2  C   LIG    1        1.214  -0.675  -0.013  0.00  0.00    +0.001 A 
ATOM      3  C   LIG    1        0.002  -0.004   0.002  0.00  0.00    +0.014 A 
ATOM      4  C   LIG    1       -0.017   1.385   0.010  0.00  0.00    +0.048 A 
ATOM      5  C   LIG    1        1.202   2.095   0.002  0.00  0.00    +0.039 A 
ATOM      6  C   LIG    1        1.150   3.571   0.011  0.00  0.00    +0.249 C 
ATOM      7  C   LIG    1       -0.197   4.223   0.028  0.00  0.00    +0.294 C 
ATOM      8  N   LIG    1       -1.313   3.474   0.034  0.00  0.00    -0.227 N 
ATOM      9  O   LIG    1       -0.282   5.433   0.035  0.00  0.00    -0.266 OA
ATOM     10  O   LIG    1        2.166   4.234   0.004  0.00  0.00    -0.282 OA
ATOM     11  C   LIG    1       -1.289   2.132   0.032  0.00  0.00    +0.254 C 
ATOM     12  O   LIG    1       -2.338   1.519   0.043  0.00  0.00    -0.270 OA
ATOM     13  C   LIG    1        2.410   1.408  -0.013  0.00  0.00    +0.012 A 
ENDROOT
BRANCH   8  14
ATOM     14  C   LIG    1       -2.611   4.152   0.049  0.00  0.00    +0.152 C 
BRANCH  14  15
ATOM     15  C   LIG    1       -3.070   4.392  -1.366  0.00  0.00    -0.029 A 
ATOM     16  C   LIG    1       -2.731   5.566  -2.012  0.00  0.00    +0.008 A 
ATOM     17  C   LIG    1       -3.146   5.785  -3.312  0.00  0.00    +0.038 A 
ATOM     18  C   LIG    1       -3.912   4.833  -3.963  0.00  0.00    +0.123 A 
ATOM     19  F   LIG    1       -4.323   5.048  -5.232  0.00  0.00    -0.205 F 
ATOM     20  C   LIG    1       -4.255   3.659  -3.313  0.00  0.00    +0.038 A 
ATOM     21  C   LIG    1       -3.834   3.440  -2.015  0.00  0.00    +0.008 A 
ENDBRANCH  14  15
ENDBRANCH   8  14
TORSDOF 2
