REMARK  Name = ZINC13641430
REMARK                            x       y       z     vdW  Elec       q    Type
REMARK                         _______ _______ _______ _____ _____    ______ ____
ROOT
ATOM      1  C   LIG    1       -0.971   1.317   1.218  0.00  0.00    +0.096 C 
ENDROOT
BRANCH   1   2
ATOM      2  C   LIG    1       -0.869   2.820   1.283  0.00  0.00    +0.308 C 
ATOM      3  O   LIG    1       -0.106   3.405   0.551  0.00  0.00    -0.251 OA
BRANCH   2   4
ATOM      4  O   LIG    1       -1.625   3.507   2.153  0.00  0.00    -0.480 OA
ATOM      5  H   LIG    1       -2.217   3.053   2.720  0.00  0.00    +0.295 HD
ENDBRANCH   2   4
ENDBRANCH   1   2
BRANCH   1   6
ATOM      6  C   LIG    1       -0.818   0.858  -0.233  0.00  0.00    +0.017 C 
BRANCH   6   8
ATOM      7  C   LIG    1       -1.772   1.039  -2.535  0.00  0.00    +0.007 C 
ATOM      8  C   LIG    1       -1.998   1.373  -1.059  0.00  0.00    -0.016 C 
ATOM      9  C   LIG    1       -3.288   0.706  -0.577  0.00  0.00    +0.007 C 
ENDBRANCH   6   8
ENDBRANCH   1   6
BRANCH   1  10
ATOM     10  C   LIG    1        0.136   0.694   2.071  0.00  0.00    -0.005 C 
BRANCH  10  11
ATOM     11  C   LIG    1       -0.090   1.052   3.541  0.00  0.00    -0.086 C 
BRANCH  11  12
ATOM     12  N   LIG    1        0.993   0.465   4.350  0.00  0.00    +0.378 N 
ATOM     13  H   LIG    1        1.891   0.865   4.052  0.00  0.00    -0.090 HD
ATOM     14  H   LIG    1        1.019  -0.545   4.219  0.00  0.00    -0.090 HD
ATOM     15  H   LIG    1        0.847   0.676   5.336  0.00  0.00    -0.090 HD
ENDBRANCH  11  12
ENDBRANCH  10  11
ENDBRANCH   1  10
TORSDOF 7
