REMARK  Name = ZINC13676556
REMARK                            x       y       z     vdW  Elec       q    Type
REMARK                         _______ _______ _______ _____ _____    ______ ____
ROOT
ATOM      1  C   LIG    1        1.151   3.592   0.010  0.00  0.00    +0.192 C 
ENDROOT
BRANCH   1   2
ATOM      2  C   LIG    1        1.171   2.086   0.002  0.00  0.00    -0.018 A 
ATOM      3  C   LIG    1       -0.017   1.378   0.010  0.00  0.00    +0.006 A 
ATOM      4  C   LIG    1        0.002  -0.004   0.002  0.00  0.00    +0.000 A 
ATOM      5  C   LIG    1        1.208  -0.679  -0.014  0.00  0.00    +0.000 A 
ATOM      6  C   LIG    1        2.396   0.029  -0.021  0.00  0.00    +0.000 A 
ATOM      7  C   LIG    1        2.377   1.411  -0.014  0.00  0.00    +0.006 A 
ENDBRANCH   1   2
BRANCH   1   9
ATOM      8  C   LIG    1        1.945   4.232  -2.203  0.00  0.00    +0.402 C 
ATOM      9  N   LIG    1        2.193   4.100  -0.885  0.00  0.00    -0.266 N 
ATOM     10  H   LIG    1        3.063   4.340  -0.529  0.00  0.00    +0.153 HD
ATOM     11  O   LIG    1        0.855   3.930  -2.649  0.00  0.00    -0.226 OA
BRANCH   8  12
ATOM     12  O   LIG    1        2.903   4.698  -3.026  0.00  0.00    -0.445 OA
BRANCH  12  14
ATOM     13  C   LIG    1        1.382   5.771  -4.596  0.00  0.00    +0.055 C 
ATOM     14  C   LIG    1        2.565   4.814  -4.433  0.00  0.00    +0.107 C 
ATOM     15  C   LIG    1        2.186   3.437  -4.982  0.00  0.00    +0.055 C 
ATOM     16  C   LIG    1        3.770   5.356  -5.204  0.00  0.00    +0.055 C 
ENDBRANCH  12  14
ENDBRANCH   8  12
ENDBRANCH   1   9
BRANCH   1  17
ATOM     17  C   LIG    1        1.403   4.091   1.409  0.00  0.00    +0.239 C 
ATOM     18  N   LIG    1        0.566   3.749   2.408  0.00  0.00    -0.301 N 
ATOM     19  H   LIG    1       -0.200   3.182   2.227  0.00  0.00    +0.150 HD
ATOM     20  O   LIG    1        2.361   4.800   1.637  0.00  0.00    -0.273 OA
BRANCH  18  21
ATOM     21  C   LIG    1        0.812   4.233   3.769  0.00  0.00    +0.223 C 
BRANCH  21  22
ATOM     22  C   LIG    1       -0.236   3.724   4.668  0.00  0.00    +0.081 C 
ATOM     23  N   LIG    1       -1.045   3.330   5.362  0.00  0.00    -0.195 NA
ENDBRANCH  21  22
ENDBRANCH  18  21
ENDBRANCH   1  17
TORSDOF 7
