REMARK  Name = ZINC13641838
REMARK                            x       y       z     vdW  Elec       q    Type
REMARK                         _______ _______ _______ _____ _____    ______ ____
ROOT
ATOM      1  C   LIG    1       -4.079   2.628   2.482  0.00  0.00    +0.008 A 
ATOM      2  C   LIG    1       -4.159   3.312   1.275  0.00  0.00    +0.015 A 
ATOM      3  C   LIG    1       -3.562   2.789   0.146  0.00  0.00    +0.004 A 
ATOM      4  C   LIG    1       -2.885   1.584   0.214  0.00  0.00    -0.049 A 
ATOM      5  C   LIG    1       -2.808   0.897   1.413  0.00  0.00    +0.004 A 
ATOM      6  C   LIG    1       -3.398   1.418   2.547  0.00  0.00    +0.015 A 
ENDROOT
BRANCH   1   7
ATOM      7  S   LIG    1       -4.840   3.292   3.926  0.00  0.00    -0.125 S 
BRANCH   7   9
ATOM      8  C   LIG    1       -5.085   2.530   6.542  0.00  0.00    +0.015 C 
ATOM      9  C   LIG    1       -4.473   2.071   5.216  0.00  0.00    +0.071 C 
ENDBRANCH   7   9
ENDBRANCH   1   7
BRANCH   4  10
ATOM     10  C   LIG    1       -2.234   1.016  -1.020  0.00  0.00    +0.018 C 
BRANCH  10  11
ATOM     11  C   LIG    1       -0.795   1.527  -1.120  0.00  0.00    -0.074 C 
ATOM     12  C   LIG    1       -0.175   1.052  -2.435  0.00  0.00    -0.014 C 
BRANCH  11  13
ATOM     13  N   LIG    1       -0.025   1.014   0.027  0.00  0.00    +0.380 N 
ATOM     14  H   LIG    1       -0.476   1.316   0.899  0.00  0.00    -0.090 HD
ATOM     15  H   LIG    1        0.925   1.379   0.001  0.00  0.00    -0.090 HD
ATOM     16  H   LIG    1        0.002  -0.004   0.002  0.00  0.00    -0.090 HD
ENDBRANCH  11  13
ENDBRANCH  10  11
ENDBRANCH   4  10
TORSDOF 5
