REMARK  Name = ZINC13643206
REMARK                            x       y       z     vdW  Elec       q    Type
REMARK                         _______ _______ _______ _____ _____    ______ ____
ROOT
ATOM      1  C   LIG    1       -0.013   1.076   0.008  0.00  0.00    +0.023 A 
ATOM      2  C   LIG    1        1.176   1.783   0.000  0.00  0.00    -0.034 A 
ATOM      3  C   LIG    1        1.161   3.165   0.007  0.00  0.00    +0.023 A 
ATOM      4  C   LIG    1       -0.043   3.845   0.022  0.00  0.00    +0.061 A 
ATOM      5 BR   LIG    1       -0.063   5.735   0.032  0.00  0.00    -0.046 Br
ATOM      6  C   LIG    1       -1.237   3.138   0.029  0.00  0.00    +0.148 A 
ATOM      7  C   LIG    1       -1.219   1.750   0.017  0.00  0.00    +0.061 A 
ATOM      8 BR   LIG    1       -2.844   0.782   0.020  0.00  0.00    -0.046 Br
ENDROOT
BRANCH   2   9
ATOM      9  C   LIG    1        2.490   1.045  -0.015  0.00  0.00    +0.155 C 
BRANCH   9  10
ATOM     10  C   LIG    1        2.915   0.806  -1.441  0.00  0.00    +0.309 C 
ATOM     11  O   LIG    1        2.222   1.194  -2.351  0.00  0.00    -0.251 OA
BRANCH  10  12
ATOM     12  O   LIG    1        4.063   0.161  -1.700  0.00  0.00    -0.480 OA
ATOM     13  H   LIG    1        4.600  -0.141  -0.994  0.00  0.00    +0.295 HD
ENDBRANCH  10  12
ENDBRANCH   9  10
ENDBRANCH   2   9
BRANCH   6  14
ATOM     14  O   LIG    1       -2.423   3.803   0.043  0.00  0.00    -0.489 OA
BRANCH  14  15
ATOM     15  C   LIG    1       -3.000   4.127  -1.223  0.00  0.00    +0.232 C 
BRANCH  15  16
ATOM     16  C   LIG    1       -4.321   4.868  -1.007  0.00  0.00    +0.027 C 
ATOM     17  C   LIG    1       -5.326   3.934  -0.331  0.00  0.00    +0.007 C 
ATOM     18  C   LIG    1       -6.646   4.675  -0.115  0.00  0.00    +0.000 C 
ATOM     19  C   LIG    1       -7.202   5.131  -1.466  0.00  0.00    +0.000 C 
ATOM     20  C   LIG    1       -6.197   6.066  -2.142  0.00  0.00    +0.000 C 
ATOM     21  C   LIG    1       -4.877   5.324  -2.358  0.00  0.00    +0.007 C 
ENDBRANCH  15  16
ENDBRANCH  14  15
ENDBRANCH   6  14
TORSDOF 6
