REMARK  Name = ZINC13608481
REMARK                            x       y       z     vdW  Elec       q    Type
REMARK                         _______ _______ _______ _____ _____    ______ ____
ROOT
ATOM      1  C   LIG    1        0.002  -0.004   0.002  0.00  0.00    +0.047 A 
ATOM      2  C   LIG    1        1.209  -0.693  -0.013  0.00  0.00    +0.133 A 
ATOM      3  N   LIG    1        1.230  -2.010  -0.021  0.00  0.00    -0.261 NA
ATOM      4  C   LIG    1        0.121  -2.724  -0.013  0.00  0.00    +0.111 A 
ATOM      5  C   LIG    1       -1.118  -2.111   0.002  0.00  0.00    +0.023 A 
ATOM      6  C   LIG    1       -1.188  -0.727   0.015  0.00  0.00    -0.041 A 
ENDROOT
BRANCH   1   7
ATOM      7  N   LIG    1       -0.017   1.393   0.010  0.00  0.00    -0.343 N 
ATOM      8  H   LIG    1       -0.863   1.866   0.016  0.00  0.00    +0.146 HD
BRANCH   7  10
ATOM      9  C   LIG    1        0.942   3.643   0.013  0.00  0.00    +0.024 C 
ATOM     10  C   LIG    1        1.242   2.143   0.002  0.00  0.00    +0.098 C 
ENDBRANCH   7  10
ENDBRANCH   1   7
BRANCH   6  11
ATOM     11  C   LIG    1       -2.520  -0.022   0.038  0.00  0.00    -0.049 C 
BRANCH  11  12
ATOM     12  N   LIG    1       -2.840   0.443  -1.323  0.00  0.00    +0.381 N 
ATOM     13  H   LIG    1       -2.124   1.112  -1.629  0.00  0.00    -0.090 HD
ATOM     14  H   LIG    1       -3.749   0.903  -1.330  0.00  0.00    -0.090 HD
ATOM     15  H   LIG    1       -2.855  -0.346  -1.967  0.00  0.00    -0.090 HD
ENDBRANCH  11  12
ENDBRANCH   6  11
TORSDOF 4
