REMARK  Name = ZINC13732817
REMARK                            x       y       z     vdW  Elec       q    Type
REMARK                         _______ _______ _______ _____ _____    ______ ____
ROOT
ATOM      1  C   LIG    1        4.389  -7.614  -2.826  0.00  0.00    +0.138 C 
ATOM      2  N   LIG    1        4.619  -6.585  -1.809  0.00  0.00    -0.271 N 
ATOM      3  C   LIG    1        5.902  -6.468  -1.297  0.00  0.00    +0.045 A 
ATOM      4  C   LIG    1        6.965  -6.592  -2.194  0.00  0.00    +0.024 A 
ATOM      5  C   LIG    1        8.268  -6.494  -1.758  0.00  0.00    +0.002 A 
ATOM      6  C   LIG    1        8.537  -6.270  -0.418  0.00  0.00    +0.001 A 
ATOM      7  C   LIG    1        7.503  -6.143   0.480  0.00  0.00    +0.012 A 
ATOM      8  C   LIG    1        6.170  -6.240   0.051  0.00  0.00    +0.022 A 
ATOM      9  C   LIG    1        5.114  -6.093   1.066  0.00  0.00    +0.077 C 
ATOM     10  N   LIG    1        4.014  -5.451   0.894  0.00  0.00    -0.251 NA
ATOM     11  C   LIG    1        3.694  -4.791  -0.371  0.00  0.00    +0.280 C 
ATOM     12  C   LIG    1        3.581  -5.832  -1.451  0.00  0.00    +0.262 C 
ATOM     13  O   LIG    1        2.515  -5.993  -2.008  0.00  0.00    -0.271 OA
ENDROOT
BRANCH   9  14
ATOM     14  C   LIG    1        5.337  -6.732   2.384  0.00  0.00    +0.001 A 
ATOM     15  C   LIG    1        6.187  -7.833   2.494  0.00  0.00    +0.010 A 
ATOM     16  C   LIG    1        6.393  -8.421   3.725  0.00  0.00    +0.001 A 
ATOM     17  C   LIG    1        5.751  -7.928   4.847  0.00  0.00    +0.000 A 
ATOM     18  C   LIG    1        4.904  -6.839   4.743  0.00  0.00    +0.001 A 
ATOM     19  C   LIG    1        4.693  -6.239   3.518  0.00  0.00    +0.010 A 
ENDBRANCH   9  14
BRANCH  11  20
ATOM     20  N   LIG    1        2.421  -4.076  -0.244  0.00  0.00    -0.270 N 
ATOM     21  H   LIG    1        1.586  -4.570  -0.237  0.00  0.00    +0.153 HD
ATOM     22  C   LIG    1        2.411  -2.733  -0.136  0.00  0.00    +0.306 C 
ATOM     23  N   LIG    1        1.241  -2.075  -0.019  0.00  0.00    -0.269 N 
ATOM     24  H   LIG    1        0.411  -2.572   0.055  0.00  0.00    +0.156 HD
ATOM     25  O   LIG    1        3.458  -2.114  -0.144  0.00  0.00    -0.252 OA
BRANCH  23  26
ATOM     26  C   LIG    1        1.223  -0.676  -0.003  0.00  0.00    +0.037 A 
ATOM     27  C   LIG    1        0.170   0.013  -0.591  0.00  0.00    +0.023 A 
ATOM     28  C   LIG    1        0.153   1.394  -0.575  0.00  0.00    +0.005 A 
ATOM     29  C   LIG    1        1.184   2.092   0.026  0.00  0.00    +0.038 A 
ATOM     30  C   LIG    1        2.236   1.409   0.614  0.00  0.00    +0.125 A 
ATOM     31  F   LIG    1        3.242   2.094   1.201  0.00  0.00    -0.205 F 
ATOM     32  C   LIG    1        2.257   0.026   0.600  0.00  0.00    +0.061 A 
ENDBRANCH  23  26
ENDBRANCH  11  20
TORSDOF 3
