REMARK  Name = ZINC13682123
REMARK                            x       y       z     vdW  Elec       q    Type
REMARK                         _______ _______ _______ _____ _____    ______ ____
ROOT
ATOM      1  C   LIG    1        2.418   3.792   0.340  0.00  0.00    +0.150 C 
ATOM      2  O   LIG    1        2.347   4.996   0.464  0.00  0.00    -0.294 OA
ENDROOT
BRANCH   1   3
ATOM      3  C   LIG    1        1.221   2.960   0.535  0.00  0.00    +0.016 A 
ATOM      4  C   LIG    1        1.309   1.561   0.389  0.00  0.00    +0.012 A 
ATOM      5  C   LIG    1        0.218   0.775   0.565  0.00  0.00    +0.009 A 
ATOM      6  C   LIG    1       -1.023   1.353   0.893  0.00  0.00    -0.018 A 
ATOM      7  C   LIG    1       -2.164   0.556   1.085  0.00  0.00    +0.008 A 
ATOM      8  C   LIG    1       -3.350   1.142   1.406  0.00  0.00    +0.001 A 
ATOM      9  C   LIG    1       -3.452   2.524   1.555  0.00  0.00    +0.001 A 
ATOM     10  C   LIG    1       -2.367   3.328   1.381  0.00  0.00    +0.008 A 
ATOM     11  C   LIG    1       -1.125   2.759   1.048  0.00  0.00    -0.017 A 
ATOM     12  C   LIG    1        0.012   3.559   0.863  0.00  0.00    +0.019 A 
ENDBRANCH   1   3
BRANCH   1  13
ATOM     13  C   LIG    1        3.733   3.147  -0.016  0.00  0.00    +0.004 C 
BRANCH  13  14
ATOM     14  N   LIG    1        4.845   4.077   0.347  0.00  0.00    +0.386 N 
ATOM     15  H   LIG    1        5.742   3.590   0.235  0.00  0.00    -0.081 HD
ATOM     16  C   LIG    1        4.699   4.534   1.730  0.00  0.00    -0.078 C 
ATOM     17  C   LIG    1        5.233   5.978   1.763  0.00  0.00    -0.020 C 
ATOM     18  C   LIG    1        5.646   6.289   0.306  0.00  0.00    -0.020 C 
ATOM     19  C   LIG    1        4.816   5.270  -0.515  0.00  0.00    -0.078 C 
ENDBRANCH  13  14
BRANCH  13  20
ATOM     20  C   LIG    1        3.771   2.860  -1.518  0.00  0.00    -0.008 C 
BRANCH  20  22
ATOM     21  C   LIG    1        5.089   1.807  -3.361  0.00  0.00    +0.004 C 
ATOM     22  C   LIG    1        5.051   2.094  -1.859  0.00  0.00    -0.005 C 
ENDBRANCH  20  22
ENDBRANCH  13  20
ENDBRANCH   1  13
TORSDOF 5
