REMARK  Name = ZINC13675246
REMARK                            x       y       z     vdW  Elec       q    Type
REMARK                         _______ _______ _______ _____ _____    ______ ____
ROOT
ATOM      1  C   LIG    1        3.461   6.191   0.002  0.00  0.00    +0.136 C 
ATOM      2  C   LIG    1        2.018   5.650   0.013  0.00  0.00    +0.087 C 
ATOM      3  C   LIG    1        2.191   4.148   0.003  0.00  0.00    +0.075 C 
ATOM      4  N   LIG    1        3.450   3.860  -0.005  0.00  0.00    -0.181 NA
ATOM      5  N   LIG    1        4.287   4.973  -0.013  0.00  0.00    -0.197 N 
ENDROOT
BRANCH   1  10
ATOM      6  C   LIG    1        4.414   9.349  -4.742  0.00  0.00    +0.044 C 
ATOM      7  C   LIG    1        4.165   8.526  -3.505  0.00  0.00    -0.050 A 
ATOM      8  C   LIG    1        3.888   9.150  -2.303  0.00  0.00    +0.004 A 
ATOM      9  C   LIG    1        3.660   8.394  -1.168  0.00  0.00    +0.006 A 
ATOM     10  C   LIG    1        3.709   7.014  -1.235  0.00  0.00    -0.025 A 
ATOM     11  C   LIG    1        3.992   6.390  -2.436  0.00  0.00    +0.006 A 
ATOM     12  C   LIG    1        4.216   7.146  -3.572  0.00  0.00    +0.004 A 
ENDBRANCH   1  10
BRANCH   3  13
ATOM     13  C   LIG    1        1.099   3.169   0.009  0.00  0.00    +0.035 A 
ATOM     14  C   LIG    1        1.165   1.787   0.001  0.00  0.00    +0.017 A 
ATOM     15  C   LIG    1       -0.013   1.076   0.008  0.00  0.00    +0.008 A 
ATOM     16  C   LIG    1       -1.194   1.746   0.017  0.00  0.00    +0.046 A 
ATOM     17  S   LIG    1       -0.664   3.451   0.027  0.00  0.00    -0.095 S 
ENDBRANCH   3  13
BRANCH   5  18
ATOM     18  C   LIG    1        5.635   4.940  -0.025  0.00  0.00    +0.151 C 
ATOM     19  S   LIG    1        6.527   6.402  -0.025  0.00  0.00    -0.017 S 
BRANCH  18  20
ATOM     20  N   LIG    1        6.280   3.757  -0.038  0.00  0.00    -0.339 N 
ATOM     21  H   LIG    1        7.250   3.733  -0.047  0.00  0.00    +0.144 HD
ATOM     22  H   LIG    1        5.774   2.929  -0.038  0.00  0.00    +0.144 HD
ENDBRANCH  18  20
ENDBRANCH   5  18
TORSDOF 4
