REMARK  Name = ZINC13730124
REMARK                            x       y       z     vdW  Elec       q    Type
REMARK                         _______ _______ _______ _____ _____    ______ ____
ROOT
ATOM      1  N   LIG    1       -0.003  -5.944  -5.130  0.00  0.00    +0.382 N 
ATOM      2  H   LIG    1       -0.752  -6.361  -4.564  0.00  0.00    -0.081 HD
ATOM      3  C   LIG    1       -0.121  -4.472  -5.072  0.00  0.00    -0.078 C 
ATOM      4  C   LIG    1       -0.093  -4.029  -3.607  0.00  0.00    -0.013 C 
ATOM      5  C   LIG    1        1.230  -4.466  -2.972  0.00  0.00    +0.011 C 
ATOM      6  C   LIG    1        1.373  -5.984  -3.105  0.00  0.00    -0.013 C 
ATOM      7  C   LIG    1        1.303  -6.371  -4.584  0.00  0.00    -0.078 C 
ENDROOT
BRANCH   1   8
ATOM      8  C   LIG    1       -0.142  -6.407  -6.526  0.00  0.00    -0.043 C 
BRANCH   8  12
ATOM      9  C   LIG    1       -4.153  -5.688  -7.823  0.00  0.00    +0.059 A 
ATOM     10  C   LIG    1       -3.167  -4.720  -8.023  0.00  0.00    +0.015 A 
ATOM     11  C   LIG    1       -1.875  -4.958  -7.601  0.00  0.00    +0.002 A 
ATOM     12  C   LIG    1       -1.555  -6.153  -6.983  0.00  0.00    -0.064 A 
ATOM     13  C   LIG    1       -2.526  -7.120  -6.787  0.00  0.00    +0.002 A 
ATOM     14  C   LIG    1       -3.823  -6.893  -7.199  0.00  0.00    +0.015 A 
BRANCH   9  15
ATOM     15  C   LIG    1       -5.538  -5.440  -8.271  0.00  0.00    +0.339 C 
ATOM     16  O   LIG    1       -5.823  -4.391  -8.814  0.00  0.00    -0.245 OA
BRANCH  15  18
ATOM     17  C   LIG    1       -7.827  -6.064  -8.543  0.00  0.00    +0.280 C 
ATOM     18  O   LIG    1       -6.487  -6.377  -8.078  0.00  0.00    -0.464 OA
ENDBRANCH  15  18
ENDBRANCH   9  15
ENDBRANCH   8  12
ENDBRANCH   1   8
BRANCH   5  19
ATOM     19  C   LIG    1        1.238  -4.079  -1.491  0.00  0.00    +0.163 C 
BRANCH  19  20
ATOM     20  O   LIG    1        1.221  -2.655  -1.371  0.00  0.00    -0.375 OA
BRANCH  20  21
ATOM     21  C   LIG    1        1.227  -2.186  -0.021  0.00  0.00    +0.195 C 
BRANCH  21  22
ATOM     22  C   LIG    1        1.208  -0.679  -0.013  0.00  0.00    -0.022 A 
ATOM     23  C   LIG    1        0.002  -0.004   0.002  0.00  0.00    +0.009 A 
ATOM     24  C   LIG    1       -0.017   1.378   0.010  0.00  0.00    +0.038 A 
ATOM     25  C   LIG    1        1.173   2.086   0.002  0.00  0.00    +0.123 A 
ATOM     26  F   LIG    1        1.156   3.437   0.009  0.00  0.00    -0.205 F 
ATOM     27  C   LIG    1        2.381   1.408  -0.013  0.00  0.00    +0.038 A 
ATOM     28  C   LIG    1        2.397   0.026  -0.020  0.00  0.00    +0.009 A 
ENDBRANCH  21  22
ENDBRANCH  20  21
ENDBRANCH  19  20
ENDBRANCH   5  19
TORSDOF 8
