REMARK  Name = ZINC13641445
REMARK                            x       y       z     vdW  Elec       q    Type
REMARK                         _______ _______ _______ _____ _____    ______ ____
ROOT
ATOM      1  C   LIG    1       -3.174   2.356   0.758  0.00  0.00    -0.035 C 
ENDROOT
BRANCH   1   3
ATOM      2  C   LIG    1       -2.474   2.699  -1.616  0.00  0.00    +0.004 C 
ATOM      3  C   LIG    1       -2.326   1.799  -0.388  0.00  0.00    +0.002 C 
ENDBRANCH   1   3
BRANCH   1   4
ATOM      4  C   LIG    1       -2.999   1.474   1.996  0.00  0.00    -0.079 C 
BRANCH   4   5
ATOM      5  N   LIG    1       -3.963   1.900   3.027  0.00  0.00    +0.378 N 
ATOM      6  H   LIG    1       -4.917   1.773   2.670  0.00  0.00    -0.090 HD
ATOM      7  H   LIG    1       -3.821   2.882   3.254  0.00  0.00    -0.090 HD
ATOM      8  H   LIG    1       -3.845   1.337   3.868  0.00  0.00    -0.090 HD
ENDBRANCH   4   5
ENDBRANCH   1   4
BRANCH   1   9
ATOM      9  C   LIG    1       -2.723   3.782   1.079  0.00  0.00    +0.125 C 
BRANCH   9  10
ATOM     10  C   LIG    1       -1.273   3.771   1.487  0.00  0.00    +0.305 C 
ATOM     11  O   LIG    1       -0.662   2.729   1.518  0.00  0.00    -0.251 OA
BRANCH  10  12
ATOM     12  O   LIG    1       -0.658   4.919   1.812  0.00  0.00    -0.481 OA
ATOM     13  H   LIG    1       -1.132   5.727   1.787  0.00  0.00    +0.295 HD
ENDBRANCH  10  12
ENDBRANCH   9  10
ENDBRANCH   1   9
BRANCH   1  14
ATOM     14  C   LIG    1       -4.646   2.367   0.343  0.00  0.00    +0.008 C 
BRANCH  14  15
ATOM     15  C   LIG    1       -5.044   0.980  -0.166  0.00  0.00    -0.017 C 
ATOM     16  C   LIG    1       -6.393   1.066  -0.882  0.00  0.00    +0.007 C 
ATOM     17  C   LIG    1       -5.155   0.015   1.017  0.00  0.00    +0.007 C 
ENDBRANCH  14  15
ENDBRANCH   1  14
TORSDOF 8
