REMARK  Name = ZINC13673990
REMARK                            x       y       z     vdW  Elec       q    Type
REMARK                         _______ _______ _______ _____ _____    ______ ____
ROOT
ATOM      1  N   LIG    1       -3.505   6.222   0.438  0.00  0.00    -0.266 N 
ATOM      2  H   LIG    1       -3.581   7.097   0.026  0.00  0.00    +0.156 HD
ATOM      3  C   LIG    1       -4.545   5.707   1.123  0.00  0.00    +0.310 C 
ATOM      4  N   LIG    1       -5.656   6.444   1.315  0.00  0.00    -0.236 N 
ATOM      5  H   LIG    1       -5.708   7.345   0.961  0.00  0.00    +0.159 HD
ATOM      6  C   LIG    1       -6.696   5.929   2.001  0.00  0.00    +0.253 C 
ATOM      7  O   LIG    1       -6.632   4.799   2.445  0.00  0.00    -0.270 OA
ATOM      8  O   LIG    1       -4.480   4.577   1.567  0.00  0.00    -0.252 OA
ENDROOT
BRANCH   6   9
ATOM      9  C   LIG    1       -7.913   6.736   2.211  0.00  0.00    +0.058 A 
ATOM     10  C   LIG    1       -7.990   8.035   1.702  0.00  0.00    +0.055 A 
ATOM     11  C   LIG    1       -9.131   8.785   1.902  0.00  0.00    +0.159 A 
ATOM     12  F   LIG    1       -9.207  10.041   1.411  0.00  0.00    -0.202 F 
ATOM     13  C   LIG    1      -10.201   8.251   2.609  0.00  0.00    +0.160 A 
ATOM     14  F   LIG    1      -11.316   8.989   2.802  0.00  0.00    -0.202 F 
ATOM     15  C   LIG    1      -10.130   6.964   3.115  0.00  0.00    +0.062 A 
ATOM     16  C   LIG    1       -8.996   6.202   2.917  0.00  0.00    +0.056 A 
ATOM     17 CL   LIG    1       -8.912   4.587   3.547  0.00  0.00    -0.083 Cl
ENDBRANCH   6   9
BRANCH   1  22
ATOM     18  C   LIG    1       -1.171   3.392   0.102  0.00  0.00    +0.037 A 
ATOM     19  C   LIG    1        0.049   4.056   0.093  0.00  0.00    +0.027 A 
ATOM     20  C   LIG    1        0.088   5.434   0.188  0.00  0.00    +0.049 A 
ATOM     21  C   LIG    1       -1.089   6.156   0.304  0.00  0.00    +0.141 A 
ATOM     22  C   LIG    1       -2.313   5.493   0.320  0.00  0.00    +0.079 A 
ATOM     23  C   LIG    1       -2.352   4.111   0.219  0.00  0.00    +0.050 A 
BRANCH  18  28
ATOM     24  C   LIG    1        0.903  -0.725  -1.290  0.00  0.00    +0.129 C 
ATOM     25  N   LIG    1       -0.182  -0.010  -0.613  0.00  0.00    -0.302 N 
ATOM     26  H   LIG    1       -0.883  -0.507  -0.162  0.00  0.00    +0.150 HD
ATOM     27  C   LIG    1       -0.207   1.337  -0.618  0.00  0.00    +0.304 C 
ATOM     28  N   LIG    1       -1.208   1.995   0.000  0.00  0.00    -0.269 N 
ATOM     29  H   LIG    1       -1.955   1.501   0.374  0.00  0.00    +0.156 HD
ATOM     30  O   LIG    1        0.671   1.960  -1.183  0.00  0.00    -0.253 OA
ENDBRANCH  18  28
BRANCH  21  31
ATOM     31  O   LIG    1       -1.048   7.513   0.403  0.00  0.00    -0.493 OA
ATOM     32  C   LIG    1        0.242   8.126   0.380  0.00  0.00    +0.277 C 
ENDBRANCH  21  31
ENDBRANCH   1  22
TORSDOF 4
