REMARK  Name = ZINC13672830
REMARK                            x       y       z     vdW  Elec       q    Type
REMARK                         _______ _______ _______ _____ _____    ______ ____
ROOT
ATOM      1  N   LIG    1        3.649   3.438   0.376  0.00  0.00    -0.347 N 
ATOM      2  C   LIG    1        4.533   3.380   1.400  0.00  0.00    +0.098 A 
ATOM      3  C   LIG    1        5.783   3.697   0.949  0.00  0.00    +0.047 A 
ATOM      4  C   LIG    1        5.648   3.976  -0.493  0.00  0.00    +0.011 A 
ATOM      5  C   LIG    1        6.541   4.345  -1.495  0.00  0.00    +0.011 A 
ATOM      6  C   LIG    1        6.086   4.519  -2.784  0.00  0.00    +0.001 A 
ATOM      7  C   LIG    1        4.744   4.340  -3.083  0.00  0.00    +0.002 A 
ATOM      8  C   LIG    1        3.848   3.979  -2.100  0.00  0.00    +0.026 A 
ATOM      9  C   LIG    1        4.289   3.792  -0.794  0.00  0.00    +0.050 A 
ENDROOT
BRANCH   3  10
ATOM     10  C   LIG    1        7.017   3.751   1.742  0.00  0.00    +0.196 C 
ATOM     11  O   LIG    1        8.075   4.020   1.204  0.00  0.00    -0.287 OA
BRANCH  10  12
ATOM     12  C   LIG    1        6.974   3.478   3.194  0.00  0.00    +0.035 A 
ATOM     13  C   LIG    1        7.467   2.271   3.696  0.00  0.00    +0.013 A 
ATOM     14  C   LIG    1        7.425   2.023   5.052  0.00  0.00    +0.001 A 
ATOM     15  C   LIG    1        6.895   2.966   5.915  0.00  0.00    +0.001 A 
ATOM     16  C   LIG    1        6.405   4.163   5.426  0.00  0.00    +0.015 A 
ATOM     17  C   LIG    1        6.445   4.427   4.072  0.00  0.00    +0.024 A 
ATOM     18  I   LIG    1        5.709   6.244   3.333  0.00  0.00    -0.043 I 
ENDBRANCH  10  12
ENDBRANCH   3  10
BRANCH   1  19
ATOM     19  C   LIG    1        2.216   3.158   0.494  0.00  0.00    +0.106 C 
BRANCH  19  23
ATOM     20  C   LIG    1        0.067   1.808   1.710  0.00  0.00    -0.096 C 
ATOM     21  N   LIG    1        0.516   1.400   0.363  0.00  0.00    +0.381 N 
ATOM     22  H   LIG    1       -0.004   1.939  -0.339  0.00  0.00    -0.082 HD
ATOM     23  C   LIG    1        1.960   1.677   0.207  0.00  0.00    -0.049 C 
ATOM     24  C   LIG    1        2.374   1.358  -1.232  0.00  0.00    -0.014 C 
ATOM     25  C   LIG    1        2.098  -0.120  -1.521  0.00  0.00    -0.003 C 
ATOM     26  C   LIG    1        0.613  -0.410  -1.283  0.00  0.00    -0.019 C 
ATOM     27  C   LIG    1        0.250  -0.039   0.157  0.00  0.00    -0.079 C 
ENDBRANCH  19  23
ENDBRANCH   1  19
TORSDOF 4
