REMARK  Name = ZINC13641451
REMARK                            x       y       z     vdW  Elec       q    Type
REMARK                         _______ _______ _______ _____ _____    ______ ____
ROOT
ATOM      1  C   LIG    1       -2.596   1.030  -0.040  0.00  0.00    -0.015 C 
ENDROOT
BRANCH   1   2
ATOM      2  C   LIG    1       -2.399   0.245   1.259  0.00  0.00    -0.075 C 
ATOM      3  C   LIG    1       -1.127  -0.599   1.157  0.00  0.00    -0.014 C 
BRANCH   2   4
ATOM      4  N   LIG    1       -2.274   1.166   2.402  0.00  0.00    +0.380 N 
ATOM      5  H   LIG    1       -2.148   0.620   3.263  0.00  0.00    -0.090 HD
ATOM      6  H   LIG    1       -3.115   1.733   2.488  0.00  0.00    -0.090 HD
ATOM      7  H   LIG    1       -1.467   1.774   2.274  0.00  0.00    -0.090 HD
ENDBRANCH   2   4
ENDBRANCH   1   2
BRANCH   1   8
ATOM      8  C   LIG    1       -3.937   1.766   0.007  0.00  0.00    +0.002 C 
BRANCH   8  10
ATOM      9  C   LIG    1       -6.416   1.485  -0.114  0.00  0.00    +0.004 C 
ATOM     10  C   LIG    1       -5.079   0.748  -0.020  0.00  0.00    -0.003 C 
ENDBRANCH   8  10
ENDBRANCH   1   8
BRANCH   1  11
ATOM     11  C   LIG    1       -1.462   2.045  -0.199  0.00  0.00    +0.122 C 
BRANCH  11  12
ATOM     12  C   LIG    1       -0.226   1.343  -0.698  0.00  0.00    +0.305 C 
ATOM     13  O   LIG    1       -0.292   0.195  -1.072  0.00  0.00    -0.251 OA
BRANCH  12  14
ATOM     14  O   LIG    1        0.948   1.993  -0.734  0.00  0.00    -0.481 OA
ATOM     15  H   LIG    1        0.999   2.883  -0.444  0.00  0.00    +0.295 HD
ENDBRANCH  12  14
ENDBRANCH  11  12
ENDBRANCH   1  11
TORSDOF 7
