REMARK  Name = ZINC13587967
REMARK                            x       y       z     vdW  Elec       q    Type
REMARK                         _______ _______ _______ _____ _____    ______ ____
ROOT
ATOM      1  C   LIG    1        0.302   7.475  -0.598  0.00  0.00    +0.016 A 
ATOM      2  C   LIG    1       -0.318   6.258  -0.741  0.00  0.00    +0.011 A 
ATOM      3  C   LIG    1        0.443   5.122  -0.451  0.00  0.00    +0.003 A 
ATOM      4  C   LIG    1        1.794   5.229  -0.028  0.00  0.00    +0.048 A 
ATOM      5  N   LIG    1        2.259   3.961   0.176  0.00  0.00    -0.357 N 
ATOM      6  C   LIG    1        1.269   3.056  -0.098  0.00  0.00    +0.034 A 
ATOM      7  C   LIG    1        1.355   1.551  -0.003  0.00  0.00    +0.134 C 
ATOM      8  N   LIG    1       -0.012   1.005   0.008  0.00  0.00    -0.310 NA
ATOM      9  H   LIG    1       -0.491   1.282   0.958  0.00  0.00    +0.122 HD
ATOM     10  C   LIG    1       -0.806   1.527  -1.113  0.00  0.00    +0.086 C 
ATOM     11  C   LIG    1       -1.132   3.006  -0.863  0.00  0.00    +0.052 C 
ATOM     12  H   LIG    1        3.294   3.802   0.511  0.00  0.00    +0.166 HD
ATOM     13  C   LIG    1        2.397   6.477   0.109  0.00  0.00    +0.041 A 
ATOM     14  C   LIG    1        0.148   3.707  -0.483  0.00  0.00    -0.017 A 
ATOM     15  C   LIG    1        1.621   7.585  -0.185  0.00  0.00    +0.020 A 
ATOM     16 BR   LIG    1        2.385   9.307  -0.019  0.00  0.00    -0.050 Br
ENDROOT
TORSDOF 0
