REMARK  Name = ZINC13611494
REMARK                            x       y       z     vdW  Elec       q    Type
REMARK                         _______ _______ _______ _____ _____    ______ ____
ROOT
ATOM      1  C   LIG    1       -5.619   0.770  -1.537  0.00  0.00    +0.140 A 
ATOM      2  C   LIG    1       -6.925   1.054  -1.159  0.00  0.00    +0.065 A 
ATOM      3  C   LIG    1       -7.962   0.357  -1.788  0.00  0.00    +0.046 A 
ATOM      4  C   LIG    1       -7.646  -0.588  -2.764  0.00  0.00    +0.127 A 
ATOM      5  N   LIG    1       -6.392  -0.823  -3.091  0.00  0.00    -0.258 NA
ATOM      6  C   LIG    1       -5.391  -0.181  -2.521  0.00  0.00    +0.156 A 
ENDROOT
BRANCH   3   7
ATOM      7  C   LIG    1       -9.327   0.610  -1.435  0.00  0.00    -0.065 C 
ATOM      8  C   LIG    1      -10.445   0.818  -1.146  0.00  0.00    -0.097 C 
BRANCH   8   9
ATOM      9  C   LIG    1      -11.848   1.077  -0.783  0.00  0.00    +0.089 C 
BRANCH   9  10
ATOM     10  C   LIG    1      -12.181   2.546  -1.055  0.00  0.00    +0.015 C 
BRANCH  10  11
ATOM     11  C   LIG    1      -13.639   2.816  -0.678  0.00  0.00    +0.034 C 
BRANCH  11  12
ATOM     12  C   LIG    1      -13.973   4.285  -0.949  0.00  0.00    +0.213 C 
ATOM     13  F   LIG    1      -15.306   4.532  -0.605  0.00  0.00    -0.249 F 
ENDBRANCH  11  12
ENDBRANCH  10  11
ENDBRANCH   9  10
ENDBRANCH   8   9
ENDBRANCH   3   7
BRANCH   1  14
ATOM     14  O   LIG    1       -4.578   1.421  -0.955  0.00  0.00    -0.492 OA
BRANCH  14  15
ATOM     15  C   LIG    1       -3.265   1.073  -1.399  0.00  0.00    +0.214 C 
BRANCH  15  19
ATOM     16  C   LIG    1       -3.088   2.384   1.587  0.00  0.00    -0.096 C 
ATOM     17  N   LIG    1       -2.194   1.501   0.776  0.00  0.00    +0.382 N 
ATOM     18  H   LIG    1       -2.508   0.528   0.868  0.00  0.00    -0.082 HD
ATOM     19  C   LIG    1       -2.231   1.904  -0.635  0.00  0.00    -0.031 C 
ATOM     20  C   LIG    1       -0.822   1.629  -1.192  0.00  0.00    -0.014 C 
ATOM     21  C   LIG    1       -0.013   1.086   0.008  0.00  0.00    -0.020 C 
ATOM     22  C   LIG    1       -0.801   1.617   1.232  0.00  0.00    -0.079 C 
ENDBRANCH  15  19
ENDBRANCH  14  15
ENDBRANCH   1  14
TORSDOF 8
