REMARK  Name = ZINC13586733
REMARK                            x       y       z     vdW  Elec       q    Type
REMARK                         _______ _______ _______ _____ _____    ______ ____
ROOT
ATOM      1  C   UNK A  0       -7.019   0.002  -1.539  0.00  0.00    +0.037 A 
ATOM      2  C   UNK A  0       -6.774   1.129  -2.328  0.00  0.00    +0.015 A 
ATOM      3  C   UNK A  0       -5.511   1.675  -2.372  0.00  0.00    +0.024 A 
ATOM      4  C   UNK A  0       -4.479   1.107  -1.632  0.00  0.00    +0.033 A 
ATOM      5  C   UNK A  0       -4.719  -0.019  -0.850  0.00  0.00    +0.024 A 
ATOM      6  C   UNK A  0       -5.980  -0.567  -0.797  0.00  0.00    +0.015 A 
ENDROOT
BRANCH   1   9
ATOM      7  N   MET A  1       -8.607  -1.673  -0.728  0.00  0.00    -0.298 N 
ATOM      8  H   MET A  1       -7.886  -2.069  -0.212  0.00  0.00    +0.150 HD
ATOM      9  C   UNK A  0       -8.372  -0.586  -1.489  0.00  0.00    +0.245 C 
ATOM     10  O   UNK A  0       -9.275  -0.090  -2.135  0.00  0.00    -0.270 OA
BRANCH   7  11
ATOM     11  CA  MET A  1       -9.949  -2.257  -0.678  0.00  0.00    +0.183 C 
BRANCH  11  12
ATOM     12  C   MET A  1      -10.774  -1.534   0.355  0.00  0.00    +0.325 C 
ATOM     13  O   MET A  1      -10.290  -0.624   0.985  0.00  0.00    -0.249 OA
BRANCH  12  14
ATOM     14  OXT MET A  1      -12.046  -1.900   0.575  0.00  0.00    -0.479 OA
ATOM     15  HXT MET A  1      -12.422  -2.606   0.086  0.00  0.00    +0.295 HD
ENDBRANCH  12  14
ENDBRANCH  11  12
BRANCH  11  16
ATOM     16  CB  MET A  1       -9.848  -3.737  -0.305  0.00  0.00    +0.044 C 
BRANCH  16  17
ATOM     17  CG  MET A  1       -9.118  -4.495  -1.416  0.00  0.00    +0.071 C 
BRANCH  17  19
ATOM     18  CE  MET A  1       -8.119  -6.996  -2.374  0.00  0.00    +0.084 C 
ATOM     19  SD  MET A  1       -8.998  -6.250  -0.974  0.00  0.00    -0.164 S 
ENDBRANCH  17  19
ENDBRANCH  16  17
ENDBRANCH  11  16
ENDBRANCH   7  11
ENDBRANCH   1   9
BRANCH   4  20
ATOM     20  N   UNK A  0       -3.201   1.662  -1.679  0.00  0.00    -0.287 N 
ATOM     21  H   UNK A  0       -2.881   2.073  -2.497  0.00  0.00    +0.155 HD
ATOM     22  C   UNK A  0       -2.411   1.628  -0.588  0.00  0.00    +0.203 C 
ATOM     23  O   UNK A  0       -2.844   1.201   0.461  0.00  0.00    -0.277 OA
BRANCH  22  24
ATOM     24  C   UNK A  0       -0.989   2.120  -0.672  0.00  0.00    +0.023 C 
BRANCH  24  25
ATOM     25  N   UNK A  0       -0.516   2.449   0.684  0.00  0.00    +0.386 N 
ATOM     26  H   UNK A  0       -1.138   3.154   1.097  0.00  0.00    -0.089 HD
ATOM     27  H   UNK A  0        0.430   2.825   0.642  0.00  0.00    -0.089 HD
ATOM     28  H   UNK A  0       -0.524   1.615   1.269  0.00  0.00    -0.089 HD
ENDBRANCH  24  25
BRANCH  24  29
ATOM     29  C   UNK A  0       -0.110   1.035  -1.296  0.00  0.00    +0.058 C 
BRANCH  29  30
ATOM     30  S   UNK A  0        1.602   1.627  -1.397  0.00  0.00    -0.179 S 
ATOM     31  H   UNK A  0        2.269   0.601  -1.954  0.00  0.00    +0.102 HD
ENDBRANCH  29  30
ENDBRANCH  24  29
ENDBRANCH  22  24
ENDBRANCH   4  20
TORSDOF 12
