REMARK  Name = ZINC13732799
REMARK                            x       y       z     vdW  Elec       q    Type
REMARK                         _______ _______ _______ _____ _____    ______ ____
ROOT
ATOM      1  C   LIG    1        2.397   1.172  -0.167  0.00  0.00    +0.138 C 
ATOM      2  N   LIG    1        1.151   1.933  -0.052  0.00  0.00    -0.271 N 
ATOM      3  C   LIG    1        1.251   3.314   0.023  0.00  0.00    +0.045 A 
ATOM      4  C   LIG    1        2.282   3.841   0.804  0.00  0.00    +0.024 A 
ATOM      5  C   LIG    1        2.446   5.203   0.925  0.00  0.00    +0.002 A 
ATOM      6  C   LIG    1        1.584   6.067   0.270  0.00  0.00    +0.001 A 
ATOM      7  C   LIG    1        0.563   5.567  -0.504  0.00  0.00    +0.012 A 
ATOM      8  C   LIG    1        0.383   4.181  -0.637  0.00  0.00    +0.022 A 
ATOM      9  C   LIG    1       -0.733   3.716  -1.475  0.00  0.00    +0.077 C 
ATOM     10  N   LIG    1       -1.500   2.723  -1.194  0.00  0.00    -0.251 NA
ATOM     11  C   LIG    1       -1.326   1.933   0.017  0.00  0.00    +0.280 C 
ATOM     12  C   LIG    1        0.012   1.246  -0.029  0.00  0.00    +0.262 C 
ATOM     13  O   LIG    1        0.052   0.034  -0.051  0.00  0.00    -0.271 OA
ENDROOT
BRANCH   9  14
ATOM     14  C   LIG    1       -0.991   4.445  -2.739  0.00  0.00    +0.001 A 
ATOM     15  C   LIG    1       -2.263   4.427  -3.311  0.00  0.00    +0.010 A 
ATOM     16  C   LIG    1       -2.499   5.112  -4.485  0.00  0.00    +0.001 A 
ATOM     17  C   LIG    1       -1.474   5.808  -5.100  0.00  0.00    +0.000 A 
ATOM     18  C   LIG    1       -0.208   5.825  -4.541  0.00  0.00    +0.001 A 
ATOM     19  C   LIG    1        0.038   5.148  -3.365  0.00  0.00    +0.010 A 
ENDBRANCH   9  14
BRANCH  11  20
ATOM     20  N   LIG    1       -1.384   2.815   1.186  0.00  0.00    -0.270 N 
ATOM     21  H   LIG    1       -0.633   3.392   1.396  0.00  0.00    +0.153 HD
ATOM     22  C   LIG    1       -2.481   2.824   1.969  0.00  0.00    +0.306 C 
ATOM     23  N   LIG    1       -2.534   3.635   3.045  0.00  0.00    -0.268 N 
ATOM     24  H   LIG    1       -1.809   4.254   3.222  0.00  0.00    +0.156 HD
ATOM     25  O   LIG    1       -3.422   2.100   1.706  0.00  0.00    -0.252 OA
BRANCH  23  26
ATOM     26  C   LIG    1       -3.637   3.584   3.906  0.00  0.00    +0.053 A 
ATOM     27  C   LIG    1       -4.867   3.143   3.436  0.00  0.00    +0.026 A 
ATOM     28  C   LIG    1       -5.953   3.090   4.288  0.00  0.00    +0.022 A 
ATOM     29  C   LIG    1       -5.818   3.484   5.608  0.00  0.00    +0.042 A 
ATOM     30 CL   LIG    1       -7.186   3.421   6.674  0.00  0.00    -0.083 Cl
ATOM     31  C   LIG    1       -4.596   3.929   6.078  0.00  0.00    +0.041 A 
ATOM     32  C   LIG    1       -3.505   3.980   5.231  0.00  0.00    +0.064 A 
ATOM     33 CL   LIG    1       -1.971   4.538   5.822  0.00  0.00    -0.082 Cl
ENDBRANCH  23  26
ENDBRANCH  11  20
TORSDOF 3
