REMARK  Name = ZINC13739810
REMARK                            x       y       z     vdW  Elec       q    Type
REMARK                         _______ _______ _______ _____ _____    ______ ____
ROOT
ATOM      1  N   LIG    1        1.223  -0.406  -0.012  0.00  0.00    -0.183 N 
ATOM      2  N   LIG    1        0.002  -0.004   0.002  0.00  0.00    -0.160 NA
ATOM      3  C   LIG    1       -0.016   1.308   0.009  0.00  0.00    +0.164 A 
ATOM      4  C   LIG    1        1.335   1.709  -0.002  0.00  0.00    +0.107 A 
ATOM      5  N   LIG    1        2.038   0.589  -0.014  0.00  0.00    -0.153 NA
ENDROOT
BRANCH   4   6
ATOM      6  C   LIG    1        1.857   3.093   0.001  0.00  0.00    -0.039 C 
ATOM      7  C   LIG    1        3.159   3.271  -0.006  0.00  0.00    -0.025 C 
ATOM      8  C   LIG    1        3.792   4.635  -0.002  0.00  0.00    +0.009 C 
ATOM      9  C   LIG    1        2.751   5.689  -0.389  0.00  0.00    -0.075 C 
ATOM     10  N   LIG    1        1.552   5.468   0.443  0.00  0.00    +0.381 N 
ATOM     11  H   LIG    1        1.838   5.373   1.425  0.00  0.00    -0.082 HD
ATOM     12  C   LIG    1        0.628   6.618   0.320  0.00  0.00    -0.096 C 
ATOM     13  C   LIG    1        0.874   4.229   0.017  0.00  0.00    -0.041 C 
ENDBRANCH   4   6
BRANCH   1  14
ATOM     14  C   LIG    1        1.632  -1.813  -0.023  0.00  0.00    +0.166 C 
BRANCH  14  16
ATOM     15  C   LIG    1        2.188  -3.764  -1.482  0.00  0.00    +0.006 C 
ATOM     16  C   LIG    1        1.761  -2.295  -1.470  0.00  0.00    +0.022 C 
ENDBRANCH  14  16
ENDBRANCH   1  14
TORSDOF 3
