REMARK  Name = ZINC13741583
REMARK                            x       y       z     vdW  Elec       q    Type
REMARK                         _______ _______ _______ _____ _____    ______ ____
ROOT
ATOM      1  C   LIG    1       -2.282   3.154   4.776  0.00  0.00    +0.078 C 
ATOM      2  C   LIG    1       -2.248   2.118   5.905  0.00  0.00    +0.027 C 
ATOM      3  C   LIG    1       -0.804   1.656   6.091  0.00  0.00    +0.037 C 
ATOM      4  C   LIG    1       -0.210   1.233   4.773  0.00  0.00    -0.041 A 
ATOM      5  C   LIG    1        0.934   0.445   4.802  0.00  0.00    +0.004 A 
ATOM      6  C   LIG    1        1.533   0.029   3.631  0.00  0.00    +0.004 A 
ATOM      7  C   LIG    1        0.989   0.394   2.414  0.00  0.00    +0.046 A 
ATOM      8  C   LIG    1       -0.149   1.182   2.380  0.00  0.00    +0.124 A 
ATOM      9  C   LIG    1       -0.754   1.600   3.564  0.00  0.00    -0.001 A 
ATOM     10  C   LIG    1       -2.001   2.438   3.456  0.00  0.00    +0.061 C 
ENDROOT
BRANCH   1  13
ATOM     11  C   LIG    1       -5.240   5.484   5.466  0.00  0.00    +0.109 C 
ATOM     12  C   LIG    1       -3.881   4.836   5.519  0.00  0.00    +0.210 C 
ATOM     13  N   LIG    1       -3.604   3.784   4.724  0.00  0.00    -0.312 N 
ATOM     14  H   LIG    1       -4.280   3.444   4.117  0.00  0.00    +0.149 HD
ATOM     15  O   LIG    1       -3.035   5.262   6.278  0.00  0.00    -0.276 OA
ENDBRANCH   1  13
BRANCH   8  16
ATOM     16  O   LIG    1       -0.682   1.547   1.184  0.00  0.00    -0.495 OA
ATOM     17  C   LIG    1       -0.013   1.086   0.008  0.00  0.00    +0.277 C 
ENDBRANCH   8  16
TORSDOF 2
