REMARK  Name = ZINC13678207
REMARK                            x       y       z     vdW  Elec       q    Type
REMARK                         _______ _______ _______ _____ _____    ______ ____
ROOT
ATOM      1  C   LIG    1        0.499   1.448  -0.006  0.00  0.00    +0.046 C 
ATOM      2  C   LIG    1        0.176  -0.025  -0.004  0.00  0.00    -0.025 A 
ATOM      3  C   LIG    1       -0.021  -0.692  -1.193  0.00  0.00    +0.005 A 
ATOM      4  C   LIG    1       -0.318  -2.048  -1.200  0.00  0.00    +0.002 A 
ATOM      5  C   LIG    1       -0.420  -2.746  -0.032  0.00  0.00    +0.030 A 
ATOM      6  C   LIG    1       -0.224  -2.092   1.191  0.00  0.00    +0.090 A 
ATOM      7  N   LIG    1       -0.258  -2.498   2.473  0.00  0.00    -0.223 NA
ATOM      8  C   LIG    1        0.012  -1.491   3.264  0.00  0.00    +0.195 A 
ATOM      9  N   LIG    1        0.223  -0.361   2.519  0.00  0.00    -0.334 N 
ATOM     10  H   LIG    1        0.432   0.523   2.859  0.00  0.00    +0.168 HD
ATOM     11  C   LIG    1        0.083  -0.716   1.197  0.00  0.00    +0.070 A 
ENDROOT
BRANCH   8  12
ATOM     12  C   LIG    1        0.067  -1.560   4.741  0.00  0.00    +0.282 C 
ATOM     13  N   LIG    1       -0.012  -2.753   5.363  0.00  0.00    -0.299 N 
ATOM     14  C   LIG    1        0.002  -4.009   4.597  0.00  0.00    +0.089 C 
ATOM     15  C   LIG    1        1.054  -4.939   5.208  0.00  0.00    -0.060 C 
ATOM     16  N   LIG    1        0.785  -5.107   6.641  0.00  0.00    +0.380 N 
ATOM     17  H   LIG    1       -0.159  -5.442   6.768  0.00  0.00    -0.082 HD
ATOM     18  C   LIG    1        1.726  -6.085   7.204  0.00  0.00    -0.096 C 
ATOM     19  C   LIG    1        0.944  -3.822   7.334  0.00  0.00    -0.060 C 
ATOM     20  C   LIG    1       -0.109  -2.837   6.829  0.00  0.00    +0.089 C 
ATOM     21  O   LIG    1        0.185  -0.541   5.393  0.00  0.00    -0.267 OA
ENDBRANCH   8  12
TORSDOF 1
