REMARK  Name = ZINC13559250
REMARK                            x       y       z     vdW  Elec       q    Type
REMARK                         _______ _______ _______ _____ _____    ______ ____
ROOT
ATOM      1  N   LIG    1        1.174   0.024  -2.073  0.00  0.00    -0.102 N 
ATOM      2  C   LIG    1        1.836  -0.570  -3.246  0.00  0.00    +0.233 C 
ATOM      3  C   LIG    1        2.288   0.656  -4.064  0.00  0.00    +0.105 C 
ATOM      4  C   LIG    1        1.820   1.836  -3.242  0.00  0.00    +0.092 C 
ATOM      5  N   LIG    1        1.221   1.412  -2.183  0.00  0.00    -0.121 NA
ENDROOT
BRANCH   4   6
ATOM      6  C   LIG    1        2.014   3.253  -3.601  0.00  0.00    -0.000 A 
ATOM      7  C   LIG    1        2.670   3.594  -4.786  0.00  0.00    +0.011 A 
ATOM      8  C   LIG    1        2.848   4.921  -5.115  0.00  0.00    +0.020 A 
ATOM      9  C   LIG    1        2.377   5.915  -4.274  0.00  0.00    +0.041 A 
ATOM     10 CL   LIG    1        2.605   7.584  -4.696  0.00  0.00    -0.084 Cl
ATOM     11  C   LIG    1        1.725   5.584  -3.098  0.00  0.00    +0.020 A 
ATOM     12  C   LIG    1        1.536   4.261  -2.760  0.00  0.00    +0.011 A 
ENDBRANCH   4   6
BRANCH   3  13
ATOM     13  C   LIG    1        1.631   0.659  -5.420  0.00  0.00    -0.035 A 
ATOM     14  C   LIG    1        0.253   0.706  -5.520  0.00  0.00    +0.004 A 
ATOM     15  C   LIG    1       -0.350   0.709  -6.764  0.00  0.00    +0.000 A 
ATOM     16  C   LIG    1        0.424   0.664  -7.908  0.00  0.00    +0.000 A 
ATOM     17  C   LIG    1        1.802   0.617  -7.808  0.00  0.00    +0.000 A 
ATOM     18  C   LIG    1        2.406   0.619  -6.564  0.00  0.00    +0.004 A 
ENDBRANCH   3  13
BRANCH   1  19
ATOM     19  C   LIG    1        0.597  -0.678  -1.039  0.00  0.00    +0.417 C 
ATOM     20  N   LIG    1        0.615  -1.982  -1.046  0.00  0.00    +0.060 NA
BRANCH  19  22
ATOM     21  C   LIG    1       -0.018   1.461   0.010  0.00  0.00    +0.225 C 
ATOM     22  N   LIG    1        0.002  -0.004   0.002  0.00  0.00    -0.238 N 
ATOM     23  H   LIG    1       -0.404  -0.499   0.731  0.00  0.00    +0.244 HD
ENDBRANCH  19  22
BRANCH  20  24
ATOM     24  S   LIG    1       -0.079  -2.826   0.198  0.00  0.00    +0.155 S 
ATOM     25  O   LIG    1       -1.475  -2.571   0.133  0.00  0.00    -0.132 OA
ATOM     26  O   LIG    1        0.693  -2.548   1.358  0.00  0.00    -0.132 OA
BRANCH  24  27
ATOM     27  C   LIG    1        0.136  -4.540  -0.151  0.00  0.00    +0.127 A 
ATOM     28  C   LIG    1       -0.819  -5.221  -0.882  0.00  0.00    +0.032 A 
ATOM     29  C   LIG    1       -0.651  -6.565  -1.157  0.00  0.00    +0.022 A 
ATOM     30  C   LIG    1        0.474  -7.229  -0.700  0.00  0.00    +0.041 A 
ATOM     31 CL   LIG    1        0.686  -8.917  -1.044  0.00  0.00    -0.084 Cl
ATOM     32  C   LIG    1        1.430  -6.546   0.031  0.00  0.00    +0.022 A 
ATOM     33  C   LIG    1        1.263  -5.200   0.300  0.00  0.00    +0.032 A 
ENDBRANCH  24  27
ENDBRANCH  20  24
ENDBRANCH   1  19
TORSDOF 6
