REMARK  Name = ZINC13742898
REMARK                            x       y       z     vdW  Elec       q    Type
REMARK                         _______ _______ _______ _____ _____    ______ ____
ROOT
ATOM      1  C   LIG    1        0.011   1.072   2.506  0.00  0.00    +0.017 C 
ATOM      2  C   LIG    1       -0.729   1.579   1.267  0.00  0.00    +0.068 C 
ENDROOT
BRANCH   2   3
ATOM      3  P   LIG    1       -2.439   0.948   1.280  0.00  0.00    +0.193 P 
ATOM      4  O   LIG    1       -2.432  -0.489   1.633  0.00  0.00    -0.294 OA
ATOM      5  H   LIG    1       -3.003   0.942   0.336  0.00  0.00    +0.128 HD
BRANCH   3   6
ATOM      6  O   LIG    1       -3.304   1.764   2.366  0.00  0.00    -0.345 OA
ATOM      7  H   LIG    1       -3.308   2.706   2.134  0.00  0.00    +0.217 HD
ENDBRANCH   3   6
ENDBRANCH   2   3
BRANCH   2   8
ATOM      8  C   LIG    1       -0.013   1.086   0.008  0.00  0.00    -0.007 C 
BRANCH   8   9
ATOM      9  C   LIG    1       -0.753   1.593  -1.232  0.00  0.00    -0.086 C 
BRANCH   9  10
ATOM     10  N   LIG    1       -0.065   1.119  -2.440  0.00  0.00    +0.378 N 
ATOM     11  H   LIG    1        0.967   1.500  -2.448  0.00  0.00    -0.090 HD
ATOM     12  H   LIG    1       -0.050   0.019  -2.446  0.00  0.00    -0.090 HD
ATOM     13  H   LIG    1       -0.597   1.483  -3.331  0.00  0.00    -0.090 HD
ENDBRANCH   9  10
ENDBRANCH   8   9
ENDBRANCH   2   8
TORSDOF 5
