REMARK  Name = ZINC13686981
REMARK                            x       y       z     vdW  Elec       q    Type
REMARK                         _______ _______ _______ _____ _____    ______ ____
ROOT
ATOM      1  C   LIG    1       -2.310   5.726   3.817  0.00  0.00    +0.000 A 
ATOM      2  C   LIG    1       -2.239   4.956   4.963  0.00  0.00    +0.000 A 
ATOM      3  C   LIG    1       -1.725   3.677   4.901  0.00  0.00    +0.005 A 
ATOM      4  C   LIG    1       -1.278   3.158   3.694  0.00  0.00    -0.030 A 
ATOM      5  C   LIG    1       -1.345   3.928   2.552  0.00  0.00    -0.041 A 
ATOM      6  C   LIG    1       -0.866   3.411   1.220  0.00  0.00    +0.059 C 
ATOM      7  C   LIG    1       -0.733   1.888   1.268  0.00  0.00    +0.125 C 
ATOM      8  N   LIG    1        0.052   1.525   2.459  0.00  0.00    -0.304 NA
ATOM      9  H   LIG    1        0.330   0.462   2.405  0.00  0.00    +0.123 HD
ATOM     10  C   LIG    1       -0.734   1.754   3.675  0.00  0.00    +0.117 C 
ATOM     11  C   LIG    1       -1.863   5.213   2.616  0.00  0.00    +0.004 A 
ENDROOT
BRANCH   7  12
ATOM     12  C   LIG    1       -0.017   1.395   0.010  0.00  0.00    +0.358 C 
ATOM     13  F   LIG    1        1.296   1.879  -0.000  0.00  0.00    -0.208 F 
ATOM     14  F   LIG    1        0.002  -0.004   0.002  0.00  0.00    -0.208 F 
ENDBRANCH   7  12
TORSDOF 1
