REMARK  Name = ZINC13732897
REMARK                            x       y       z     vdW  Elec       q    Type
REMARK                         _______ _______ _______ _____ _____    ______ ____
ROOT
ATOM      1  C   LIG    1        2.151   5.889   2.728  0.00  0.00    +0.138 C 
ATOM      2  N   LIG    1        1.639   5.382   1.452  0.00  0.00    -0.271 N 
ATOM      3  C   LIG    1        2.486   4.589   0.693  0.00  0.00    +0.045 A 
ATOM      4  C   LIG    1        3.829   4.966   0.627  0.00  0.00    +0.024 A 
ATOM      5  C   LIG    1        4.731   4.226  -0.105  0.00  0.00    +0.002 A 
ATOM      6  C   LIG    1        4.312   3.095  -0.785  0.00  0.00    +0.001 A 
ATOM      7  C   LIG    1        2.993   2.709  -0.733  0.00  0.00    +0.012 A 
ATOM      8  C   LIG    1        2.061   3.453   0.014  0.00  0.00    +0.022 A 
ATOM      9  C   LIG    1        0.666   2.985   0.017  0.00  0.00    +0.077 C 
ATOM     10  N   LIG    1       -0.366   3.748  -0.053  0.00  0.00    -0.251 NA
ATOM     11  C   LIG    1       -0.246   5.202  -0.146  0.00  0.00    +0.280 C 
ATOM     12  C   LIG    1        0.397   5.719   1.112  0.00  0.00    +0.262 C 
ATOM     13  O   LIG    1       -0.232   6.463   1.835  0.00  0.00    -0.271 OA
ENDROOT
BRANCH   9  14
ATOM     14  C   LIG    1        0.434   1.525   0.115  0.00  0.00    +0.001 A 
ATOM     15  C   LIG    1        1.408   0.696   0.671  0.00  0.00    +0.010 A 
ATOM     16  C   LIG    1        1.186  -0.663   0.760  0.00  0.00    +0.001 A 
ATOM     17  C   LIG    1       -0.001  -1.204   0.298  0.00  0.00    +0.000 A 
ATOM     18  C   LIG    1       -0.972  -0.387  -0.254  0.00  0.00    +0.001 A 
ATOM     19  C   LIG    1       -0.760   0.973  -0.349  0.00  0.00    +0.010 A 
ENDBRANCH   9  14
BRANCH  11  20
ATOM     20  N   LIG    1       -1.577   5.796  -0.296  0.00  0.00    -0.270 N 
ATOM     21  H   LIG    1       -2.172   5.851   0.468  0.00  0.00    +0.153 HD
ATOM     22  C   LIG    1       -1.974   6.265  -1.495  0.00  0.00    +0.306 C 
ATOM     23  N   LIG    1       -3.199   6.811  -1.633  0.00  0.00    -0.269 N 
ATOM     24  H   LIG    1       -3.769   6.927  -0.856  0.00  0.00    +0.156 HD
ATOM     25  O   LIG    1       -1.228   6.196  -2.452  0.00  0.00    -0.252 OA
BRANCH  23  26
ATOM     26  C   LIG    1       -3.648   7.212  -2.896  0.00  0.00    +0.035 A 
ATOM     27  C   LIG    1       -2.757   7.758  -3.812  0.00  0.00    +0.023 A 
ATOM     28  C   LIG    1       -3.204   8.145  -5.058  0.00  0.00    +0.006 A 
ATOM     29  C   LIG    1       -4.540   8.004  -5.397  0.00  0.00    -0.044 A 
ATOM     30  C   LIG    1       -5.431   7.467  -4.485  0.00  0.00    -0.042 A 
ATOM     31  C   LIG    1       -6.817   7.420  -5.091  0.00  0.00    +0.036 C 
ATOM     32  C   LIG    1       -6.764   8.383  -6.297  0.00  0.00    +0.009 C 
ATOM     33  C   LIG    1       -5.268   8.355  -6.677  0.00  0.00    +0.036 C 
ATOM     34  C   LIG    1       -4.986   7.072  -3.236  0.00  0.00    +0.027 A 
ENDBRANCH  23  26
ENDBRANCH  11  20
TORSDOF 3
