REMARK  Name = ZINC13677443
REMARK                            x       y       z     vdW  Elec       q    Type
REMARK                         _______ _______ _______ _____ _____    ______ ____
ROOT
ATOM      1  C   LIG    1       -0.017   1.375   0.010  0.00  0.00    +0.002 A 
ATOM      2  C   LIG    1        1.170   2.089   0.002  0.00  0.00    +0.002 A 
ATOM      3  C   LIG    1        2.380   1.426  -0.013  0.00  0.00    +0.030 A 
ATOM      4  C   LIG    1        2.411   0.036  -0.021  0.00  0.00    +0.091 A 
ATOM      5  C   LIG    1        1.215  -0.684  -0.013  0.00  0.00    +0.068 A 
ATOM      6  N   LIG    1        1.225  -2.076  -0.021  0.00  0.00    -0.318 N 
ATOM      7  H   LIG    1        0.387  -2.565  -0.016  0.00  0.00    +0.169 HD
ATOM      8  C   LIG    1        2.395  -2.747  -0.036  0.00  0.00    +0.294 A 
ATOM      9  O   LIG    1        2.404  -3.964  -0.043  0.00  0.00    -0.264 OA
ATOM     10  C   LIG    1        3.662  -1.994  -0.044  0.00  0.00    +0.222 A 
ATOM     11  N   LIG    1        4.925  -2.364  -0.058  0.00  0.00    -0.196 NA
ATOM     12  C   LIG    1        5.666  -1.249  -0.060  0.00  0.00    +0.260 A 
ATOM     13  N   LIG    1        4.853  -0.209  -0.046  0.00  0.00    -0.137 NA
ATOM     14  N   LIG    1        3.635  -0.630  -0.037  0.00  0.00    -0.206 N 
ATOM     15  C   LIG    1        0.002  -0.004   0.002  0.00  0.00    +0.028 A 
ENDROOT
BRANCH  12  16
ATOM     16  C   LIG    1        7.142  -1.193  -0.074  0.00  0.00    +0.376 C 
ATOM     17  O   LIG    1        7.712  -0.111  -0.074  0.00  0.00    -0.242 OA
BRANCH  16  18
ATOM     18  O   LIG    1        7.793  -2.227  -0.086  0.00  0.00    -0.475 OA
ATOM     19  H   LIG    1        7.356  -3.056  -0.086  0.00  0.00    +0.296 HD
ENDBRANCH  16  18
ENDBRANCH  12  16
TORSDOF 2
