REMARK  Name = ZINC13633981
REMARK                            x       y       z     vdW  Elec       q    Type
REMARK                         _______ _______ _______ _____ _____    ______ ____
ROOT
ATOM      1  C   LIG    1        2.432   1.106  -0.015  0.00  0.00    +0.030 C 
ATOM      2  C   LIG    1        2.566  -0.091   0.664  0.00  0.00    +0.102 C 
ATOM      3  C   LIG    1        3.794  -0.887   0.843  0.00  0.00    +0.266 C 
ATOM      4  N   LIG    1        3.455  -1.970   1.568  0.00  0.00    -0.223 N 
ATOM      5  H   LIG    1        4.070  -2.670   1.837  0.00  0.00    +0.174 HD
ATOM      6  N   LIG    1        2.096  -1.945   1.880  0.00  0.00    -0.184 N 
ATOM      7  O   LIG    1        4.901  -0.618   0.416  0.00  0.00    -0.268 OA
ATOM      8  C   LIG    1        1.514  -0.843   1.371  0.00  0.00    +0.272 C 
ATOM      9  O   LIG    1        0.342  -0.529   1.473  0.00  0.00    -0.268 OA
ENDROOT
BRANCH   6  10
ATOM     10  C   LIG    1        1.431  -2.925   2.623  0.00  0.00    +0.056 A 
ATOM     11  C   LIG    1        0.072  -2.801   2.882  0.00  0.00    +0.026 A 
ATOM     12  C   LIG    1       -0.583  -3.773   3.612  0.00  0.00    +0.016 A 
ATOM     13  C   LIG    1        0.116  -4.865   4.095  0.00  0.00    +0.013 A 
ATOM     14  I   LIG    1       -0.880  -6.333   5.210  0.00  0.00    -0.044 I 
ATOM     15  C   LIG    1        1.470  -4.990   3.843  0.00  0.00    +0.016 A 
ATOM     16  C   LIG    1        2.129  -4.023   3.109  0.00  0.00    +0.026 A 
ENDBRANCH   6  10
BRANCH   1  20
ATOM     17  C   LIG    1       -1.373   2.742  -0.638  0.00  0.00    +0.033 A 
ATOM     18  C   LIG    1       -1.164   1.371  -0.797  0.00  0.00    +0.024 A 
ATOM     19  C   LIG    1        0.071   0.834  -0.590  0.00  0.00    +0.013 A 
ATOM     20  C   LIG    1        1.146   1.661  -0.225  0.00  0.00    +0.017 A 
ATOM     21  C   LIG    1        0.939   3.047  -0.069  0.00  0.00    +0.126 A 
ATOM     22  C   LIG    1       -0.321   3.576  -0.278  0.00  0.00    +0.069 A 
BRANCH  21  23
ATOM     23  O   LIG    1        1.969   3.855   0.283  0.00  0.00    -0.506 OA
ATOM     24  H   LIG    1        2.461   4.215  -0.468  0.00  0.00    +0.292 HD
ENDBRANCH  21  23
BRANCH  17  25
ATOM     25  N   LIG    1       -2.638   3.276  -0.847  0.00  0.00    -0.330 N 
BRANCH  25  27
ATOM     26  C   LIG    1       -4.452   1.891   0.034  0.00  0.00    +0.024 C 
ATOM     27  C   LIG    1       -3.749   2.400  -1.227  0.00  0.00    +0.102 C 
ENDBRANCH  25  27
BRANCH  25  28
ATOM     28  C   LIG    1       -2.861   4.715  -0.687  0.00  0.00    +0.102 C 
ATOM     29  C   LIG    1       -2.623   5.420  -2.024  0.00  0.00    +0.024 C 
ENDBRANCH  25  28
ENDBRANCH  17  25
ENDBRANCH   1  20
TORSDOF 6
