REMARK  Name = ZINC13731513
REMARK                            x       y       z     vdW  Elec       q    Type
REMARK                         _______ _______ _______ _____ _____    ______ ____
ROOT
ATOM      1  N   LIG    1       -6.563   1.888   0.908  0.00  0.00    +0.382 N 
ATOM      2  H   LIG    1       -6.554   1.007   1.436  0.00  0.00    -0.081 HD
ATOM      3  C   LIG    1       -5.552   2.801   1.481  0.00  0.00    -0.078 C 
ATOM      4  C   LIG    1       -4.190   2.105   1.472  0.00  0.00    -0.007 C 
ATOM      5  C   LIG    1       -3.811   1.754   0.030  0.00  0.00    +0.057 C 
ATOM      6  C   LIG    1       -4.903   0.868  -0.576  0.00  0.00    -0.007 C 
ATOM      7  C   LIG    1       -6.245   1.602  -0.507  0.00  0.00    -0.078 C 
ENDROOT
BRANCH   5   8
ATOM      8  C   LIG    1       -2.499   1.013   0.020  0.00  0.00    +0.166 C 
ATOM      9  O   LIG    1       -2.487  -0.200   0.013  0.00  0.00    -0.292 OA
BRANCH   8  10
ATOM     10  C   LIG    1       -1.233   1.761   0.017  0.00  0.00    +0.018 A 
ATOM     11  C   LIG    1       -0.013   1.076   0.008  0.00  0.00    +0.014 A 
ATOM     12  C   LIG    1        1.170   1.782   0.001  0.00  0.00    +0.039 A 
ATOM     13  C   LIG    1        1.153   3.169   0.007  0.00  0.00    +0.123 A 
ATOM     14  F   LIG    1        2.316   3.856  -0.001  0.00  0.00    -0.205 F 
ATOM     15  C   LIG    1       -0.053   3.854   0.022  0.00  0.00    +0.039 A 
ATOM     16  C   LIG    1       -1.243   3.160   0.030  0.00  0.00    +0.014 A 
ENDBRANCH   8  10
ENDBRANCH   5   8
BRANCH   1  17
ATOM     17  C   LIG    1       -7.907   2.494   1.010  0.00  0.00    -0.043 C 
BRANCH  17  21
ATOM     18  C   LIG    1       -9.006   2.716   5.131  0.00  0.00    +0.000 A 
ATOM     19  C   LIG    1       -8.350   3.775   4.534  0.00  0.00    +0.000 A 
ATOM     20  C   LIG    1       -7.994   3.703   3.200  0.00  0.00    +0.002 A 
ATOM     21  C   LIG    1       -8.295   2.572   2.464  0.00  0.00    -0.064 A 
ATOM     22  C   LIG    1       -8.957   1.515   3.060  0.00  0.00    +0.002 A 
ATOM     23  C   LIG    1       -9.308   1.585   4.396  0.00  0.00    +0.000 A 
ENDBRANCH  17  21
ENDBRANCH   1  17
TORSDOF 4
