REMARK  Name = ZINC13741325
REMARK                            x       y       z     vdW  Elec       q    Type
REMARK                         _______ _______ _______ _____ _____    ______ ____
ROOT
ATOM      1  N   LIG    1        3.623  -0.651  -0.036  0.00  0.00    -0.199 N 
ATOM      2  C   LIG    1        3.864  -1.824   0.583  0.00  0.00    +0.225 A 
ATOM      3  C   LIG    1        5.184  -2.168   0.330  0.00  0.00    +0.082 A 
ATOM      4  C   LIG    1        6.027  -3.242   0.682  0.00  0.00    +0.126 A 
ATOM      5  N   LIG    1        7.266  -3.299   0.284  0.00  0.00    -0.254 NA
ATOM      6  C   LIG    1        7.858  -2.359  -0.487  0.00  0.00    +0.073 A 
ATOM      7  C   LIG    1        9.199  -2.499  -0.869  0.00  0.00    +0.030 A 
ATOM      8  C   LIG    1        9.793  -1.548  -1.647  0.00  0.00    +0.022 A 
ATOM      9  C   LIG    1        9.086  -0.430  -2.072  0.00  0.00    +0.042 A 
ATOM     10 CL   LIG    1        9.871   0.763  -3.060  0.00  0.00    -0.084 Cl
ATOM     11  C   LIG    1        7.766  -0.262  -1.712  0.00  0.00    +0.032 A 
ATOM     12  C   LIG    1        7.142  -1.222  -0.920  0.00  0.00    +0.030 A 
ATOM     13  C   LIG    1        5.736  -1.089  -0.510  0.00  0.00    +0.108 A 
ATOM     14  N   LIG    1        4.776  -0.221  -0.703  0.00  0.00    -0.162 NA
ENDROOT
BRANCH   1  18
ATOM     15  C   LIG    1       -0.017   1.379   0.010  0.00  0.00    +0.000 A 
ATOM     16  C   LIG    1        1.170   2.089   0.002  0.00  0.00    +0.002 A 
ATOM     17  C   LIG    1        2.377   1.419  -0.013  0.00  0.00    +0.028 A 
ATOM     18  C   LIG    1        2.400   0.031  -0.021  0.00  0.00    +0.069 A 
ATOM     19  C   LIG    1        1.206  -0.680  -0.013  0.00  0.00    +0.028 A 
ATOM     20  C   LIG    1        0.002  -0.004   0.002  0.00  0.00    +0.002 A 
ENDBRANCH   1  18
BRANCH   2  21
ATOM     21  O   LIG    1        2.979  -2.536   1.320  0.00  0.00    -0.492 OA
ATOM     22  H   LIG    1        2.469  -3.179   0.808  0.00  0.00    +0.294 HD
ENDBRANCH   2  21
TORSDOF 2
