REMARK  Name = ZINC13742936
REMARK                            x       y       z     vdW  Elec       q    Type
REMARK                         _______ _______ _______ _____ _____    ______ ____
ROOT
ATOM      1  C   LIG    1       -0.729   1.579   1.267  0.00  0.00    +0.101 C 
ENDROOT
BRANCH   1   2
ATOM      2  P   LIG    1        0.153   0.975   2.744  0.00  0.00    +0.266 P 
ATOM      3  O   LIG    1        1.573   1.387   2.673  0.00  0.00    -0.285 OA
BRANCH   2   4
ATOM      4  C   LIG    1       -0.611   1.684   4.240  0.00  0.00    +0.425 C 
ATOM      5  F   LIG    1        0.065   1.220   5.373  0.00  0.00    -0.198 F 
ATOM      6  F   LIG    1       -1.954   1.295   4.306  0.00  0.00    -0.198 F 
ENDBRANCH   2   4
BRANCH   2   7
ATOM      7  O   LIG    1        0.062  -0.631   2.804  0.00  0.00    -0.340 OA
ATOM      8  H   LIG    1        0.468  -1.008   2.008  0.00  0.00    +0.218 HD
ENDBRANCH   2   7
ENDBRANCH   1   2
BRANCH   1   9
ATOM      9  C   LIG    1       -0.013   1.086   0.008  0.00  0.00    -0.010 C 
BRANCH   9  10
ATOM     10  C   LIG    1       -0.753   1.593  -1.232  0.00  0.00    -0.086 C 
BRANCH  10  11
ATOM     11  N   LIG    1       -0.065   1.119  -2.440  0.00  0.00    +0.378 N 
ATOM     12  H   LIG    1        0.967   1.500  -2.448  0.00  0.00    -0.090 HD
ATOM     13  H   LIG    1       -0.050   0.019  -2.446  0.00  0.00    -0.090 HD
ATOM     14  H   LIG    1       -0.597   1.483  -3.331  0.00  0.00    -0.090 HD
ENDBRANCH  10  11
ENDBRANCH   9  10
ENDBRANCH   1   9
TORSDOF 6
