REMARK  Name = ZINC13561076
REMARK                            x       y       z     vdW  Elec       q    Type
REMARK                         _______ _______ _______ _____ _____    ______ ____
ROOT
ATOM      1  P   LIG    1       -0.018   1.476   0.010  0.00  0.00    +0.412 P 
ATOM      2  O   LIG    1        0.002  -0.004   0.002  0.00  0.00    -0.249 OA
ENDROOT
BRANCH   1   6
ATOM      3  C   LIG    1       -1.076   2.207   3.926  0.00  0.00    +0.128 C 
ATOM      4  N   LIG    1       -0.391   1.735   2.720  0.00  0.00    -0.308 N 
ATOM      5  H   LIG    1        0.406   1.188   2.799  0.00  0.00    +0.149 HD
ATOM      6  C   LIG    1       -0.867   2.061   1.503  0.00  0.00    +0.325 C 
ATOM      7  O   LIG    1       -1.863   2.745   1.405  0.00  0.00    -0.262 OA
ENDBRANCH   1   6
BRANCH   1   8
ATOM      8  O   LIG    1       -0.797   2.009  -1.294  0.00  0.00    -0.318 OA
ATOM      9  H   LIG    1       -1.707   1.673  -1.287  0.00  0.00    +0.220 HD
ENDBRANCH   1   8
BRANCH   1  10
ATOM     10  O   LIG    1        1.492   2.033  -0.001  0.00  0.00    -0.318 OA
ATOM     11  H   LIG    1        1.962   1.712   0.785  0.00  0.00    +0.220 HD
ENDBRANCH   1  10
TORSDOF 3
