REMARK  Name = ZINC13741968
REMARK                            x       y       z     vdW  Elec       q    Type
REMARK                         _______ _______ _______ _____ _____    ______ ____
ROOT
ATOM      1  C   LIG    1       -6.633  -5.154  -1.228  0.00  0.00    +0.060 A 
ATOM      2  C   LIG    1       -7.533  -4.926  -0.182  0.00  0.00    +0.018 A 
ATOM      3  C   LIG    1       -8.862  -5.249  -0.336  0.00  0.00    +0.043 A 
ATOM      4  C   LIG    1       -9.308  -5.814  -1.527  0.00  0.00    +0.100 A 
ATOM      5  C   LIG    1       -8.415  -6.048  -2.568  0.00  0.00    +0.043 A 
ATOM      6  C   LIG    1       -7.085  -5.721  -2.423  0.00  0.00    +0.018 A 
ENDROOT
BRANCH   1   7
ATOM      7  C   LIG    1       -5.211  -4.802  -1.069  0.00  0.00    +0.344 C 
ATOM      8  O   LIG    1       -4.429  -5.006  -1.977  0.00  0.00    -0.245 OA
BRANCH   7   9
ATOM      9  O   LIG    1       -4.776  -4.255   0.084  0.00  0.00    -0.422 OA
BRANCH   9  12
ATOM     10  C   LIG    1       -1.239  -4.404   0.922  0.00  0.00    +0.008 A 
ATOM     11  C   LIG    1       -2.578  -4.737   0.856  0.00  0.00    +0.046 A 
ATOM     12  C   LIG    1       -3.459  -3.928   0.154  0.00  0.00    +0.132 A 
ATOM     13  C   LIG    1       -2.994  -2.783  -0.476  0.00  0.00    +0.046 A 
ATOM     14  C   LIG    1       -1.655  -2.451  -0.404  0.00  0.00    +0.008 A 
ATOM     15  C   LIG    1       -0.779  -3.259   0.297  0.00  0.00    -0.037 A 
BRANCH  15  16
ATOM     16  C   LIG    1        0.682  -2.895   0.375  0.00  0.00    +0.155 C 
BRANCH  16  17
ATOM     17  C   LIG    1        0.918  -2.022   1.580  0.00  0.00    +0.309 C 
ATOM     18  O   LIG    1       -0.004  -1.726   2.302  0.00  0.00    -0.251 OA
BRANCH  17  19
ATOM     19  O   LIG    1        2.155  -1.578   1.855  0.00  0.00    -0.480 OA
ATOM     20  H   LIG    1        2.870  -1.808   1.295  0.00  0.00    +0.295 HD
ENDBRANCH  17  19
ENDBRANCH  16  17
ENDBRANCH  15  16
ENDBRANCH   9  12
ENDBRANCH   7   9
ENDBRANCH   1   7
BRANCH   4  21
ATOM     21  N   LIG    1      -10.652  -6.146  -1.678  0.00  0.00    -0.246 N 
ATOM     22  H   LIG    1      -10.904  -6.934  -2.185  0.00  0.00    +0.265 HD
BRANCH  21  23
ATOM     23  C   LIG    1      -11.625  -5.356  -1.106  0.00  0.00    +0.346 C 
ATOM     24  N   LIG    1      -12.876  -5.785  -1.190  0.00  0.00    -0.292 N 
ATOM     25  H   LIG    1      -13.084  -6.670  -1.665  0.00  0.00    +0.255 HD
ATOM     26  H   LIG    1      -13.632  -5.234  -0.781  0.00  0.00    +0.255 HD
BRANCH  23  27
ATOM     27  N   LIG    1      -11.278  -4.180  -0.485  0.00  0.00    -0.292 N 
ATOM     28  H   LIG    1      -11.931  -3.703   0.052  0.00  0.00    +0.255 HD
ATOM     29  H   LIG    1      -10.380  -3.826  -0.583  0.00  0.00    +0.255 HD
ENDBRANCH  23  27
ENDBRANCH  21  23
ENDBRANCH   4  21
TORSDOF 9
