REMARK  Name = ZINC13679864
REMARK                            x       y       z     vdW  Elec       q    Type
REMARK                         _______ _______ _______ _____ _____    ______ ____
ROOT
ATOM      1  C   LIG    1        3.178  -4.351  -0.051  0.00  0.00    -0.016 C 
ATOM      2  C   LIG    1        3.727  -4.954  -1.107  0.00  0.00    -0.003 C 
ENDROOT
BRANCH   2   3
ATOM      3  C   LIG    1        3.890  -6.409  -1.115  0.00  0.00    +0.005 C 
ATOM      4  C   LIG    1        4.446  -7.020  -2.185  0.00  0.00    +0.069 C 
BRANCH   4   5
ATOM      5  C   LIG    1        4.609  -8.473  -2.194  0.00  0.00    +0.259 C 
ATOM      6  N   LIG    1        5.163  -9.083  -3.260  0.00  0.00    -0.194 N 
ATOM      7  H   LIG    1        5.455  -8.558  -4.022  0.00  0.00    +0.183 HD
ATOM      8  O   LIG    1        4.243  -9.133  -1.238  0.00  0.00    -0.269 OA
BRANCH   6   9
ATOM      9  O   LIG    1        5.321 -10.490  -3.269  0.00  0.00    -0.295 OA
ATOM     10  H   LIG    1        5.728 -10.835  -4.075  0.00  0.00    +0.241 HD
ENDBRANCH   6   9
ENDBRANCH   4   5
ENDBRANCH   2   3
BRANCH   1  11
ATOM     11  C   LIG    1        3.010  -2.853  -0.042  0.00  0.00    +0.101 C 
BRANCH  11  12
ATOM     12  S   LIG    1        1.244  -2.443  -0.022  0.00  0.00    -0.121 S 
BRANCH  12  19
ATOM     13  C   LIG    1        0.002  -0.004   0.002  0.00  0.00    +0.016 A 
ATOM     14  C   LIG    1       -0.017   1.377   0.010  0.00  0.00    +0.021 A 
ATOM     15  C   LIG    1        1.171   2.086   0.002  0.00  0.00    +0.041 A 
ATOM     16 CL   LIG    1        1.144   3.822   0.011  0.00  0.00    -0.084 Cl
ATOM     17  C   LIG    1        2.382   1.415  -0.013  0.00  0.00    +0.021 A 
ATOM     18  C   LIG    1        2.407   0.034  -0.021  0.00  0.00    +0.016 A 
ATOM     19  C   LIG    1        1.216  -0.681  -0.013  0.00  0.00    +0.008 A 
ENDBRANCH  12  19
ENDBRANCH  11  12
ENDBRANCH   1  11
TORSDOF 6
