REMARK  Name = ZINC13675952
REMARK                            x       y       z     vdW  Elec       q    Type
REMARK                         _______ _______ _______ _____ _____    ______ ____
ROOT
ATOM      1  C   LIG    1       -1.492  -2.005   0.480  0.00  0.00    +0.202 C 
ATOM      2  N   LIG    1       -1.366  -2.838  -0.572  0.00  0.00    -0.291 N 
ATOM      3  C   LIG    1       -1.275  -2.429  -1.986  0.00  0.00    +0.108 C 
ATOM      4  C   LIG    1       -0.541  -3.601  -2.689  0.00  0.00    +0.021 C 
ATOM      5  C   LIG    1       -1.130  -4.827  -1.943  0.00  0.00    +0.033 C 
ATOM      6  C   LIG    1       -1.301  -4.305  -0.501  0.00  0.00    +0.162 C 
ATOM      7  O   LIG    1       -1.660  -2.455   1.593  0.00  0.00    -0.277 OA
ENDROOT
BRANCH   6   8
ATOM      8  C   LIG    1       -0.124  -4.725   0.342  0.00  0.00    +0.231 C 
ATOM      9  N   LIG    1        0.127  -6.034   0.543  0.00  0.00    -0.328 N 
ATOM     10  H   LIG    1        0.884  -6.305   1.086  0.00  0.00    +0.145 HD
ATOM     11  H   LIG    1       -0.450  -6.705   0.146  0.00  0.00    +0.145 HD
ATOM     12  O   LIG    1        0.596  -3.886   0.839  0.00  0.00    -0.274 OA
ENDBRANCH   6   8
BRANCH   1  13
ATOM     13  C   LIG    1       -1.425  -0.514   0.272  0.00  0.00    +0.016 C 
BRANCH  13  14
ATOM     14  N   LIG    1       -2.350   0.175   1.189  0.00  0.00    +0.386 N 
ATOM     15  H   LIG    1       -2.265   1.190   1.055  0.00  0.00    -0.089 HD
ATOM     16  H   LIG    1       -2.119  -0.053   2.155  0.00  0.00    -0.089 HD
ATOM     17  H   LIG    1       -3.310  -0.106   0.994  0.00  0.00    -0.089 HD
ENDBRANCH  13  14
BRANCH  13  18
ATOM     18  C   LIG    1       -0.001  -0.025   0.543  0.00  0.00    -0.020 C 
ATOM     19  C   LIG    1        0.947  -0.608  -0.507  0.00  0.00    +0.006 C 
BRANCH  18  21
ATOM     20  C   LIG    1        1.429   1.999   0.864  0.00  0.00    +0.004 C 
ATOM     21  C   LIG    1        0.036   1.503   0.471  0.00  0.00    -0.001 C 
ENDBRANCH  18  21
ENDBRANCH  13  18
ENDBRANCH   1  13
TORSDOF 5
