REMARK  Name = ZINC13642314
REMARK                            x       y       z     vdW  Elec       q    Type
REMARK                         _______ _______ _______ _____ _____    ______ ____
ROOT
ATOM      1  C   LIG    1       -3.093   1.371  -0.071  0.00  0.00    +0.014 A 
ATOM      2  C   LIG    1       -4.340   0.771   0.061  0.00  0.00    +0.015 A 
ATOM      3  C   LIG    1       -4.631  -0.377  -0.647  0.00  0.00    +0.001 A 
ATOM      4  C   LIG    1       -3.683  -0.932  -1.488  0.00  0.00    +0.000 A 
ATOM      5  C   LIG    1       -2.443  -0.336  -1.626  0.00  0.00    +0.003 A 
ATOM      6  C   LIG    1       -2.143   0.810  -0.917  0.00  0.00    -0.051 A 
ENDROOT
BRANCH   1   7
ATOM      7  S   LIG    1       -2.717   2.837   0.830  0.00  0.00    -0.087 S 
BRANCH   7  12
ATOM      8  C   LIG    1       -7.930   4.278   3.520  0.00  0.00    +0.044 C 
ATOM      9  C   LIG    1       -6.631   3.920   2.846  0.00  0.00    -0.049 A 
ATOM     10  C   LIG    1       -5.612   3.338   3.578  0.00  0.00    +0.004 A 
ATOM     11  C   LIG    1       -4.418   3.007   2.966  0.00  0.00    +0.017 A 
ATOM     12  C   LIG    1       -4.239   3.257   1.613  0.00  0.00    +0.033 A 
ATOM     13  C   LIG    1       -5.265   3.848   0.876  0.00  0.00    +0.039 A 
ATOM     14  C   LIG    1       -6.462   4.173   1.497  0.00  0.00    +0.027 A 
BRANCH  13  15
ATOM     15  N   LIG    1       -5.090   4.109  -0.488  0.00  0.00    -0.357 N 
ATOM     16  H   LIG    1       -5.804   4.520  -0.999  0.00  0.00    +0.142 HD
ATOM     17  H   LIG    1       -4.253   3.879  -0.922  0.00  0.00    +0.142 HD
ENDBRANCH  13  15
ENDBRANCH   7  12
ENDBRANCH   1   7
BRANCH   6  18
ATOM     18  C   LIG    1       -0.789   1.456  -1.064  0.00  0.00    -0.046 C 
BRANCH  18  19
ATOM     19  N   LIG    1        0.056   1.075   0.084  0.00  0.00    +0.383 N 
ATOM     20  H   LIG    1       -0.390   1.394   0.953  0.00  0.00    -0.085 HD
ATOM     21  H   LIG    1        0.157   0.054   0.106  0.00  0.00    -0.085 HD
BRANCH  19  22
ATOM     22  C   LIG    1        1.389   1.695  -0.034  0.00  0.00    -0.048 C 
BRANCH  22  23
ATOM     23  C   LIG    1        2.241   1.283   1.168  0.00  0.00    +0.194 C 
ATOM     24  F   LIG    1        3.508   1.867   1.064  0.00  0.00    -0.251 F 
ENDBRANCH  22  23
ENDBRANCH  19  22
ENDBRANCH  18  19
ENDBRANCH   6  18
TORSDOF 7
