REMARK  Name = ZINC13612954
REMARK                            x       y       z     vdW  Elec       q    Type
REMARK                         _______ _______ _______ _____ _____    ______ ____
ROOT
ATOM      1  C   LIG    1       -0.017   1.378   0.010  0.00  0.00    +0.030 A 
ATOM      2  C   LIG    1        1.169   2.088   0.002  0.00  0.00    +0.029 A 
ATOM      3  C   LIG    1        2.381   1.411  -0.013  0.00  0.00    +0.077 A 
ATOM      4  C   LIG    1        2.398   0.020  -0.021  0.00  0.00    +0.147 A 
ATOM      5  F   LIG    1        3.575  -0.642  -0.036  0.00  0.00    -0.203 F 
ATOM      6  C   LIG    1        1.207  -0.683  -0.013  0.00  0.00    +0.068 A 
ATOM      7  C   LIG    1        0.002  -0.004   0.002  0.00  0.00    +0.108 A 
ENDROOT
BRANCH   7   8
ATOM      8  S   LIG    1       -1.513  -0.904   0.012  0.00  0.00    +0.056 S 
ATOM      9  O   LIG    1       -2.493  -0.043   0.577  0.00  0.00    -0.153 OA
ATOM     10  O   LIG    1       -1.221  -2.185   0.553  0.00  0.00    -0.153 OA
BRANCH   8  11
ATOM     11  N   LIG    1       -1.949  -1.145  -1.567  0.00  0.00    -0.204 NA
ATOM     12  H   LIG    1       -1.696  -0.499  -2.245  0.00  0.00    +0.144 HD
ATOM     13  H   LIG    1       -2.458  -1.933  -1.815  0.00  0.00    +0.144 HD
ENDBRANCH   8  11
ENDBRANCH   7   8
BRANCH   3  14
ATOM     14  N   LIG    1        3.583   2.127  -0.021  0.00  0.00    -0.281 N 
ATOM     15  H   LIG    1        4.429   1.653  -0.032  0.00  0.00    +0.166 HD
BRANCH  14  16
ATOM     16  N   LIG    1        3.565   3.493  -0.014  0.00  0.00    -0.256 NA
ATOM     17  H   LIG    1        4.502   3.866  -0.021  0.00  0.00    +0.140 HD
ATOM     18  H   LIG    1        3.042   3.843   0.774  0.00  0.00    +0.140 HD
ENDBRANCH  14  16
ENDBRANCH   3  14
TORSDOF 4
