REMARK  Name = ZINC13738641
REMARK                            x       y       z     vdW  Elec       q    Type
REMARK                         _______ _______ _______ _____ _____    ______ ____
ROOT
ATOM      1  C   LIG    1       -3.146   4.376   3.636  0.00  0.00    +0.121 A 
ATOM      2  C   LIG    1       -4.365   5.060   3.623  0.00  0.00    +0.046 A 
ATOM      3  C   LIG    1       -4.914   5.488   2.455  0.00  0.00    +0.012 A 
ATOM      4  C   LIG    1       -4.250   5.242   1.241  0.00  0.00    -0.017 A 
ATOM      5  C   LIG    1       -4.788   5.670   0.016  0.00  0.00    +0.008 A 
ATOM      6  C   LIG    1       -4.119   5.414  -1.141  0.00  0.00    +0.001 A 
ATOM      7  C   LIG    1       -2.900   4.737  -1.130  0.00  0.00    +0.004 A 
ATOM      8  C   LIG    1       -2.351   4.302   0.037  0.00  0.00    -0.038 A 
ATOM      9  C   LIG    1       -3.013   4.548   1.252  0.00  0.00    -0.011 A 
ATOM     10  C   LIG    1       -2.474   4.119   2.475  0.00  0.00    +0.054 A 
ENDROOT
BRANCH   1  12
ATOM     11  C   LIG    1       -3.371   4.258   6.000  0.00  0.00    +0.277 C 
ATOM     12  O   LIG    1       -2.622   3.961   4.820  0.00  0.00    -0.495 OA
ENDBRANCH   1  12
BRANCH   8  13
ATOM     13  C   LIG    1       -1.036   3.567   0.026  0.00  0.00    +0.054 C 
BRANCH  13  14
ATOM     14  C   LIG    1       -1.295   2.059   0.019  0.00  0.00    +0.109 C 
BRANCH  14  15
ATOM     15  N   LIG    1       -0.016   1.344   0.009  0.00  0.00    -0.315 N 
ATOM     16  H   LIG    1        0.817   1.840   0.004  0.00  0.00    +0.149 HD
ATOM     17  C   LIG    1        0.002  -0.004   0.002  0.00  0.00    +0.213 C 
ATOM     18  O   LIG    1       -1.040  -0.625   0.009  0.00  0.00    -0.276 OA
BRANCH  17  19
ATOM     19  C   LIG    1        1.317  -0.740  -0.015  0.00  0.00    +0.097 C 
BRANCH  19  20
ATOM     20  C   LIG    1        1.058  -2.248  -0.020  0.00  0.00    +0.025 C 
BRANCH  20  21
ATOM     21  C   LIG    1        2.393  -2.994  -0.037  0.00  0.00    +0.109 C 
ATOM     22 CL   LIG    1        2.088  -4.771  -0.043  0.00  0.00    -0.125 Cl
ENDBRANCH  20  21
ENDBRANCH  19  20
ENDBRANCH  17  19
ENDBRANCH  14  15
ENDBRANCH  13  14
ENDBRANCH   8  13
TORSDOF 7
