REMARK  Name = ZINC13686580
REMARK                            x       y       z     vdW  Elec       q    Type
REMARK                         _______ _______ _______ _____ _____    ______ ____
ROOT
ATOM      1  C   LIG    1       -0.617   1.651   3.748  0.00  0.00    +0.050 C 
ENDROOT
BRANCH   1   6
ATOM      2  C   LIG    1        0.483  -0.144   6.883  0.00  0.00    +0.000 A 
ATOM      3  C   LIG    1        1.642   0.537   7.211  0.00  0.00    +0.001 A 
ATOM      4  C   LIG    1        2.078   1.582   6.423  0.00  0.00    +0.015 A 
ATOM      5  C   LIG    1        1.349   1.948   5.289  0.00  0.00    +0.062 A 
ATOM      6  C   LIG    1        0.179   1.259   4.966  0.00  0.00    -0.033 A 
ATOM      7  C   LIG    1       -0.245   0.216   5.763  0.00  0.00    +0.004 A 
BRANCH   5   8
ATOM      8  C   LIG    1        1.813   3.062   4.437  0.00  0.00    +0.337 C 
ATOM      9  O   LIG    1        1.127   3.445   3.510  0.00  0.00    -0.245 OA
BRANCH   8  10
ATOM     10  O   LIG    1        2.997   3.655   4.688  0.00  0.00    -0.477 OA
ATOM     11  H   LIG    1        3.526   3.359   5.402  0.00  0.00    +0.295 HD
ENDBRANCH   8  10
ENDBRANCH   5   8
ENDBRANCH   1   6
BRANCH   1  12
ATOM     12  C   LIG    1        0.078   1.118   2.493  0.00  0.00    +0.102 C 
BRANCH  12  13
ATOM     13  C   LIG    1        0.063  -0.389   2.511  0.00  0.00    +0.308 C 
ATOM     14  O   LIG    1       -0.482  -0.998   1.622  0.00  0.00    -0.251 OA
BRANCH  13  15
ATOM     15  O   LIG    1        0.655  -1.053   3.516  0.00  0.00    -0.480 OA
ATOM     16  H   LIG    1        1.077  -0.580   4.206  0.00  0.00    +0.295 HD
ENDBRANCH  13  15
ENDBRANCH  12  13
BRANCH  12  17
ATOM     17  C   LIG    1       -0.660   1.620   1.250  0.00  0.00    +0.016 C 
BRANCH  17  18
ATOM     18  C   LIG    1        0.104   1.192  -0.004  0.00  0.00    +0.011 C 
BRANCH  18  19
ATOM     19  C   LIG    1       -0.633   1.694  -1.247  0.00  0.00    +0.065 C 
BRANCH  19  20
ATOM     20  S   LIG    1        0.273   1.187  -2.735  0.00  0.00    -0.178 S 
ATOM     21  H   LIG    1       -0.462   1.679  -3.748  0.00  0.00    +0.102 HD
ENDBRANCH  19  20
ENDBRANCH  18  19
ENDBRANCH  17  18
ENDBRANCH  12  17
ENDBRANCH   1  12
TORSDOF 10
