REMARK  Name = ZINC13732888
REMARK                            x       y       z     vdW  Elec       q    Type
REMARK                         _______ _______ _______ _____ _____    ______ ____
ROOT
ATOM      1  C   LIG    1       -2.389   1.002  -0.545  0.00  0.00    +0.280 C 
ATOM      2  C   LIG    1       -3.078   1.694   0.600  0.00  0.00    +0.262 C 
ATOM      3  N   LIG    1       -4.307   1.356   0.984  0.00  0.00    -0.271 N 
ATOM      4  C   LIG    1       -4.912   2.131   2.070  0.00  0.00    +0.138 C 
ATOM      5  C   LIG    1       -5.058   0.327   0.437  0.00  0.00    +0.045 A 
ATOM      6  C   LIG    1       -5.802  -0.462   1.317  0.00  0.00    +0.024 A 
ATOM      7  C   LIG    1       -6.574  -1.501   0.848  0.00  0.00    +0.002 A 
ATOM      8  C   LIG    1       -6.621  -1.774  -0.510  0.00  0.00    +0.001 A 
ATOM      9  C   LIG    1       -5.895  -1.007  -1.391  0.00  0.00    +0.012 A 
ATOM     10  C   LIG    1       -5.102   0.054  -0.928  0.00  0.00    +0.022 A 
ATOM     11  C   LIG    1       -4.348   0.828  -1.927  0.00  0.00    +0.077 C 
ATOM     12  O   LIG    1       -2.498   2.582   1.188  0.00  0.00    -0.271 OA
ATOM     13  N   LIG    1       -3.143   1.250  -1.773  0.00  0.00    -0.251 NA
ENDROOT
BRANCH   1  17
ATOM     14  N   LIG    1        1.253   1.169  -1.019  0.00  0.00    -0.269 N 
ATOM     15  H   LIG    1        1.401   2.128  -1.053  0.00  0.00    +0.156 HD
ATOM     16  C   LIG    1        0.003   0.685  -0.881  0.00  0.00    +0.306 C 
ATOM     17  N   LIG    1       -1.030   1.529  -0.689  0.00  0.00    -0.270 N 
ATOM     18  H   LIG    1       -0.873   2.485  -0.648  0.00  0.00    +0.153 HD
ATOM     19  O   LIG    1       -0.193  -0.514  -0.933  0.00  0.00    -0.252 OA
BRANCH  14  26
ATOM     20  C   LIG    1        5.719   0.135  -2.796  0.00  0.00    +0.044 C 
ATOM     21  C   LIG    1        4.516  -0.236  -1.968  0.00  0.00    -0.048 A 
ATOM     22  C   LIG    1        4.483  -1.447  -1.301  0.00  0.00    +0.006 A 
ATOM     23  C   LIG    1        3.381  -1.791  -0.540  0.00  0.00    -0.048 A 
ATOM     24  C   LIG    1        3.350  -3.111   0.186  0.00  0.00    +0.044 C 
ATOM     25  C   LIG    1        2.309  -0.926  -0.444  0.00  0.00    +0.026 A 
ATOM     26  C   LIG    1        2.338   0.291  -1.114  0.00  0.00    +0.035 A 
ATOM     27  C   LIG    1        3.444   0.630  -1.882  0.00  0.00    +0.026 A 
ENDBRANCH  14  26
ENDBRANCH   1  17
BRANCH  11  28
ATOM     28  C   LIG    1       -5.027   1.143  -3.205  0.00  0.00    +0.001 A 
ATOM     29  C   LIG    1       -4.276   1.397  -4.353  0.00  0.00    +0.010 A 
ATOM     30  C   LIG    1       -4.914   1.684  -5.542  0.00  0.00    +0.001 A 
ATOM     31  C   LIG    1       -6.295   1.730  -5.596  0.00  0.00    +0.000 A 
ATOM     32  C   LIG    1       -7.046   1.484  -4.460  0.00  0.00    +0.001 A 
ATOM     33  C   LIG    1       -6.420   1.191  -3.266  0.00  0.00    +0.010 A 
ENDBRANCH  11  28
TORSDOF 3
