REMARK  Name = ZINC13686373
REMARK                            x       y       z     vdW  Elec       q    Type
REMARK                         _______ _______ _______ _____ _____    ______ ____
ROOT
ATOM      1  C   LIG    1       -1.136  -2.159   0.001  0.00  0.00    +0.081 C 
ATOM      2  C   LIG    1       -1.092  -2.715   1.440  0.00  0.00    +0.058 C 
ATOM      3  C   LIG    1       -1.923  -3.979   1.402  0.00  0.00    -0.042 A 
ATOM      4  C   LIG    1       -1.982  -5.042   2.288  0.00  0.00    +0.006 A 
ATOM      5  C   LIG    1       -2.828  -6.105   2.043  0.00  0.00    +0.029 A 
ATOM      6  C   LIG    1       -3.620  -6.110   0.910  0.00  0.00    +0.105 A 
ATOM      7  C   LIG    1       -3.563  -5.051   0.025  0.00  0.00    +0.032 A 
ATOM      8  C   LIG    1       -2.715  -3.984   0.269  0.00  0.00    -0.041 A 
ATOM      9  C   LIG    1       -2.468  -2.722  -0.536  0.00  0.00    +0.058 C 
ENDROOT
BRANCH   1  12
ATOM     10  C   LIG    1       -0.018   1.503   0.010  0.00  0.00    +0.109 C 
ATOM     11  C   LIG    1        0.002  -0.004   0.002  0.00  0.00    +0.210 C 
ATOM     12  N   LIG    1       -1.156  -0.694   0.009  0.00  0.00    -0.312 N 
ATOM     13  H   LIG    1       -2.002  -0.220   0.020  0.00  0.00    +0.149 HD
ATOM     14  O   LIG    1        1.060  -0.596  -0.011  0.00  0.00    -0.276 OA
ENDBRANCH   1  12
BRANCH   6  15
ATOM     15  S   LIG    1       -4.701  -7.465   0.595  0.00  0.00    +0.056 S 
ATOM     16  O   LIG    1       -4.166  -8.582   1.293  0.00  0.00    -0.153 OA
ATOM     17  O   LIG    1       -4.931  -7.483  -0.807  0.00  0.00    -0.153 OA
BRANCH  15  18
ATOM     18  N   LIG    1       -6.152  -7.111   1.309  0.00  0.00    -0.204 NA
ATOM     19  H   LIG    1       -6.179  -6.558   2.106  0.00  0.00    +0.144 HD
ATOM     20  H   LIG    1       -6.976  -7.456   0.930  0.00  0.00    +0.144 HD
ENDBRANCH  15  18
ENDBRANCH   6  15
TORSDOF 3
