REMARK  Name = ZINC13704002
REMARK                            x       y       z     vdW  Elec       q    Type
REMARK                         _______ _______ _______ _____ _____    ______ ____
ROOT
ATOM      1  O   LIG    1        2.373   1.168  -0.013  0.00  0.00    -0.489 OA
ENDROOT
BRANCH   1   2
ATOM      2  C   LIG    1        3.539   1.985  -0.131  0.00  0.00    +0.157 C 
ATOM      3  C   LIG    1        4.596   1.251  -0.960  0.00  0.00    +0.041 C 
ATOM      4  C   LIG    1        5.864   2.107  -1.031  0.00  0.00    -0.016 C 
ATOM      5  C   LIG    1        6.359   2.394   0.388  0.00  0.00    -0.082 C 
ATOM      6  N   LIG    1        5.314   3.110   1.145  0.00  0.00    +0.381 N 
ATOM      7  H   LIG    1        5.666   3.328   2.084  0.00  0.00    -0.086 HD
ATOM      8  H   LIG    1        5.080   3.982   0.656  0.00  0.00    -0.086 HD
ATOM      9  C   LIG    1        4.102   2.277   1.262  0.00  0.00    -0.038 C 
ENDBRANCH   1   2
BRANCH   1  11
ATOM     10  C   LIG    1        1.161   3.180   0.414  0.00  0.00    +0.068 A 
ATOM     11  C   LIG    1        1.192   1.805   0.204  0.00  0.00    +0.140 A 
ATOM     12  C   LIG    1        0.002   1.094   0.219  0.00  0.00    +0.156 A 
ATOM     13  N   LIG    1       -1.146   1.708   0.429  0.00  0.00    -0.258 NA
ATOM     14  C   LIG    1       -1.212   3.009   0.631  0.00  0.00    +0.131 A 
ATOM     15  C   LIG    1       -0.066   3.785   0.637  0.00  0.00    +0.062 A 
ATOM     16 CL   LIG    1       -0.166   5.496   0.912  0.00  0.00    -0.082 Cl
ENDBRANCH   1  11
TORSDOF 2
