REMARK  Name = ZINC13742536
REMARK                            x       y       z     vdW  Elec       q    Type
REMARK                         _______ _______ _______ _____ _____    ______ ____
ROOT
ATOM      1  C   LIG    1        2.642  -3.951  -4.384  0.00  0.00    +0.047 A 
ATOM      2  C   LIG    1        2.142  -4.840  -3.476  0.00  0.00    +0.098 A 
ATOM      3  N   LIG    1        2.485  -6.100  -3.832  0.00  0.00    -0.345 N 
ATOM      4  C   LIG    1        3.229  -6.088  -4.994  0.00  0.00    +0.050 A 
ATOM      5  C   LIG    1        3.812  -7.090  -5.762  0.00  0.00    +0.026 A 
ATOM      6  C   LIG    1        4.502  -6.764  -6.910  0.00  0.00    +0.002 A 
ATOM      7  C   LIG    1        4.631  -5.441  -7.304  0.00  0.00    +0.001 A 
ATOM      8  C   LIG    1        4.063  -4.433  -6.555  0.00  0.00    +0.011 A 
ATOM      9  C   LIG    1        3.358  -4.749  -5.397  0.00  0.00    +0.011 A 
ENDROOT
BRANCH   1  10
ATOM     10  C   LIG    1        2.493  -2.491  -4.359  0.00  0.00    +0.195 C 
ATOM     11  O   LIG    1        3.091  -1.804  -5.166  0.00  0.00    -0.287 OA
BRANCH  10  15
ATOM     12  C   LIG    1       -0.031  -0.663  -1.473  0.00  0.00    +0.120 A 
ATOM     13  C   LIG    1       -0.355  -1.915  -1.984  0.00  0.00    +0.046 A 
ATOM     14  C   LIG    1        0.460  -2.510  -2.921  0.00  0.00    +0.015 A 
ATOM     15  C   LIG    1        1.615  -1.855  -3.356  0.00  0.00    +0.023 A 
ATOM     16  C   LIG    1        1.938  -0.598  -2.839  0.00  0.00    +0.015 A 
ATOM     17  C   LIG    1        1.115  -0.006  -1.907  0.00  0.00    +0.046 A 
BRANCH  12  19
ATOM     18  C   LIG    1       -1.998  -0.810  -0.148  0.00  0.00    +0.277 C 
ATOM     19  O   LIG    1       -0.837  -0.080  -0.551  0.00  0.00    -0.495 OA
ENDBRANCH  12  19
ENDBRANCH  10  15
ENDBRANCH   1  10
BRANCH   3  20
ATOM     20  C   LIG    1        2.119  -7.308  -3.087  0.00  0.00    +0.137 C 
BRANCH  20  21
ATOM     21  C   LIG    1        3.259  -7.688  -2.140  0.00  0.00    +0.106 C 
BRANCH  21  22
ATOM     22  N   LIG    1        2.892  -8.899  -1.394  0.00  0.00    -0.296 NA
ATOM     23  C   LIG    1        1.764  -8.637  -0.487  0.00  0.00    +0.112 C 
ATOM     24  C   LIG    1        1.377  -9.936   0.225  0.00  0.00    +0.175 C 
ATOM     25  O   LIG    1        2.518 -10.455   0.915  0.00  0.00    -0.377 OA
ATOM     26  C   LIG    1        3.634 -10.721   0.061  0.00  0.00    +0.175 C 
ATOM     27  C   LIG    1        4.045  -9.430  -0.652  0.00  0.00    +0.112 C 
ENDBRANCH  21  22
ENDBRANCH  20  21
ENDBRANCH   3  20
TORSDOF 6
