REMARK  Name = ZINC13558687
REMARK                            x       y       z     vdW  Elec       q    Type
REMARK                         _______ _______ _______ _____ _____    ______ ____
ROOT
ATOM      1  N   LIG    1        1.312  -4.188   2.103  0.00  0.00    -0.177 NA
ATOM      2  C   LIG    1        0.166  -4.986   2.577  0.00  0.00    +0.098 C 
ATOM      3  C   LIG    1       -0.547  -5.670   1.421  0.00  0.00    -0.026 C 
ATOM      4  C   LIG    1        0.377  -6.573   0.620  0.00  0.00    -0.025 A 
ATOM      5  C   LIG    1       -0.075  -7.670  -0.119  0.00  0.00    +0.040 A 
ATOM      6  C   LIG    1        0.797  -8.426  -0.825  0.00  0.00    +0.144 A 
ATOM      7  S   LIG    1        2.352  -7.616  -0.479  0.00  0.00    -0.049 S 
ATOM      8  C   LIG    1        1.721  -6.353   0.578  0.00  0.00    +0.146 A 
ATOM      9  S   LIG    1        2.565  -5.074   1.427  0.00  0.00    +0.067 S 
ATOM     10  O   LIG    1        3.279  -5.681   2.495  0.00  0.00    -0.152 OA
ATOM     11  O   LIG    1        3.183  -4.253   0.446  0.00  0.00    -0.152 OA
ENDROOT
BRANCH   3  12
ATOM     12  N   LIG    1       -1.652  -6.478   1.956  0.00  0.00    +0.384 N 
ATOM     13  H   LIG    1       -1.284  -7.173   2.589  0.00  0.00    -0.089 HD
ATOM     14  H   LIG    1       -2.132  -6.937   1.196  0.00  0.00    -0.089 HD
ATOM     15  H   LIG    1       -2.297  -5.881   2.450  0.00  0.00    -0.089 HD
ENDBRANCH   3  12
BRANCH   6  16
ATOM     16  S   LIG    1        0.481  -9.842  -1.826  0.00  0.00    +0.062 S 
ATOM     17  O   LIG    1       -0.733 -10.410  -1.355  0.00  0.00    -0.153 OA
ATOM     18  O   LIG    1        1.695 -10.579  -1.882  0.00  0.00    -0.153 OA
BRANCH  16  19
ATOM     19  N   LIG    1        0.185  -9.300  -3.362  0.00  0.00    -0.203 NA
ATOM     20  H   LIG    1       -0.215  -8.427  -3.500  0.00  0.00    +0.144 HD
ATOM     21  H   LIG    1        0.412  -9.855  -4.125  0.00  0.00    +0.144 HD
ENDBRANCH  16  19
ENDBRANCH   6  16
BRANCH   1  22
ATOM     22  C   LIG    1        1.351  -2.727   2.211  0.00  0.00    +0.111 C 
BRANCH  22  23
ATOM     23  C   LIG    1        0.633  -2.108   1.011  0.00  0.00    +0.045 C 
BRANCH  23  24
ATOM     24  C   LIG    1        0.673  -0.582   1.123  0.00  0.00    +0.161 C 
BRANCH  24  26
ATOM     25  C   LIG    1       -0.017   1.425   0.010  0.00  0.00    +0.193 C 
ATOM     26  O   LIG    1        0.002  -0.004   0.002  0.00  0.00    -0.383 OA
ENDBRANCH  24  26
ENDBRANCH  23  24
ENDBRANCH  22  23
ENDBRANCH   1  22
TORSDOF 7
