REMARK  Name = ZINC13584960
REMARK                            x       y       z     vdW  Elec       q    Type
REMARK                         _______ _______ _______ _____ _____    ______ ____
ROOT
ATOM      1  C   LIG    1        3.607  -0.930  -0.068  0.00  0.00    +0.153 C 
ATOM      2  F   LIG    1        3.953  -1.744  -1.153  0.00  0.00    -0.235 F 
ATOM      3  C   LIG    1        4.698  -0.031   0.517  0.00  0.00    +0.069 C 
ATOM      4  C   LIG    1        4.227  -1.264   1.291  0.00  0.00    +0.096 C 
ENDROOT
BRANCH   1   8
ATOM      5  C   LIG    1       -0.389   0.578  -0.098  0.00  0.00    +0.000 A 
ATOM      6  C   LIG    1        0.672   1.426  -0.355  0.00  0.00    +0.000 A 
ATOM      7  C   LIG    1        1.965   0.938  -0.345  0.00  0.00    +0.007 A 
ATOM      8  C   LIG    1        2.197  -0.398  -0.078  0.00  0.00    -0.009 A 
ATOM      9  C   LIG    1        1.136  -1.246   0.180  0.00  0.00    +0.007 A 
ATOM     10  C   LIG    1       -0.157  -0.758   0.168  0.00  0.00    +0.000 A 
ENDBRANCH   1   8
BRANCH   4  11
ATOM     11  N   LIG    1        3.402  -1.041   2.486  0.00  0.00    -0.324 NA
ATOM     12  H   LIG    1        3.154  -0.067   2.578  0.00  0.00    +0.119 HD
ATOM     13  H   LIG    1        3.869  -1.375   3.315  0.00  0.00    +0.119 HD
ENDBRANCH   4  11
TORSDOF 2
