REMARK  Name = ZINC13600398
REMARK                            x       y       z     vdW  Elec       q    Type
REMARK                         _______ _______ _______ _____ _____    ______ ____
ROOT
ATOM      1  C   LIG    1       -2.503   0.680   1.971  0.00  0.00    +0.016 C 
ATOM      2  C   LIG    1       -1.979   2.091   1.705  0.00  0.00    -0.003 C 
ATOM      3  C   LIG    1       -2.568   2.594   0.390  0.00  0.00    +0.014 C 
ATOM      4  C   LIG    1       -2.010   1.765  -0.768  0.00  0.00    +0.033 C 
ATOM      5  C   LIG    1       -0.496   1.913  -0.839  0.00  0.00    +0.123 C 
ATOM      6  C   LIG    1        0.186   1.494   0.465  0.00  0.00    +0.021 C 
ATOM      7  C   LIG    1        0.229  -0.029   0.571  0.00  0.00    +0.016 C 
ATOM      8  C   LIG    1       -2.457   2.951   2.856  0.00  0.00    -0.035 A 
ATOM      9  C   LIG    1       -3.750   3.442   2.817  0.00  0.00    +0.050 A 
ATOM     10  C   LIG    1       -4.228   4.240   3.845  0.00  0.00    +0.122 A 
ATOM     11  C   LIG    1       -3.401   4.543   4.917  0.00  0.00    +0.019 A 
ATOM     12  C   LIG    1       -2.116   4.045   4.952  0.00  0.00    +0.013 A 
ATOM     13  C   LIG    1       -1.635   3.241   3.923  0.00  0.00    -0.043 A 
ATOM     14  C   LIG    1       -0.227   2.728   4.055  0.00  0.00    +0.036 C 
ATOM     15  C   LIG    1        0.098   1.666   3.001  0.00  0.00    +0.010 C 
ATOM     16  C   LIG    1       -0.464   2.145   1.665  0.00  0.00    +0.010 C 
ENDROOT
BRANCH   5  17
ATOM     17  O   LIG    1        0.008   1.106  -1.910  0.00  0.00    -0.391 OA
ATOM     18  H   LIG    1       -0.378   1.312  -2.772  0.00  0.00    +0.210 HD
ENDBRANCH   5  17
BRANCH  10  19
ATOM     19  O   LIG    1       -5.498   4.721   3.803  0.00  0.00    -0.506 OA
ATOM     20  H   LIG    1       -5.579   5.580   3.365  0.00  0.00    +0.292 HD
ENDBRANCH  10  19
BRANCH   6  21
ATOM     21  C   LIG    1        1.650   1.990   0.378  0.00  0.00    +0.165 C 
BRANCH  21  22
ATOM     22  O   LIG    1        2.276   1.424  -0.776  0.00  0.00    -0.394 OA
ATOM     23  H   LIG    1        3.198   1.692  -0.894  0.00  0.00    +0.209 HD
ENDBRANCH  21  22
ENDBRANCH   6  21
BRANCH  11  24
ATOM     24  C   LIG    1       -3.906   5.413   6.039  0.00  0.00    +0.194 C 
BRANCH  24  25
ATOM     25  O   LIG    1       -2.875   5.577   7.015  0.00  0.00    -0.390 OA
ATOM     26  H   LIG    1       -3.131   6.127   7.768  0.00  0.00    +0.210 HD
ENDBRANCH  24  25
ENDBRANCH  11  24
TORSDOF 6
