REMARK  Name = ZINC13587966
REMARK                            x       y       z     vdW  Elec       q    Type
REMARK                         _______ _______ _______ _____ _____    ______ ____
ROOT
ATOM      1  C   LIG    1       -1.238   2.561   0.022  0.00  0.00    +0.017 A 
ATOM      2  C   LIG    1       -1.276   3.938   0.035  0.00  0.00    +0.027 A 
ATOM      3  C   LIG    1       -0.092   4.666   0.028  0.00  0.00    +0.047 A 
ATOM      4  C   LIG    1        1.141   3.984   0.012  0.00  0.00    +0.004 A 
ATOM      5  C   LIG    1        2.167   5.019   0.005  0.00  0.00    -0.017 A 
ATOM      6  C   LIG    1        1.538   6.212   0.020  0.00  0.00    +0.034 A 
ATOM      7  C   LIG    1        2.277   7.530   0.023  0.00  0.00    +0.134 C 
ATOM      8  N   LIG    1        3.675   7.278   0.407  0.00  0.00    -0.310 NA
ATOM      9  H   LIG    1        4.264   8.197   0.270  0.00  0.00    +0.122 HD
ATOM     10  C   LIG    1        4.275   6.215  -0.412  0.00  0.00    +0.086 C 
ATOM     11  C   LIG    1        3.666   4.862  -0.018  0.00  0.00    +0.052 C 
ATOM     12  C   LIG    1        1.161   2.587   0.005  0.00  0.00    +0.025 A 
ATOM     13  N   LIG    1        0.188   6.016   0.034  0.00  0.00    -0.357 N 
ATOM     14  H   LIG    1       -0.634   6.748   0.048  0.00  0.00    +0.166 HD
ATOM     15  C   LIG    1       -0.024   1.887   0.012  0.00  0.00    +0.019 A 
ATOM     16 BR   LIG    1        0.002  -0.004   0.002  0.00  0.00    -0.050 Br
ENDROOT
TORSDOF 0
