REMARK  Name = ZINC13558817
REMARK                            x       y       z     vdW  Elec       q    Type
REMARK                         _______ _______ _______ _____ _____    ______ ____
ROOT
ATOM      1  C   LIG    1        4.441   0.712  -0.043  0.00  0.00    +0.090 A 
ATOM      2  C   LIG    1        3.663  -0.406  -0.056  0.00  0.00    +0.121 A 
ATOM      3  N   LIG    1        2.361   0.011  -0.036  0.00  0.00    -0.305 N 
ATOM      4  C   LIG    1        1.177  -0.669  -0.037  0.00  0.00    +0.108 A 
ATOM      5  C   LIG    1        0.002  -0.005  -0.015  0.00  0.00    +0.034 A 
ATOM      6 BR   LIG    1       -1.625  -0.969  -0.017  0.00  0.00    -0.049 Br
ATOM      7  C   LIG    1       -0.017   1.400   0.011  0.00  0.00    +0.020 A 
ATOM      8  C   LIG    1        1.155   2.090   0.012  0.00  0.00    +0.048 A 
ATOM      9  C   LIG    1        2.374   1.382  -0.012  0.00  0.00    +0.138 A 
ATOM     10  N   LIG    1        3.636   1.786  -0.016  0.00  0.00    -0.228 NA
ENDROOT
BRANCH   1  14
ATOM     11  C   LIG    1        8.695   0.788  -0.079  0.00  0.00    +0.029 A 
ATOM     12  C   LIG    1        7.980   1.980  -0.052  0.00  0.00    +0.024 A 
ATOM     13  C   LIG    1        6.601   1.957  -0.040  0.00  0.00    +0.012 A 
ATOM     14  C   LIG    1        5.925   0.739  -0.056  0.00  0.00    +0.002 A 
ATOM     15  C   LIG    1        6.644  -0.455  -0.078  0.00  0.00    +0.012 A 
ATOM     16  C   LIG    1        8.023  -0.428  -0.094  0.00  0.00    +0.024 A 
BRANCH  11  18
ATOM     17  C   LIG    1       10.800   2.090  -0.201  0.00  0.00    +0.129 C 
ATOM     18  N   LIG    1       10.091   0.813  -0.091  0.00  0.00    -0.336 N 
ATOM     19  C   LIG    1       10.847  -0.438   0.007  0.00  0.00    +0.129 C 
ENDBRANCH  11  18
ENDBRANCH   1  14
TORSDOF 2
