REMARK  Name = ZINC13733884
REMARK                            x       y       z     vdW  Elec       q    Type
REMARK                         _______ _______ _______ _____ _____    ______ ____
ROOT
ATOM      1  N   LIG    1        1.851  -2.729   5.074  0.00  0.00    -0.315 N 
ATOM      2  H   LIG    1        2.383  -2.354   5.793  0.00  0.00    +0.149 HD
ATOM      3  C   LIG    1        1.770  -4.066   4.923  0.00  0.00    +0.225 C 
ATOM      4  O   LIG    1        1.105  -4.535   4.023  0.00  0.00    -0.275 OA
ENDROOT
BRANCH   1   5
ATOM      5  C   LIG    1        1.136  -1.843   4.152  0.00  0.00    +0.102 C 
BRANCH   5   6
ATOM      6  C   LIG    1        1.394  -0.386   4.543  0.00  0.00    +0.000 C 
BRANCH   6   7
ATOM      7  C   LIG    1        0.647   0.540   3.580  0.00  0.00    -0.077 C 
BRANCH   7  10
ATOM      8  C   LIG    1        1.085   2.459   1.570  0.00  0.00    -0.013 C 
ATOM      9  C   LIG    1        0.440   2.854   2.900  0.00  0.00    -0.071 C 
ATOM     10  N   LIG    1        0.924   1.941   3.957  0.00  0.00    +0.383 N 
ATOM     11  H   LIG    1        1.938   2.063   4.064  0.00  0.00    -0.081 HD
ATOM     12  C   LIG    1        0.265   2.257   5.242  0.00  0.00    -0.071 C 
ATOM     13  C   LIG    1       -1.256   2.177   5.100  0.00  0.00    -0.013 C 
ATOM     14  C   LIG    1        0.663   3.672   5.670  0.00  0.00    -0.016 C 
ATOM     15  C   LIG    1        0.212   4.669   4.599  0.00  0.00    -0.003 C 
ATOM     16  C   LIG    1        0.844   4.286   3.258  0.00  0.00    -0.016 C 
ENDBRANCH   7  10
ENDBRANCH   6   7
ENDBRANCH   5   6
ENDBRANCH   1   5
BRANCH   3  17
ATOM     17  C   LIG    1        2.506  -4.977   5.871  0.00  0.00    +0.135 C 
BRANCH  17  18
ATOM     18  C   LIG    1        2.252  -6.412   5.487  0.00  0.00    -0.031 A 
ATOM     19  C   LIG    1        0.955  -6.878   5.370  0.00  0.00    +0.005 A 
ATOM     20  C   LIG    1        0.723  -8.193   5.013  0.00  0.00    +0.000 A 
ATOM     21  C   LIG    1        1.786  -9.045   4.782  0.00  0.00    +0.000 A 
ATOM     22  C   LIG    1        3.083  -8.581   4.904  0.00  0.00    +0.000 A 
ATOM     23  C   LIG    1        3.316  -7.265   5.256  0.00  0.00    +0.005 A 
ENDBRANCH  17  18
BRANCH  17  24
ATOM     24  C   LIG    1        2.017  -4.740   7.277  0.00  0.00    -0.031 A 
ATOM     25  C   LIG    1        0.662  -4.756   7.549  0.00  0.00    +0.005 A 
ATOM     26  C   LIG    1        0.214  -4.542   8.839  0.00  0.00    +0.000 A 
ATOM     27  C   LIG    1        1.121  -4.304   9.855  0.00  0.00    +0.000 A 
ATOM     28  C   LIG    1        2.476  -4.283   9.582  0.00  0.00    +0.000 A 
ATOM     29  C   LIG    1        2.924  -4.501   8.292  0.00  0.00    +0.005 A 
ENDBRANCH  17  24
ENDBRANCH   3  17
TORSDOF 7
