REMARK  Name = ZINC13726469
REMARK                            x       y       z     vdW  Elec       q    Type
REMARK                         _______ _______ _______ _____ _____    ______ ____
ROOT
ATOM      1  N   LIG    1       -4.980   4.777  -2.734  0.00  0.00    -0.341 N 
ATOM      2  H   LIG    1       -5.298   5.011  -1.849  0.00  0.00    +0.146 HD
ENDROOT
BRANCH   1   3
ATOM      3  C   LIG    1       -5.641   5.263  -3.865  0.00  0.00    +0.060 A 
ATOM      4  C   LIG    1       -5.119   5.027  -5.130  0.00  0.00    +0.066 A 
ATOM      5  C   LIG    1       -5.776   5.510  -6.248  0.00  0.00    +0.155 A 
ATOM      6  F   LIG    1       -5.270   5.282  -7.480  0.00  0.00    -0.203 F 
ATOM      7  C   LIG    1       -6.952   6.228  -6.104  0.00  0.00    +0.159 A 
ATOM      8  C   LIG    1       -7.472   6.463  -4.845  0.00  0.00    +0.070 A 
ATOM      9  C   LIG    1       -6.824   5.978  -3.726  0.00  0.00    +0.145 A 
BRANCH   7  10
ATOM     10  N   LIG    1       -7.653   6.744  -7.301  0.00  0.00    +0.009 N 
ATOM     11  O   LIG    1       -8.688   7.375  -7.176  0.00  0.00    -0.130 OA
BRANCH  10  12
ATOM     12  O   LIG    1       -7.196   6.538  -8.411  0.00  0.00    -0.396 OA
ATOM     13  H   LIG    1       -6.401   6.052  -8.507  0.00  0.00    +0.329 HD
ENDBRANCH  10  12
ENDBRANCH   7  10
BRANCH   9  14
ATOM     14  N   LIG    1       -7.386   6.225  -2.379  0.00  0.00    +0.008 N 
ATOM     15  O   LIG    1       -8.475   6.758  -2.262  0.00  0.00    -0.130 OA
BRANCH  14  16
ATOM     16  O   LIG    1       -6.759   5.896  -1.388  0.00  0.00    -0.396 OA
ATOM     17  H   LIG    1       -5.921   5.486  -1.478  0.00  0.00    +0.329 HD
ENDBRANCH  14  16
ENDBRANCH   9  14
ENDBRANCH   1   3
BRANCH   1  18
ATOM     18  C   LIG    1       -3.807   3.912  -2.886  0.00  0.00    +0.112 C 
BRANCH  18  19
ATOM     19  C   LIG    1       -3.278   3.523  -1.505  0.00  0.00    +0.088 C 
BRANCH  19  20
ATOM     20  S   LIG    1       -1.826   2.453  -1.693  0.00  0.00    -0.151 S 
BRANCH  20  21
ATOM     21  C   LIG    1       -1.327   2.086   0.012  0.00  0.00    +0.143 C 
BRANCH  21  25
ATOM     22  C   LIG    1        1.134  -0.612  -0.024  0.00  0.00    +0.089 A 
ATOM     23  C   LIG    1        1.971   0.441  -0.028  0.00  0.00    +0.043 A 
ATOM     24  C   LIG    1        1.167   1.604  -0.013  0.00  0.00    +0.046 A 
ATOM     25  C   LIG    1       -0.114   1.192  -0.001  0.00  0.00    +0.115 A 
ATOM     26  O   LIG    1       -0.128  -0.151  -0.007  0.00  0.00    -0.466 OA
BRANCH  22  27
ATOM     27  C   LIG    1        1.542  -2.062  -0.036  0.00  0.00    -0.004 C 
BRANCH  27  29
ATOM     28  C   LIG    1        0.396  -2.547   2.042  0.00  0.00    -0.096 C 
ATOM     29  N   LIG    1        1.707  -2.522   1.359  0.00  0.00    +0.381 N 
ATOM     30  H   LIG    1        2.328  -1.871   1.854  0.00  0.00    -0.082 HD
ATOM     31  C   LIG    1        2.312  -3.871   1.378  0.00  0.00    -0.096 C 
ENDBRANCH  27  29
ENDBRANCH  22  27
ENDBRANCH  21  25
ENDBRANCH  20  21
ENDBRANCH  19  20
ENDBRANCH  18  19
ENDBRANCH   1  18
TORSDOF 12
