REMARK  Name = ZINC13742894
REMARK                            x       y       z     vdW  Elec       q    Type
REMARK                         _______ _______ _______ _____ _____    ______ ____
ROOT
ATOM      1  C   LIG    1       -0.729   1.579   1.267  0.00  0.00    +0.095 C 
ENDROOT
BRANCH   1   2
ATOM      2  P   LIG    1        0.153   0.975   2.744  0.00  0.00    +0.202 P 
ATOM      3  O   LIG    1        0.279  -0.498   2.675  0.00  0.00    -0.291 OA
BRANCH   2   5
ATOM      4  C   LIG    1       -0.108   0.824   5.470  0.00  0.00    +0.014 C 
ATOM      5  C   LIG    1       -0.781   1.437   4.240  0.00  0.00    +0.094 C 
ENDBRANCH   2   5
BRANCH   2   6
ATOM      6  O   LIG    1        1.619   1.637   2.801  0.00  0.00    -0.344 OA
ATOM      7  H   LIG    1        2.089   1.316   3.587  0.00  0.00    +0.218 HD
ENDBRANCH   2   6
ENDBRANCH   1   2
BRANCH   1   8
ATOM      8  C   LIG    1       -0.013   1.086   0.008  0.00  0.00    -0.010 C 
BRANCH   8   9
ATOM      9  C   LIG    1       -0.753   1.593  -1.232  0.00  0.00    -0.086 C 
BRANCH   9  10
ATOM     10  N   LIG    1       -0.065   1.119  -2.440  0.00  0.00    +0.378 N 
ATOM     11  H   LIG    1        0.967   1.500  -2.448  0.00  0.00    -0.090 HD
ATOM     12  H   LIG    1       -0.050   0.019  -2.446  0.00  0.00    -0.090 HD
ATOM     13  H   LIG    1       -0.597   1.483  -3.331  0.00  0.00    -0.090 HD
ENDBRANCH   9  10
ENDBRANCH   8   9
ENDBRANCH   1   8
TORSDOF 6
