REMARK  Name = ZINC13679482
REMARK                            x       y       z     vdW  Elec       q    Type
REMARK                         _______ _______ _______ _____ _____    ______ ____
ROOT
ATOM      1  C   LIG    1       -0.017   1.389   0.010  0.00  0.00    +0.025 A 
ATOM      2  C   LIG    1        1.149   2.100   0.002  0.00  0.00    +0.032 A 
ATOM      3  C   LIG    1        2.376   1.430  -0.013  0.00  0.00    +0.090 A 
ATOM      4  C   LIG    1        2.399   0.024  -0.021  0.00  0.00    +0.068 A 
ATOM      5  N   LIG    1        3.732  -0.341  -0.035  0.00  0.00    -0.337 N 
ATOM      6  C   LIG    1        4.469   0.815  -0.036  0.00  0.00    +0.158 A 
ATOM      7  H   LIG    1        4.081  -1.246  -0.043  0.00  0.00    +0.167 HD
ATOM      8  C   LIG    1        1.208  -0.687  -0.013  0.00  0.00    +0.050 A 
ATOM      9  N   LIG    1        3.666   1.851  -0.023  0.00  0.00    -0.226 NA
ATOM     10  C   LIG    1        0.002  -0.004   0.002  0.00  0.00    +0.027 A 
ENDROOT
BRANCH   6  11
ATOM     11  C   LIG    1        5.944   0.882  -0.049  0.00  0.00    +0.113 A 
ATOM     12  C   LIG    1        6.614   2.080  -0.044  0.00  0.00    +0.078 A 
ATOM     13  S   LIG    1        8.306   1.511  -0.066  0.00  0.00    -0.083 S 
ATOM     14  C   LIG    1        7.999  -0.143  -0.079  0.00  0.00    +0.156 A 
ATOM     15  N   LIG    1        6.694  -0.213  -0.061  0.00  0.00    -0.244 NA
ENDBRANCH   6  11
BRANCH  10  16
ATOM     16  N   LIG    1       -1.201  -0.717   0.010  0.00  0.00    -0.358 N 
ATOM     17  H   LIG    1       -1.190  -1.687   0.005  0.00  0.00    +0.142 HD
ATOM     18  H   LIG    1       -2.046  -0.241   0.021  0.00  0.00    +0.142 HD
ENDBRANCH  10  16
TORSDOF 2
