REMARK  Name = ZINC13679495
REMARK                            x       y       z     vdW  Elec       q    Type
REMARK                         _______ _______ _______ _____ _____    ______ ____
ROOT
ATOM      1  C   LIG    1        3.365  -1.622  -0.037  0.00  0.00    +0.022 A 
ATOM      2  C   LIG    1        1.979  -1.615  -0.025  0.00  0.00    +0.031 A 
ATOM      3  C   LIG    1        1.329  -0.390  -0.013  0.00  0.00    +0.086 A 
ATOM      4  C   LIG    1        2.087   0.796  -0.014  0.00  0.00    +0.178 A 
ATOM      5  N   LIG    1        1.213   1.824   0.000  0.00  0.00    -0.207 NA
ATOM      6  C   LIG    1       -0.017   1.364   0.009  0.00  0.00    +0.160 A 
ATOM      7  N   LIG    1        3.417   0.733  -0.026  0.00  0.00    -0.234 NA
ATOM      8  N   LIG    1        0.002  -0.004   0.002  0.00  0.00    -0.335 N 
ATOM      9  H   LIG    1       -0.793  -0.610   0.006  0.00  0.00    +0.167 HD
ATOM     10  C   LIG    1        4.052  -0.419  -0.038  0.00  0.00    +0.113 A 
ENDROOT
BRANCH   6  11
ATOM     11  C   LIG    1       -1.235   2.197   0.020  0.00  0.00    +0.113 A 
ATOM     12  C   LIG    1       -1.158   3.565   0.027  0.00  0.00    +0.078 A 
ATOM     13  S   LIG    1       -2.836   4.005   0.038  0.00  0.00    -0.083 S 
ATOM     14  C   LIG    1       -3.509   2.407   0.032  0.00  0.00    +0.156 A 
ATOM     15  N   LIG    1       -2.442   1.647   0.017  0.00  0.00    -0.244 NA
ENDBRANCH   6  11
TORSDOF 1
