REMARK  Name = ZINC13590038
REMARK                            x       y       z     vdW  Elec       q    Type
REMARK                         _______ _______ _______ _____ _____    ______ ____
ROOT
ATOM      1  C   LIG    1       -0.019   1.526   0.010  0.00  0.00    +0.004 C 
ATOM      2  C   LIG    1        1.418   2.052  -0.001  0.00  0.00    +0.002 C 
ATOM      3  C   LIG    1        2.137   1.558  -1.255  0.00  0.00    -0.025 C 
ATOM      4  C   LIG    1        1.415   2.069  -2.503  0.00  0.00    -0.078 C 
ATOM      5  N   LIG    1        2.123   1.608  -3.703  0.00  0.00    +0.388 N 
ATOM      6  H1  LIG    1        3.080   1.925  -3.670  0.00  0.00    -0.085 HD
ATOM      7  H2  LIG    1        1.674   1.986  -4.524  0.00  0.00    -0.085 HD
ATOM      8  CA  LIG    1        2.098   0.142  -3.766  0.00  0.00    +0.039 C 
ATOM      9  C   LIG    1        2.844  -0.440  -2.563  0.00  0.00    -0.001 C 
ATOM     10  C   LIG    1        2.150   0.028  -1.279  0.00  0.00    -0.010 C 
ATOM     11  C   LIG    1        0.712  -0.495  -1.261  0.00  0.00    +0.007 C 
ATOM     12  C   LIG    1        0.002  -0.004   0.002  0.00  0.00    -0.010 C 
ENDROOT
BRANCH   8  13
ATOM     13  C   LIG    1        2.764  -0.317  -5.037  0.00  0.00    +0.291 C 
ATOM     14  O   LIG    1        3.377   0.480  -5.727  0.00  0.00    -0.253 OA
BRANCH  13  15
ATOM     15  OXT LIG    1        2.692  -1.486  -5.376  0.00  0.00    -0.482 OA
ATOM     16  HXT LIG    1        2.221  -2.099  -4.846  0.00  0.00    +0.295 HD
ENDBRANCH  13  15
ENDBRANCH   8  13
BRANCH  12  17
ATOM     17  C   LIG    1       -1.433  -0.534   0.020  0.00  0.00    +0.011 C 
BRANCH  17  18
ATOM     18  C   LIG    1       -2.104  -0.146   1.339  0.00  0.00    +0.078 C 
BRANCH  18  19
ATOM     19  C   LIG    1       -3.517  -0.668   1.357  0.00  0.00    +0.149 A 
ATOM     20  N   LIG    1       -4.599  -0.032   0.932  0.00  0.00    -0.243 N 
ATOM     21  H   LIG    1       -4.628   0.873   0.546  0.00  0.00    +0.192 HD
ATOM     22  N   LIG    1       -5.608  -0.815   1.115  0.00  0.00    -0.047 NA
ATOM     23  N   LIG    1       -5.196  -1.912   1.647  0.00  0.00    -0.023 NA
ATOM     24  N   LIG    1       -3.918  -1.848   1.806  0.00  0.00    -0.114 NA
ENDBRANCH  18  19
ENDBRANCH  17  18
ENDBRANCH  12  17
TORSDOF 5
