REMARK  Name = ZINC13742923
REMARK                            x       y       z     vdW  Elec       q    Type
REMARK                         _______ _______ _______ _____ _____    ______ ____
ROOT
ATOM      1  C   LIG    1        2.671   4.094  -0.001  0.00  0.00    +0.106 C 
ENDROOT
BRANCH   1   2
ATOM      2  O   LIG    1        3.331   3.783  -1.230  0.00  0.00    -0.393 OA
ATOM      3  H   LIG    1        3.520   2.735  -1.503  0.00  0.00    +0.210 HD
ENDBRANCH   1   2
BRANCH   1   4
ATOM      4  C   LIG    1        2.533   5.612   0.134  0.00  0.00    -0.054 C 
BRANCH   4   5
ATOM      5  N   LIG    1        3.867   6.228   0.124  0.00  0.00    +0.380 N 
ATOM      6  H   LIG    1        4.457   5.837   0.966  0.00  0.00    -0.090 HD
ATOM      7  H   LIG    1        4.375   5.988  -0.822  0.00  0.00    -0.090 HD
ATOM      8  H   LIG    1        3.768   7.319   0.222  0.00  0.00    -0.090 HD
ENDBRANCH   4   5
ENDBRANCH   1   4
BRANCH   1   9
ATOM      9  C   LIG    1        1.282   3.453   0.008  0.00  0.00    +0.123 C 
BRANCH   9  10
ATOM     10  P   LIG    1        1.451   1.638  -0.003  0.00  0.00    +0.193 P 
ATOM     11  O   LIG    1        2.203   1.204   1.196  0.00  0.00    -0.294 OA
ATOM     12  H   LIG    1        2.032   1.169  -0.811  0.00  0.00    +0.128 HD
BRANCH  10  13
ATOM     13  O   LIG    1       -0.011   0.963   0.007  0.00  0.00    -0.346 OA
ATOM     14  H   LIG    1       -0.504   1.247  -0.779  0.00  0.00    +0.217 HD
ENDBRANCH  10  13
ENDBRANCH   9  10
ENDBRANCH   1   9
TORSDOF 6
