REMARK  Name = ZINC13734725
REMARK                            x       y       z     vdW  Elec       q    Type
REMARK                         _______ _______ _______ _____ _____    ______ ____
ROOT
ATOM      1  C   LIG    1       -0.013   1.086   0.008  0.00  0.00    +0.022 C 
ENDROOT
BRANCH   1   6
ATOM      2  N   LIG    1       -0.598   2.987   3.789  0.00  0.00    +0.382 N 
ATOM      3  H   LIG    1        0.399   3.223   3.733  0.00  0.00    -0.081 HD
ATOM      4  C   LIG    1       -1.300   3.588   2.635  0.00  0.00    -0.078 C 
ATOM      5  C   LIG    1       -0.635   3.106   1.344  0.00  0.00    -0.015 C 
ATOM      6  C   LIG    1       -0.729   1.579   1.267  0.00  0.00    -0.013 C 
ATOM      7  C   LIG    1       -0.064   0.972   2.505  0.00  0.00    -0.015 C 
ATOM      8  C   LIG    1       -0.745   1.516   3.763  0.00  0.00    -0.078 C 
BRANCH   2   9
ATOM      9  C   LIG    1       -1.148   3.526   5.051  0.00  0.00    -0.043 C 
BRANCH   9  13
ATOM     10  C   LIG    1       -0.137   7.667   5.333  0.00  0.00    +0.000 A 
ATOM     11  C   LIG    1       -1.325   7.284   4.739  0.00  0.00    +0.000 A 
ATOM     12  C   LIG    1       -1.652   5.944   4.648  0.00  0.00    +0.002 A 
ATOM     13  C   LIG    1       -0.791   4.987   5.150  0.00  0.00    -0.064 A 
ATOM     14  C   LIG    1        0.395   5.369   5.749  0.00  0.00    +0.002 A 
ATOM     15  C   LIG    1        0.724   6.709   5.835  0.00  0.00    +0.000 A 
ENDBRANCH   9  13
ENDBRANCH   2   9
ENDBRANCH   1   6
BRANCH   1  16
ATOM     16  C   LIG    1       -0.753   1.593  -1.232  0.00  0.00    +0.103 C 
BRANCH  16  17
ATOM     17  N   LIG    1       -0.067   1.120  -2.437  0.00  0.00    -0.326 N 
ATOM     18  H   LIG    1        0.730   0.573  -2.358  0.00  0.00    +0.148 HD
BRANCH  17  19
ATOM     19  C   LIG    1       -0.543   1.446  -3.655  0.00  0.00    +0.137 C 
ATOM     20  S   LIG    1       -1.950   2.412  -3.793  0.00  0.00    -0.018 S 
BRANCH  19  21
ATOM     21  N   LIG    1        0.087   1.011  -4.764  0.00  0.00    -0.264 N 
ATOM     22  H   LIG    1        0.884   0.464  -4.685  0.00  0.00    +0.157 HD
ATOM     23  C   LIG    1       -0.389   1.337  -5.981  0.00  0.00    +0.250 C 
ATOM     24  O   LIG    1       -1.388   2.023  -6.080  0.00  0.00    -0.270 OA
BRANCH  23  25
ATOM     25  C   LIG    1        0.302   0.861  -7.197  0.00  0.00    +0.037 A 
ATOM     26  C   LIG    1        1.453   0.077  -7.088  0.00  0.00    +0.013 A 
ATOM     27  C   LIG    1        2.090  -0.369  -8.227  0.00  0.00    +0.001 A 
ATOM     28  C   LIG    1        1.598  -0.033  -9.476  0.00  0.00    +0.000 A 
ATOM     29  C   LIG    1        0.462   0.748  -9.591  0.00  0.00    +0.001 A 
ATOM     30  C   LIG    1       -0.188   1.196  -8.460  0.00  0.00    +0.013 A 
ENDBRANCH  23  25
ENDBRANCH  19  21
ENDBRANCH  17  19
ENDBRANCH  16  17
ENDBRANCH   1  16
TORSDOF 8
