REMARK  Name = ZINC13588854
REMARK                            x       y       z     vdW  Elec       q    Type
REMARK                         _______ _______ _______ _____ _____    ______ ____
ROOT
ATOM      1  C   LIG    1       -5.296   2.018  -4.042  0.00  0.00    +0.001 A 
ATOM      2  C   LIG    1       -5.113   1.416  -2.803  0.00  0.00    +0.002 A 
ATOM      3  C   LIG    1       -4.361   2.032  -1.827  0.00  0.00    +0.026 A 
ATOM      4  C   LIG    1       -3.778   3.270  -2.082  0.00  0.00    +0.050 A 
ATOM      5  C   LIG    1       -3.966   3.878  -3.338  0.00  0.00    +0.001 A 
ATOM      6  C   LIG    1       -3.267   5.109  -3.310  0.00  0.00    +0.043 A 
ATOM      7  C   LIG    1       -2.692   5.231  -2.084  0.00  0.00    +0.128 A 
ATOM      8  N   LIG    1       -2.994   4.112  -1.330  0.00  0.00    -0.330 N 
ATOM      9  C   LIG    1       -4.735   3.231  -4.314  0.00  0.00    +0.010 A 
ENDROOT
BRANCH   7  10
ATOM     10  C   LIG    1       -1.878   6.367  -1.634  0.00  0.00    +0.353 C 
ATOM     11  O   LIG    1       -1.675   7.303  -2.382  0.00  0.00    -0.243 OA
BRANCH  10  12
ATOM     12  O   LIG    1       -1.356   6.372  -0.391  0.00  0.00    -0.476 OA
ATOM     13  H   LIG    1       -1.513   5.650   0.186  0.00  0.00    +0.295 HD
ENDBRANCH  10  12
ENDBRANCH   7  10
BRANCH   8  14
ATOM     14  C   LIG    1       -2.554   3.867   0.046  0.00  0.00    +0.157 C 
BRANCH  14  15
ATOM     15  C   LIG    1       -1.238   3.133   0.030  0.00  0.00    -0.026 A 
ATOM     16  C   LIG    1       -1.219   1.750   0.017  0.00  0.00    +0.007 A 
ATOM     17  C   LIG    1       -0.013   1.076   0.008  0.00  0.00    +0.022 A 
ATOM     18  C   LIG    1        1.176   1.784   0.000  0.00  0.00    +0.059 A 
ATOM     19 CL   LIG    1        2.691   0.937  -0.019  0.00  0.00    -0.082 Cl
ATOM     20  C   LIG    1        1.156   3.168   0.008  0.00  0.00    +0.060 A 
ATOM     21 CL   LIG    1        2.647   4.058  -0.003  0.00  0.00    -0.082 Cl
ATOM     22  C   LIG    1       -0.052   3.842   0.022  0.00  0.00    +0.026 A 
ENDBRANCH  14  15
ENDBRANCH   8  14
TORSDOF 4
