REMARK  Name = ZINC13741565
REMARK                            x       y       z     vdW  Elec       q    Type
REMARK                         _______ _______ _______ _____ _____    ______ ____
ROOT
ATOM      1  C   LIG    1       -6.764   0.357  -1.156  0.00  0.00    +0.121 A 
ATOM      2  C   LIG    1       -7.301  -0.094   0.041  0.00  0.00    +0.049 A 
ATOM      3  C   LIG    1       -6.649   0.163   1.231  0.00  0.00    +0.049 A 
ATOM      4  C   LIG    1       -5.457   0.873   1.229  0.00  0.00    +0.124 A 
ATOM      5  C   LIG    1       -4.920   1.324   0.033  0.00  0.00    -0.001 A 
ATOM      6  C   LIG    1       -5.576   1.071  -1.157  0.00  0.00    +0.053 A 
ENDROOT
BRANCH   1   8
ATOM      7  C   LIG    1       -8.629  -0.633  -2.251  0.00  0.00    +0.277 C 
ATOM      8  O   LIG    1       -7.406   0.104  -2.327  0.00  0.00    -0.495 OA
ENDBRANCH   1   8
BRANCH   4   9
ATOM      9  O   LIG    1       -4.814   1.126   2.401  0.00  0.00    -0.495 OA
ATOM     10  C   LIG    1       -5.424   0.631   3.595  0.00  0.00    +0.277 C 
ENDBRANCH   4   9
BRANCH   5  11
ATOM     11  C   LIG    1       -3.626   2.095   0.031  0.00  0.00    +0.057 C 
BRANCH  11  12
ATOM     12  C   LIG    1       -2.449   1.117   0.020  0.00  0.00    +0.109 C 
BRANCH  12  13
ATOM     13  N   LIG    1       -1.191   1.867   0.018  0.00  0.00    -0.315 N 
ATOM     14  H   LIG    1       -1.204   2.837   0.023  0.00  0.00    +0.149 HD
ATOM     15  C   LIG    1       -0.014   1.209   0.009  0.00  0.00    +0.216 C 
ATOM     16  O   LIG    1        0.002  -0.004   0.002  0.00  0.00    -0.276 OA
BRANCH  15  17
ATOM     17  C   LIG    1        1.280   1.980   0.001  0.00  0.00    +0.075 C 
ATOM     18  C   LIG    1        2.127   1.925  -1.273  0.00  0.00    +0.013 C 
ATOM     19  C   LIG    1        2.582   1.175  -0.018  0.00  0.00    +0.013 C 
ENDBRANCH  15  17
ENDBRANCH  12  13
ENDBRANCH  11  12
ENDBRANCH   5  11
TORSDOF 6
