REMARK  Name = ZINC13587215
REMARK                            x       y       z     vdW  Elec       q    Type
REMARK                         _______ _______ _______ _____ _____    ______ ____
ROOT
ATOM      1  C   LIG    1        0.002  -0.004   0.002  0.00  0.00    +0.163 C 
ENDROOT
BRANCH   1   4
ATOM      2  C   LIG    1       -1.214   3.626   0.028  0.00  0.00    +0.109 C 
ATOM      3  C   LIG    1       -1.194   2.119   0.019  0.00  0.00    +0.211 C 
ATOM      4  N   LIG    1       -0.018   1.461   0.010  0.00  0.00    -0.304 N 
ATOM      5  H   LIG    1        0.816   1.957   0.005  0.00  0.00    +0.149 HD
ATOM      6  O   LIG    1       -2.236   1.498   0.021  0.00  0.00    -0.276 OA
ENDBRANCH   1   4
BRANCH   1   7
ATOM      7  C   LIG    1       -0.713  -0.509  -1.224  0.00  0.00    +0.234 C 
ATOM      8  N   LIG    1       -0.489  -1.763  -1.667  0.00  0.00    -0.314 N 
ATOM      9  H   LIG    1        0.132  -2.340  -1.195  0.00  0.00    +0.149 HD
ATOM     10  O   LIG    1       -1.490   0.212  -1.814  0.00  0.00    -0.274 OA
BRANCH   8  11
ATOM     11  C   LIG    1       -1.185  -2.254  -2.859  0.00  0.00    +0.104 C 
BRANCH  11  12
ATOM     12  C   LIG    1       -0.755  -3.695  -3.142  0.00  0.00    +0.022 C 
BRANCH  12  13
ATOM     13  C   LIG    1       -1.481  -4.208  -4.388  0.00  0.00    +0.042 C 
BRANCH  13  14
ATOM     14  C   LIG    1       -1.051  -5.649  -4.671  0.00  0.00    +0.229 C 
BRANCH  14  15
ATOM     15  O   LIG    1       -1.730  -6.128  -5.834  0.00  0.00    -0.491 OA
BRANCH  15  16
ATOM     16  C   LIG    1       -1.459  -7.398  -6.225  0.00  0.00    +0.138 A 
ATOM     17  C   LIG    1       -0.560  -8.170  -5.507  0.00  0.00    +0.047 A 
ATOM     18  C   LIG    1       -0.282  -9.465  -5.904  0.00  0.00    +0.007 A 
ATOM     19  C   LIG    1       -0.896 -10.004  -7.019  0.00  0.00    +0.046 A 
ATOM     20  C   LIG    1       -1.798  -9.251  -7.752  0.00  0.00    +0.134 A 
ATOM     21  C   LIG    1       -2.093  -7.937  -7.355  0.00  0.00    +0.142 A 
BRANCH  21  22
ATOM     22  C   LIG    1       -3.054  -7.129  -8.121  0.00  0.00    +0.346 C 
ATOM     23  O   LIG    1       -2.668  -6.441  -9.046  0.00  0.00    -0.245 OA
BRANCH  22  24
ATOM     24  O   LIG    1       -4.362  -7.152  -7.798  0.00  0.00    -0.464 OA
ATOM     25  C   LIG    1       -5.253  -6.330  -8.598  0.00  0.00    +0.280 C 
ENDBRANCH  22  24
ENDBRANCH  21  22
BRANCH  20  26
ATOM     26  O   LIG    1       -2.400  -9.782  -8.845  0.00  0.00    -0.506 OA
ATOM     27  H   LIG    1       -3.234 -10.233  -8.655  0.00  0.00    +0.292 HD
ENDBRANCH  20  26
ENDBRANCH  15  16
ENDBRANCH  14  15
ENDBRANCH  13  14
ENDBRANCH  12  13
ENDBRANCH  11  12
ENDBRANCH   8  11
ENDBRANCH   1   7
BRANCH   1  28
ATOM     28  C   LIG    1       -0.700  -0.530   1.255  0.00  0.00    +0.067 C 
BRANCH  28  29
ATOM     29  C   LIG    1        0.084  -0.128   2.477  0.00  0.00    -0.041 A 
ATOM     30  C   LIG    1       -0.189   1.071   3.108  0.00  0.00    +0.007 A 
ATOM     31  C   LIG    1        0.527   1.445   4.230  0.00  0.00    +0.050 A 
ATOM     32  C   LIG    1        1.522   0.617   4.724  0.00  0.00    +0.162 A 
ATOM     33  C   LIG    1        1.798  -0.590   4.089  0.00  0.00    +0.159 A 
ATOM     34  C   LIG    1        1.072  -0.961   2.968  0.00  0.00    +0.053 A 
BRANCH  33  35
ATOM     35  O   LIG    1        2.773  -1.406   4.570  0.00  0.00    -0.503 OA
ATOM     36  H   LIG    1        2.462  -2.048   5.223  0.00  0.00    +0.292 HD
ENDBRANCH  33  35
BRANCH  32  37
ATOM     37  O   LIG    1        2.228   0.983   5.827  0.00  0.00    -0.477 OA
BRANCH  37  38
ATOM     38  C   LIG    1        1.891   2.236   6.427  0.00  0.00    +0.349 C 
BRANCH  38  39
ATOM     39  C   LIG    1        2.771   2.471   7.628  0.00  0.00    +0.343 C 
ATOM     40  O   LIG    1        3.602   1.650   7.938  0.00  0.00    -0.247 OA
BRANCH  39  41
ATOM     41  O   LIG    1        2.632   3.592   8.352  0.00  0.00    -0.478 OA
ATOM     42  H   LIG    1        1.988   4.228   8.112  0.00  0.00    +0.295 HD
ENDBRANCH  39  41
ENDBRANCH  38  39
ENDBRANCH  37  38
ENDBRANCH  32  37
ENDBRANCH  28  29
ENDBRANCH   1  28
TORSDOF 18
