REMARK  Name = ZINC13584669
REMARK                            x       y       z     vdW  Elec       q    Type
REMARK                         _______ _______ _______ _____ _____    ______ ____
ROOT
ATOM      1  C   LIG    1       -1.487   6.280   3.407  0.00  0.00    +0.216 C 
ATOM      2  N   LIG    1       -1.825   5.043   3.822  0.00  0.00    -0.290 N 
ATOM      3  C   LIG    1       -2.568   4.722   5.051  0.00  0.00    +0.108 C 
ATOM      4  C   LIG    1       -2.741   3.189   5.096  0.00  0.00    +0.021 C 
ATOM      5  C   LIG    1       -2.584   2.778   3.609  0.00  0.00    +0.033 C 
ATOM      6  C   LIG    1       -1.513   3.785   3.119  0.00  0.00    +0.162 C 
ATOM      7  O   LIG    1       -0.945   6.431   2.332  0.00  0.00    -0.276 OA
ENDROOT
BRANCH   6   8
ATOM      8  C   LIG    1       -1.616   3.978   1.628  0.00  0.00    +0.237 C 
ATOM      9  N   LIG    1       -0.864   3.229   0.798  0.00  0.00    -0.284 N 
ATOM     10  C   LIG    1        0.099   2.192   1.213  0.00  0.00    +0.109 C 
ATOM     11  C   LIG    1        1.102   2.089   0.036  0.00  0.00    +0.022 C 
ATOM     12  C   LIG    1        0.169   2.290  -1.188  0.00  0.00    +0.039 C 
ATOM     13  C   LIG    1       -0.865   3.312  -0.669  0.00  0.00    +0.179 C 
ATOM     14  O   LIG    1       -2.377   4.806   1.175  0.00  0.00    -0.274 OA
BRANCH  13  15
ATOM     15  C   LIG    1       -2.202   2.979  -1.188  0.00  0.00    +0.085 C 
ATOM     16  N   LIG    1       -3.233   2.722  -1.589  0.00  0.00    -0.195 NA
ENDBRANCH  13  15
ENDBRANCH   6   8
BRANCH   1  17
ATOM     17  C   LIG    1       -1.782   7.474   4.277  0.00  0.00    +0.096 C 
BRANCH  17  18
ATOM     18  C   LIG    1       -1.301   8.747   3.577  0.00  0.00    +0.014 C 
BRANCH  18  19
ATOM     19  C   LIG    1       -1.601   9.959   4.461  0.00  0.00    +0.035 C 
BRANCH  19  23
ATOM     20  C   LIG    1       -0.258  13.512   2.507  0.00  0.00    +0.000 A 
ATOM     21  C   LIG    1       -1.545  13.054   2.299  0.00  0.00    +0.000 A 
ATOM     22  C   LIG    1       -1.980  11.904   2.932  0.00  0.00    +0.003 A 
ATOM     23  C   LIG    1       -1.127  11.213   3.771  0.00  0.00    -0.047 A 
ATOM     24  C   LIG    1        0.159  11.674   3.983  0.00  0.00    +0.003 A 
ATOM     25  C   LIG    1        0.595  12.821   3.347  0.00  0.00    +0.000 A 
ENDBRANCH  19  23
ENDBRANCH  18  19
ENDBRANCH  17  18
ENDBRANCH   1  17
TORSDOF 6
