REMARK  Name = ZINC13743193
REMARK                            x       y       z     vdW  Elec       q    Type
REMARK                         _______ _______ _______ _____ _____    ______ ____
ROOT
ATOM      1  C   LIG    1        1.259  -0.659  -0.013  0.00  0.00    +0.130 A 
ATOM      2  C   LIG    1        0.002  -0.004   0.002  0.00  0.00    +0.040 A 
ATOM      3  C   LIG    1       -1.204  -0.713   0.010  0.00  0.00    +0.013 A 
ATOM      4  C   LIG    1       -2.385  -0.030   0.026  0.00  0.00    +0.001 A 
ATOM      5  C   LIG    1       -2.406   1.361   0.034  0.00  0.00    +0.002 A 
ATOM      6  C   LIG    1       -1.249   2.082   0.031  0.00  0.00    +0.028 A 
ATOM      7  C   LIG    1       -0.017   1.412   0.010  0.00  0.00    +0.077 A 
ATOM      8  N   LIG    1        1.148   2.074   0.002  0.00  0.00    -0.227 NA
ATOM      9  C   LIG    1        2.291   1.414  -0.012  0.00  0.00    +0.162 A 
ATOM     10  N   LIG    1        2.355   0.084  -0.020  0.00  0.00    -0.212 NA
ENDROOT
BRANCH   9  11
ATOM     11  C   LIG    1        3.557   2.186  -0.021  0.00  0.00    +0.019 A 
ATOM     12  C   LIG    1        4.782   1.521  -0.030  0.00  0.00    +0.011 A 
ATOM     13  C   LIG    1        5.957   2.245  -0.044  0.00  0.00    +0.001 A 
ATOM     14  C   LIG    1        5.921   3.628  -0.036  0.00  0.00    +0.000 A 
ATOM     15  C   LIG    1        4.708   4.293  -0.020  0.00  0.00    +0.001 A 
ATOM     16  C   LIG    1        3.526   3.580  -0.013  0.00  0.00    +0.011 A 
ENDBRANCH   9  11
BRANCH   1  17
ATOM     17  N   LIG    1        1.339  -2.036  -0.022  0.00  0.00    -0.328 N 
ATOM     18  H   LIG    1        0.528  -2.568  -0.018  0.00  0.00    +0.147 HD
BRANCH  17  19
ATOM     19  C   LIG    1        2.647  -2.694  -0.038  0.00  0.00    +0.102 C 
BRANCH  19  21
ATOM     20  C   LIG    1        3.822  -4.899  -0.062  0.00  0.00    +0.005 C 
ATOM     21  C   LIG    1        2.455  -4.212  -0.045  0.00  0.00    +0.015 C 
ENDBRANCH  19  21
ENDBRANCH  17  19
ENDBRANCH   1  17
TORSDOF 4
