REMARK  Name = ZINC13588712
REMARK                            x       y       z     vdW  Elec       q    Type
REMARK                         _______ _______ _______ _____ _____    ______ ____
ROOT
ATOM      1  C   LIG    1       -2.725   3.302   0.024  0.00  0.00    +0.123 C 
ATOM      2  C   LIG    1       -3.404   1.970  -0.378  0.00  0.00    +0.195 C 
ATOM      3  C   LIG    1       -4.706   1.759   0.397  0.00  0.00    +0.054 C 
ATOM      4  O   LIG    1       -2.403   1.010   0.019  0.00  0.00    -0.462 OA
ATOM      5  C   LIG    1       -1.210   1.636   0.017  0.00  0.00    +0.254 C 
ATOM      6  N   LIG    1       -1.297   2.931   0.029  0.00  0.00    -0.337 N 
ATOM      7  H   LIG    1       -0.383   3.543   0.041  0.00  0.00    +0.164 HD
ENDROOT
BRANCH   5   8
ATOM      8  N   LIG    1       -0.011   0.966   0.007  0.00  0.00    -0.315 N 
ATOM      9  H   LIG    1        0.004  -0.134   0.002  0.00  0.00    +0.147 HD
ATOM     10  H   LIG    1        0.934   1.529   0.006  0.00  0.00    +0.147 HD
ENDBRANCH   5   8
BRANCH   1  12
ATOM     11  C   LIG    1       -2.430   5.722  -0.520  0.00  0.00    +0.006 C 
ATOM     12  C   LIG    1       -3.007   4.393  -1.010  0.00  0.00    +0.025 C 
ENDBRANCH   1  12
TORSDOF 2
