REMARK  Name = ZINC13580718
REMARK                            x       y       z     vdW  Elec       q    Type
REMARK                         _______ _______ _______ _____ _____    ______ ____
ROOT
ATOM      1  C   LIG    1       -0.681   1.795   1.449  0.00  0.00    +0.126 C 
ENDROOT
BRANCH   1   2
ATOM      2  N   LIG    1        0.084   1.555   2.675  0.00  0.00    -0.337 N 
ATOM      3  C   LIG    1       -0.144   0.566   3.594  0.00  0.00    +0.106 A 
ATOM      4  C   LIG    1        0.788   0.706   4.556  0.00  0.00    +0.130 A 
ATOM      5  N   LIG    1        1.558   1.757   4.238  0.00  0.00    -0.244 NA
ATOM      6  C   LIG    1        1.143   2.270   3.113  0.00  0.00    +0.199 A 
ENDBRANCH   1   2
BRANCH   1   7
ATOM      7  C   LIG    1       -0.147   0.898   0.331  0.00  0.00    +0.008 C 
BRANCH   7   9
ATOM      8  C   LIG    1        1.318   2.760  -0.462  0.00  0.00    +0.004 C 
ATOM      9  C   LIG    1        1.290   1.300  -0.004  0.00  0.00    +0.002 C 
ENDBRANCH   7   9
BRANCH   7  10
ATOM     10  C   LIG    1       -1.024   1.057  -0.913  0.00  0.00    +0.002 C 
ATOM     11  C   LIG    1       -0.568   0.069  -1.989  0.00  0.00    +0.004 C 
ENDBRANCH   7  10
ENDBRANCH   1   7
TORSDOF 4
