REMARK  Name = ZINC13588583
REMARK                            x       y       z     vdW  Elec       q    Type
REMARK                         _______ _______ _______ _____ _____    ______ ____
ROOT
ATOM      1  N   LEU A  1       -0.124   3.371  -2.178  0.00  0.00    -0.271 N 
ATOM      2  H   LEU A  1        0.718   3.215  -1.722  0.00  0.00    +0.153 HD
ATOM      3  C   UNK A  0       -0.198   3.251  -3.518  0.00  0.00    +0.401 C 
ATOM      4  O   UNK A  0       -1.253   3.446  -4.088  0.00  0.00    -0.226 OA
ENDROOT
BRANCH   1   5
ATOM      5  CA  LEU A  1       -1.316   3.738  -1.408  0.00  0.00    +0.143 C 
BRANCH   5   6
ATOM      6  C   LEU A  1       -1.460   5.238  -1.391  0.00  0.00    +0.245 C 
ATOM      7  O   LEU A  1       -0.650   5.929  -1.962  0.00  0.00    -0.299 OA
ENDBRANCH   5   6
BRANCH   5   8
ATOM      8  CB  LEU A  1       -1.176   3.222   0.025  0.00  0.00    +0.059 C 
BRANCH   8  10
ATOM      9  CD1 LEU A  1       -2.451   0.944   0.019  0.00  0.00    +0.038 C 
ATOM     10  CG  LEU A  1       -1.156   1.715   0.017  0.00  0.00    -0.078 C 
ATOM     11  CD2 LEU A  1       -0.013   1.076   0.008  0.00  0.00    +0.007 C 
ENDBRANCH   8  10
ENDBRANCH   5   8
ENDBRANCH   1   5
BRANCH   3  12
ATOM     12  O   UNK A  0        0.897   2.913  -4.225  0.00  0.00    -0.445 OA
BRANCH  12  13
ATOM     13  C   UNK A  0        0.744   2.801  -5.665  0.00  0.00    +0.107 C 
ATOM     14  C   UNK A  0       -0.299   1.729  -5.985  0.00  0.00    +0.055 C 
ATOM     15  C   UNK A  0        2.084   2.413  -6.292  0.00  0.00    +0.055 C 
ATOM     16  C   UNK A  0        0.284   4.145  -6.234  0.00  0.00    +0.055 C 
ENDBRANCH  12  13
ENDBRANCH   3  12
TORSDOF 6
