REMARK  Name = ZINC13560374
REMARK                            x       y       z     vdW  Elec       q    Type
REMARK                         _______ _______ _______ _____ _____    ______ ____
ROOT
ATOM      1  C   LIG    1       -0.877   7.223   0.050  0.00  0.00    +0.136 A 
ATOM      2  C   LIG    1       -2.212   7.515   0.064  0.00  0.00    +0.050 A 
ATOM      3  C   LIG    1       -2.900   6.299   0.063  0.00  0.00    +0.050 A 
ATOM      4  C   LIG    1       -1.942   5.300   0.049  0.00  0.00    +0.130 A 
ATOM      5  O   LIG    1       -0.727   5.886   0.047  0.00  0.00    -0.455 OA
ENDROOT
BRANCH   4   6
ATOM      6  C   LIG    1       -2.193   3.911   0.044  0.00  0.00    +0.066 C 
ATOM      7  C   LIG    1       -1.152   3.029   0.029  0.00  0.00    +0.082 C 
ATOM      8  C   LIG    1       -1.170   1.601   0.016  0.00  0.00    +0.258 C 
ATOM      9  N   LIG    1       -0.011   0.966   0.007  0.00  0.00    -0.243 N 
ATOM     10  H   LIG    1        0.002  -0.004   0.002  0.00  0.00    +0.159 HD
ATOM     11  C   LIG    1        1.156   1.647  -0.000  0.00  0.00    +0.283 C 
ATOM     12  O   LIG    1        2.292   1.213  -0.013  0.00  0.00    -0.262 OA
ATOM     13  O   LIG    1       -2.222   0.987   0.018  0.00  0.00    -0.269 OA
ATOM     14  S   LIG    1        0.607   3.347   0.014  0.00  0.00    -0.026 S 
ENDBRANCH   4   6
BRANCH   1  17
ATOM     15  C   LIG    1        0.961  10.497   0.051  0.00  0.00    +0.002 A 
ATOM     16  C   LIG    1       -0.069   9.578   0.050  0.00  0.00    +0.011 A 
ATOM     17  C   LIG    1        0.219   8.211   0.046  0.00  0.00    +0.018 A 
ATOM     18  C   LIG    1        1.549   7.784   0.032  0.00  0.00    +0.026 A 
ATOM     19  C   LIG    1        2.569   8.714   0.027  0.00  0.00    +0.019 A 
ATOM     20 BR   LIG    1        4.370   8.139   0.007  0.00  0.00    -0.050 Br
ATOM     21  C   LIG    1        2.276  10.067   0.037  0.00  0.00    +0.015 A 
ENDBRANCH   1  17
TORSDOF 2
