REMARK  Name = ZINC13738331
REMARK                            x       y       z     vdW  Elec       q    Type
REMARK                         _______ _______ _______ _____ _____    ______ ____
ROOT
ATOM      1  C   LIG    1       -0.817   1.643   3.667  0.00  0.00    +0.134 C 
ATOM      2  C   LIG    1       -0.033   1.089   4.866  0.00  0.00    +0.118 C 
ATOM      3  N   LIG    1       -0.726   1.532   6.086  0.00  0.00    -0.336 N 
ATOM      4  H   LIG    1       -0.224   1.853   6.851  0.00  0.00    +0.147 HD
ATOM      5  C   LIG    1       -2.094   1.483   6.120  0.00  0.00    +0.151 C 
ATOM      6  N   LIG    1       -2.901   1.295   5.082  0.00  0.00    -0.378 N 
ATOM      7  H   LIG    1       -3.922   1.280   5.191  0.00  0.00    +0.160 HD
ATOM      8  C   LIG    1       -2.248   1.103   3.735  0.00  0.00    +0.129 C 
ENDROOT
BRANCH   1   9
ATOM      9  C   LIG    1       -0.166   1.194   2.384  0.00  0.00    +0.313 C 
ATOM     10  O   LIG    1        0.829   0.510   2.418  0.00  0.00    -0.250 OA
BRANCH   9  11
ATOM     11  O   LIG    1       -0.692   1.554   1.203  0.00  0.00    -0.465 OA
BRANCH  11  13
ATOM     12  C   LIG    1       -0.753   1.593  -1.232  0.00  0.00    +0.048 C 
ATOM     13  C   LIG    1       -0.013   1.086   0.008  0.00  0.00    +0.229 C 
ENDBRANCH  11  13
ENDBRANCH   9  11
ENDBRANCH   1   9
TORSDOF 3
