REMARK  Name = ZINC13737354
REMARK                            x       y       z     vdW  Elec       q    Type
REMARK                         _______ _______ _______ _____ _____    ______ ____
ROOT
ATOM      1  C   LIG    1       -4.162   2.688   2.233  0.00  0.00    +0.053 C 
ENDROOT
BRANCH   1   2
ATOM      2  C   LIG    1       -2.741   3.115   2.496  0.00  0.00    -0.027 C 
ATOM      3  C   LIG    1       -1.819   2.213   2.727  0.00  0.00    -0.031 C 
BRANCH   3   4
ATOM      4  C   LIG    1       -2.140   0.749   2.569  0.00  0.00    +0.027 C 
BRANCH   4   5
ATOM      5  C   LIG    1       -1.103   0.096   1.653  0.00  0.00    +0.013 C 
BRANCH   5   6
ATOM      6  C   LIG    1       -1.429  -1.390   1.493  0.00  0.00    +0.096 C 
BRANCH   6   7
ATOM      7  C   LIG    1       -0.407  -2.034   0.590  0.00  0.00    +0.213 C 
ATOM      8  N   LIG    1       -0.494  -3.348   0.304  0.00  0.00    -0.313 N 
ATOM      9  H   LIG    1       -1.214  -3.880   0.679  0.00  0.00    +0.149 HD
ATOM     10  O   LIG    1        0.492  -1.369   0.122  0.00  0.00    -0.276 OA
BRANCH   8  11
ATOM     11  C   LIG    1        0.499  -3.974  -0.573  0.00  0.00    +0.135 C 
BRANCH  11  12
ATOM     12  C   LIG    1        0.173  -5.460  -0.734  0.00  0.00    +0.128 C 
ATOM     13  C   LIG    1        1.210  -6.113  -1.650  0.00  0.00    +0.039 C 
BRANCH  12  14
ATOM     14  O   LIG    1        0.201  -6.095   0.546  0.00  0.00    -0.391 OA
ATOM     15  H   LIG    1        1.055  -6.037   0.996  0.00  0.00    +0.210 HD
ENDBRANCH  12  14
ENDBRANCH  11  12
ENDBRANCH   8  11
ENDBRANCH   6   7
ENDBRANCH   5   6
ENDBRANCH   4   5
ENDBRANCH   3   4
ENDBRANCH   1   2
BRANCH   1  17
ATOM     16  C   LIG    1       -6.120   4.066   2.712  0.00  0.00    -0.027 C 
ATOM     17  C   LIG    1       -5.086   3.411   3.179  0.00  0.00    -0.027 C 
BRANCH  16  18
ATOM     18  C   LIG    1       -6.480   3.963   1.252  0.00  0.00    +0.053 C 
BRANCH  18  20
ATOM     19  C   LIG    1       -8.743   4.263   0.384  0.00  0.00    -0.027 C 
ATOM     20  C   LIG    1       -7.924   3.552   1.119  0.00  0.00    -0.027 C 
BRANCH  19  21
ATOM     21  C   LIG    1       -8.209   5.386  -0.467  0.00  0.00    +0.053 C 
BRANCH  21  23
ATOM     22  C   LIG    1       -9.295   6.177  -2.506  0.00  0.00    -0.031 C 
ATOM     23  C   LIG    1       -8.672   5.203  -1.889  0.00  0.00    -0.027 C 
BRANCH  22  24
ATOM     24  C   LIG    1       -9.404   7.532  -1.856  0.00  0.00    +0.027 C 
BRANCH  24  25
ATOM     25  C   LIG    1       -8.907   8.605  -2.827  0.00  0.00    +0.004 C 
BRANCH  25  26
ATOM     26  C   LIG    1       -9.018   9.981  -2.168  0.00  0.00    +0.000 C 
BRANCH  26  28
ATOM     27  C   LIG    1       -8.632  12.429  -2.479  0.00  0.00    +0.004 C 
ATOM     28  C   LIG    1       -8.521  11.053  -3.139  0.00  0.00    -0.003 C 
ENDBRANCH  26  28
ENDBRANCH  25  26
ENDBRANCH  24  25
ENDBRANCH  22  24
ENDBRANCH  21  23
ENDBRANCH  19  21
ENDBRANCH  18  20
ENDBRANCH  16  18
ENDBRANCH   1  17
TORSDOF 17
