REMARK  Name = ZINC13588744
REMARK                            x       y       z     vdW  Elec       q    Type
REMARK                         _______ _______ _______ _____ _____    ______ ____
ROOT
ATOM      1  O   LIG    1        3.248  -5.567  -0.057  0.00  0.00    -0.492 OA
ENDROOT
BRANCH   1   2
ATOM      2  C   LIG    1        2.774  -4.293  -0.046  0.00  0.00    +0.121 A 
ATOM      3  C   LIG    1        3.658  -3.224  -0.050  0.00  0.00    +0.047 A 
ATOM      4  C   LIG    1        3.177  -1.930  -0.039  0.00  0.00    +0.030 A 
ATOM      5  C   LIG    1        1.809  -1.699  -0.024  0.00  0.00    +0.048 A 
ATOM      6  C   LIG    1        0.924  -2.769  -0.016  0.00  0.00    +0.030 A 
ATOM      7  C   LIG    1        1.406  -4.062  -0.032  0.00  0.00    +0.047 A 
BRANCH   5   8
ATOM      8  N   LIG    1        1.319  -0.383  -0.013  0.00  0.00    -0.306 N 
ATOM      9  C   LIG    1        0.002  -0.004   0.002  0.00  0.00    +0.112 A 
ATOM     10  C   LIG    1       -0.016   1.343   0.009  0.00  0.00    +0.130 A 
ATOM     11  N   LIG    1        1.252   1.778  -0.000  0.00  0.00    -0.244 NA
ATOM     12  C   LIG    1        2.061   0.754  -0.014  0.00  0.00    +0.204 A 
ENDBRANCH   5   8
ENDBRANCH   1   2
BRANCH   1  13
ATOM     13  C   LIG    1        2.281  -6.620  -0.053  0.00  0.00    +0.229 C 
BRANCH  13  14
ATOM     14  C   LIG    1        2.998  -7.971  -0.067  0.00  0.00    +0.041 C 
BRANCH  14  15
ATOM     15  C   LIG    1        1.962  -9.098  -0.063  0.00  0.00    +0.003 C 
BRANCH  15  16
ATOM     16  C   LIG    1        2.679 -10.449  -0.076  0.00  0.00    -0.002 C 
BRANCH  16  17
ATOM     17  C   LIG    1        1.644 -11.576  -0.072  0.00  0.00    -0.019 C 
BRANCH  17  18
ATOM     18  C   LIG    1        2.361 -12.927  -0.086  0.00  0.00    -0.080 C 
BRANCH  18  20
ATOM     19  C   LIG    1        2.002 -15.309  -0.332  0.00  0.00    -0.097 C 
ATOM     20  N   LIG    1        1.348 -14.004  -0.103  0.00  0.00    +0.376 N 
ATOM     21  H   LIG    1        0.684 -13.825  -0.865  0.00  0.00    -0.083 HD
ATOM     22  C   LIG    1        0.612 -14.026   1.179  0.00  0.00    -0.097 C 
ENDBRANCH  18  20
ENDBRANCH  17  18
ENDBRANCH  16  17
ENDBRANCH  15  16
ENDBRANCH  14  15
ENDBRANCH  13  14
ENDBRANCH   1  13
TORSDOF 9
