REMARK  Name = ZINC13674013
REMARK                            x       y       z     vdW  Elec       q    Type
REMARK                         _______ _______ _______ _____ _____    ______ ____
ROOT
ATOM      1  N   LIG    1       -2.365  -2.829   0.009  0.00  0.00    -0.298 N 
ATOM      2  H   LIG    1       -2.331  -3.795   0.097  0.00  0.00    +0.154 HD
ENDROOT
BRANCH   1   9
ATOM      3  C   LIG    1        0.100  -3.942   0.883  0.00  0.00    +0.045 C 
ATOM      4  C   LIG    1        0.035  -2.615   0.172  0.00  0.00    -0.029 A 
ATOM      5  C   LIG    1        1.196  -1.905  -0.070  0.00  0.00    +0.006 A 
ATOM      6  C   LIG    1        1.146  -0.693  -0.726  0.00  0.00    +0.013 A 
ATOM      7  C   LIG    1       -0.083  -0.172  -1.138  0.00  0.00    +0.039 A 
ATOM      8  C   LIG    1       -1.255  -0.888  -0.893  0.00  0.00    +0.036 A 
ATOM      9  C   LIG    1       -1.193  -2.108  -0.238  0.00  0.00    +0.036 A 
BRANCH   7  10
ATOM     10  C   LIG    1       -0.140   1.129  -1.836  0.00  0.00    +0.249 C 
ATOM     11  N   LIG    1        0.994   1.819  -2.071  0.00  0.00    -0.264 N 
ATOM     12  H   LIG    1        1.848   1.461  -1.782  0.00  0.00    +0.157 HD
ATOM     13  O   LIG    1       -1.210   1.576  -2.203  0.00  0.00    -0.270 OA
BRANCH  11  14
ATOM     14  C   LIG    1        0.940   3.046  -2.729  0.00  0.00    +0.168 A 
ATOM     15  C   LIG    1       -0.223   3.704  -3.213  0.00  0.00    +0.088 A 
ATOM     16  C   LIG    1        0.253   4.844  -3.763  0.00  0.00    +0.232 A 
ATOM     17  O   LIG    1        1.583   4.824  -3.598  0.00  0.00    -0.361 OA
ATOM     18  N   LIG    1        1.948   3.826  -3.020  0.00  0.00    -0.063 NA
ENDBRANCH  11  14
ENDBRANCH   7  10
ENDBRANCH   1   9
BRANCH   1  19
ATOM     19  C   LIG    1       -3.571  -2.167   0.130  0.00  0.00    +0.147 A 
ATOM     20  C   LIG    1       -4.777  -2.888   0.245  0.00  0.00    +0.131 A 
ATOM     21  C   LIG    1       -5.977  -2.158   0.365  0.00  0.00    +0.143 A 
ATOM     22  N   LIG    1       -5.923  -0.831   0.365  0.00  0.00    -0.198 NA
ATOM     23  C   LIG    1       -4.766  -0.194   0.255  0.00  0.00    +0.216 A 
ATOM     24  N   LIG    1       -3.614  -0.839   0.145  0.00  0.00    -0.198 NA
BRANCH  23  25
ATOM     25  N   LIG    1       -4.761   1.187   0.260  0.00  0.00    -0.327 N 
ATOM     26  H   LIG    1       -3.923   1.669   0.180  0.00  0.00    +0.145 HD
ATOM     27  H   LIG    1       -5.595   1.674   0.344  0.00  0.00    +0.145 HD
ENDBRANCH  23  25
BRANCH  20  28
ATOM     28  C   LIG    1       -4.782  -4.320   0.240  0.00  0.00    +0.106 C 
ATOM     29  N   LIG    1       -4.786  -5.456   0.236  0.00  0.00    -0.191 NA
ENDBRANCH  20  28
BRANCH  21  30
ATOM     30  N   LIG    1       -7.187  -2.812   0.481  0.00  0.00    -0.326 N 
ATOM     31  H   LIG    1       -7.216  -3.782   0.480  0.00  0.00    +0.148 HD
BRANCH  30  32
ATOM     32  C   LIG    1       -8.427  -2.042   0.606  0.00  0.00    +0.066 C 
ATOM     33  C   LIG    1       -8.652  -1.672   2.073  0.00  0.00    +0.027 C 
ATOM     34  C   LIG    1       -9.602  -2.883   0.105  0.00  0.00    +0.027 C 
ENDBRANCH  30  32
ENDBRANCH  21  30
ENDBRANCH   1  19
TORSDOF 8
