REMARK  Name = ZINC13679631
REMARK                            x       y       z     vdW  Elec       q    Type
REMARK                         _______ _______ _______ _____ _____    ______ ____
ROOT
ATOM      1  C   LIG    1       -0.017   1.384   0.010  0.00  0.00    +0.022 A 
ATOM      2  C   LIG    1        1.143   2.115   0.003  0.00  0.00    +0.030 A 
ATOM      3  C   LIG    1        2.402   1.474  -0.013  0.00  0.00    +0.080 A 
ATOM      4  C   LIG    1        2.383   0.060  -0.020  0.00  0.00    +0.042 A 
ATOM      5  S   LIG    1        4.114  -0.341  -0.040  0.00  0.00    -0.052 S 
ATOM      6  C   LIG    1        4.734   1.335  -0.037  0.00  0.00    +0.159 A 
ATOM      7  C   LIG    1        1.218  -0.665  -0.013  0.00  0.00    +0.037 A 
ATOM      8  N   LIG    1        3.628   2.043  -0.022  0.00  0.00    -0.225 NA
ATOM      9  C   LIG    1        0.002  -0.004   0.002  0.00  0.00    +0.042 A 
ATOM     10 CL   LIG    1       -1.484  -0.902   0.011  0.00  0.00    -0.084 Cl
ENDROOT
BRANCH   6  11
ATOM     11  N   LIG    1        6.043   1.773  -0.048  0.00  0.00    -0.323 N 
ATOM     12  H   LIG    1        6.235   2.724  -0.044  0.00  0.00    +0.148 HD
BRANCH  11  13
ATOM     13  C   LIG    1        7.140   0.803  -0.064  0.00  0.00    +0.105 C 
BRANCH  13  14
ATOM     14  C   LIG    1        8.477   1.546  -0.073  0.00  0.00    +0.040 C 
BRANCH  14  15
ATOM     15  C   LIG    1        9.624   0.533  -0.090  0.00  0.00    +0.124 C 
BRANCH  15  16
ATOM     16  N   LIG    1       10.904   1.245  -0.099  0.00  0.00    -0.337 N 
ATOM     17  C   LIG    1       11.606   1.641  -1.205  0.00  0.00    +0.106 A 
ATOM     18  C   LIG    1       12.717   2.260  -0.761  0.00  0.00    +0.130 A 
ATOM     19  N   LIG    1       12.698   2.234   0.579  0.00  0.00    -0.244 NA
ATOM     20  C   LIG    1       11.616   1.627   0.983  0.00  0.00    +0.199 A 
ENDBRANCH  15  16
ENDBRANCH  14  15
ENDBRANCH  13  14
ENDBRANCH  11  13
ENDBRANCH   6  11
TORSDOF 5
