REMARK  Name = ZINC13679048
REMARK                            x       y       z     vdW  Elec       q    Type
REMARK                         _______ _______ _______ _____ _____    ______ ____
ROOT
ATOM      1  C   LIG    1       -1.795  -1.351   2.831  0.00  0.00    +0.050 C 
ATOM      2  C   LIG    1       -2.270  -0.560   4.023  0.00  0.00    +0.017 A 
ATOM      3  C   LIG    1       -3.262  -1.066   4.841  0.00  0.00    +0.122 A 
ATOM      4  C   LIG    1       -3.707  -0.342   5.946  0.00  0.00    +0.046 A 
ATOM      5  C   LIG    1       -3.171   0.878   6.238  0.00  0.00    +0.015 A 
ATOM      6  C   LIG    1       -2.166   1.410   5.423  0.00  0.00    +0.020 A 
ATOM      7  C   LIG    1       -1.396   2.650   5.446  0.00  0.00    +0.143 A 
ATOM      8  N   LIG    1       -0.574   2.627   4.435  0.00  0.00    -0.179 NA
ATOM      9  N   LIG    1       -0.739   1.443   3.709  0.00  0.00    -0.265 N 
ATOM     10  C   LIG    1       -1.711   0.683   4.306  0.00  0.00    +0.075 A 
ENDROOT
BRANCH   3  11
ATOM     11  O   LIG    1       -3.808  -2.280   4.566  0.00  0.00    -0.506 OA
ATOM     12  H   LIG    1       -3.353  -3.021   4.989  0.00  0.00    +0.292 HD
ENDBRANCH   3  11
BRANCH   9  13
ATOM     13  C   LIG    1        0.011   1.072   2.506  0.00  0.00    +0.128 C 
BRANCH  13  14
ATOM     14  C   LIG    1       -0.729   1.579   1.267  0.00  0.00    -0.057 C 
ATOM     15  C   LIG    1       -0.013   1.086   0.008  0.00  0.00    -0.012 C 
BRANCH  14  16
ATOM     16  N   LIG    1       -0.761   3.052   1.253  0.00  0.00    +0.381 N 
ATOM     17  H   LIG    1       -1.232   3.372   0.398  0.00  0.00    -0.090 HD
ATOM     18  H   LIG    1        0.188   3.422   1.268  0.00  0.00    -0.090 HD
ATOM     19  H   LIG    1       -1.272   3.398   2.063  0.00  0.00    -0.090 HD
ENDBRANCH  14  16
ENDBRANCH  13  14
ENDBRANCH   9  13
TORSDOF 4
