REMARK  Name = ZINC13675373
REMARK                            x       y       z     vdW  Elec       q    Type
REMARK                         _______ _______ _______ _____ _____    ______ ____
ROOT
ATOM      1  C   LIG    1       -2.360  -4.168  -8.589  0.00  0.00    -0.027 C 
ATOM      2  C   LIG    1       -3.401  -4.899  -8.904  0.00  0.00    -0.027 C 
ENDROOT
BRANCH   1   3
ATOM      3  C   LIG    1       -1.495  -4.556  -7.418  0.00  0.00    +0.053 C 
BRANCH   3   5
ATOM      4  C   LIG    1        0.866  -3.965  -7.224  0.00  0.00    -0.027 C 
ATOM      5  C   LIG    1       -0.057  -4.640  -7.862  0.00  0.00    -0.027 C 
BRANCH   4   6
ATOM      6  C   LIG    1        0.522  -3.236  -5.951  0.00  0.00    +0.053 C 
BRANCH   6   8
ATOM      7  C   LIG    1        2.147  -2.719  -4.203  0.00  0.00    -0.031 C 
ATOM      8  C   LIG    1        1.488  -3.637  -4.865  0.00  0.00    -0.027 C 
BRANCH   7   9
ATOM      9  C   LIG    1        1.823  -1.262  -4.410  0.00  0.00    +0.027 C 
BRANCH   9  10
ATOM     10  C   LIG    1        1.563  -0.600  -3.055  0.00  0.00    +0.004 C 
BRANCH  10  11
ATOM     11  C   LIG    1        1.234   0.879  -3.264  0.00  0.00    +0.000 C 
BRANCH  11  13
ATOM     12  C   LIG    1        0.645   3.020  -2.118  0.00  0.00    +0.004 C 
ATOM     13  C   LIG    1        0.975   1.541  -1.909  0.00  0.00    -0.003 C 
ENDBRANCH  11  13
ENDBRANCH  10  11
ENDBRANCH   9  10
ENDBRANCH   7   9
ENDBRANCH   6   8
ENDBRANCH   4   6
ENDBRANCH   3   5
ENDBRANCH   1   3
BRANCH   2  14
ATOM     14  C   LIG    1       -3.836  -6.021  -7.997  0.00  0.00    +0.053 C 
BRANCH  14  15
ATOM     15  C   LIG    1       -5.296  -5.858  -7.662  0.00  0.00    -0.027 C 
ATOM     16  C   LIG    1       -6.130  -6.847  -7.868  0.00  0.00    -0.031 C 
BRANCH  16  17
ATOM     17  C   LIG    1       -5.609  -8.198  -8.285  0.00  0.00    +0.027 C 
BRANCH  17  18
ATOM     18  C   LIG    1       -6.167  -9.271  -7.348  0.00  0.00    +0.013 C 
BRANCH  18  19
ATOM     19  C   LIG    1       -5.637 -10.643  -7.771  0.00  0.00    +0.096 C 
BRANCH  19  20
ATOM     20  C   LIG    1       -6.187 -11.700  -6.849  0.00  0.00    +0.213 C 
ATOM     21  N   LIG    1       -5.854 -12.993  -7.031  0.00  0.00    -0.314 N 
ATOM     22  H   LIG    1       -5.260 -13.243  -7.757  0.00  0.00    +0.149 HD
ATOM     23  O   LIG    1       -6.929 -11.387  -5.942  0.00  0.00    -0.276 OA
BRANCH  21  24
ATOM     24  C   LIG    1       -6.388 -14.021  -6.135  0.00  0.00    +0.120 C 
BRANCH  24  25
ATOM     25  C   LIG    1       -5.859 -15.393  -6.558  0.00  0.00    +0.127 C 
ATOM     26 CL   LIG    1       -6.516 -16.657  -5.454  0.00  0.00    -0.124 Cl
ENDBRANCH  24  25
ENDBRANCH  21  24
ENDBRANCH  19  20
ENDBRANCH  18  19
ENDBRANCH  17  18
ENDBRANCH  16  17
ENDBRANCH  14  15
ENDBRANCH   2  14
TORSDOF 16
