REMARK  Name = ZINC13581538
REMARK                            x       y       z     vdW  Elec       q    Type
REMARK                         _______ _______ _______ _____ _____    ______ ____
ROOT
ATOM      1  C   LIG    1        3.636   2.166  -0.021  0.00  0.00    +0.086 C 
ATOM      2  C   LIG    1        2.337   1.401  -0.013  0.00  0.00    +0.107 A 
ATOM      3  N   LIG    1        1.175   2.105   0.002  0.00  0.00    -0.311 N 
ATOM      4  C   LIG    1       -0.018   1.466   0.010  0.00  0.00    +0.261 A 
ATOM      5  C   LIG    1        0.002  -0.004   0.002  0.00  0.00    +0.083 A 
ATOM      6  C   LIG    1        1.258  -0.650  -0.013  0.00  0.00    +0.080 A 
ATOM      7  C   LIG    1        1.310  -2.045  -0.022  0.00  0.00    +0.028 A 
ATOM      8  C   LIG    1        0.140  -2.772  -0.015  0.00  0.00    +0.004 A 
ATOM      9  C   LIG    1       -1.093  -2.135   0.000  0.00  0.00    +0.021 A 
ATOM     10  C   LIG    1       -1.171  -0.758   0.009  0.00  0.00    +0.055 A 
ATOM     11 CL   LIG    1       -2.717   0.031   0.027  0.00  0.00    -0.083 Cl
ATOM     12  O   LIG    1       -1.067   2.084   0.018  0.00  0.00    -0.267 OA
ATOM     13  H   LIG    1        1.200   3.075   0.007  0.00  0.00    +0.170 HD
ATOM     14  N   LIG    1        2.386   0.104  -0.020  0.00  0.00    -0.234 NA
ENDROOT
TORSDOF 0
