REMARK  Name = ZINC13641784
REMARK                            x       y       z     vdW  Elec       q    Type
REMARK                         _______ _______ _______ _____ _____    ______ ____
ROOT
ATOM      1  C   LIG    1       -0.074   0.981   2.485  0.00  0.00    -0.004 A 
ATOM      2  C   LIG    1       -0.586  -0.176   3.046  0.00  0.00    +0.054 A 
ATOM      3  C   LIG    1        0.013  -0.728   4.165  0.00  0.00    +0.134 A 
ATOM      4  C   LIG    1        1.134  -0.119   4.726  0.00  0.00    +0.053 A 
ATOM      5  C   LIG    1        1.646   1.041   4.161  0.00  0.00    +0.064 A 
ATOM      6  C   LIG    1        1.045   1.586   3.037  0.00  0.00    +0.124 A 
ENDROOT
BRANCH   3   7
ATOM      7  O   LIG    1       -0.491  -1.865   4.716  0.00  0.00    -0.494 OA
ATOM      8  C   LIG    1       -1.642  -2.435   4.089  0.00  0.00    +0.277 C 
ENDBRANCH   3   7
BRANCH   4   9
ATOM      9  S   LIG    1        1.899  -0.819   6.150  0.00  0.00    -0.125 S 
ATOM     10  C   LIG    1        3.283   0.301   6.501  0.00  0.00    +0.090 C 
ENDBRANCH   4   9
BRANCH   6  11
ATOM     11  O   LIG    1        1.549   2.719   2.479  0.00  0.00    -0.495 OA
ATOM     12  C   LIG    1        2.702   3.290   3.100  0.00  0.00    +0.277 C 
ENDBRANCH   6  11
BRANCH   1  13
ATOM     13  C   LIG    1       -0.729   1.579   1.267  0.00  0.00    +0.023 C 
BRANCH  13  15
ATOM     14  C   LIG    1       -0.753   1.593  -1.232  0.00  0.00    -0.013 C 
ATOM     15  C   LIG    1       -0.013   1.086   0.008  0.00  0.00    -0.071 C 
BRANCH  15  16
ATOM     16  N   LIG    1        1.369   1.603   0.003  0.00  0.00    +0.379 N 
ATOM     17  H   LIG    1        1.375   2.548  -0.399  0.00  0.00    -0.086 HD
ATOM     18  H   LIG    1        1.721   1.639   0.967  0.00  0.00    -0.086 HD
ATOM     19  C   LIG    1        2.241   0.727  -0.802  0.00  0.00    -0.100 C 
ENDBRANCH  15  16
ENDBRANCH  13  15
ENDBRANCH   1  13
TORSDOF 6
