REMARK  Name = ZINC13676543
REMARK                            x       y       z     vdW  Elec       q    Type
REMARK                         _______ _______ _______ _____ _____    ______ ____
ROOT
ATOM      1  C   LIG    1       -0.018   1.503   0.010  0.00  0.00    +0.162 C 
ENDROOT
BRANCH   1   2
ATOM      2  N   LIG    1       -0.727   1.988  -1.177  0.00  0.00    -0.270 N 
ATOM      3  H   LIG    1       -1.386   1.425  -1.612  0.00  0.00    +0.153 HD
ATOM      4  C   LIG    1       -0.462   3.216  -1.664  0.00  0.00    +0.401 C 
ATOM      5  O   LIG    1        0.364   3.921  -1.119  0.00  0.00    -0.226 OA
BRANCH   4   6
ATOM      6  O   LIG    1       -1.114   3.662  -2.755  0.00  0.00    -0.445 OA
BRANCH   6   7
ATOM      7  C   LIG    1       -0.778   4.995  -3.224  0.00  0.00    +0.107 C 
ATOM      8  C   LIG    1       -1.076   6.014  -2.122  0.00  0.00    +0.055 C 
ATOM      9  C   LIG    1       -1.613   5.325  -4.463  0.00  0.00    +0.055 C 
ATOM     10  C   LIG    1        0.709   5.050  -3.581  0.00  0.00    +0.055 C 
ENDBRANCH   6   7
ENDBRANCH   4   6
ENDBRANCH   1   2
BRANCH   1  11
ATOM     11  C   LIG    1        0.002  -0.004   0.002  0.00  0.00    +0.234 C 
ATOM     12  N   LIG    1        0.604  -0.675   1.004  0.00  0.00    -0.301 N 
ATOM     13  H   LIG    1        1.025  -0.189   1.730  0.00  0.00    +0.150 HD
ATOM     14  O   LIG    1       -0.523  -0.613  -0.906  0.00  0.00    -0.274 OA
BRANCH  12  15
ATOM     15  C   LIG    1        0.624  -2.140   0.996  0.00  0.00    +0.223 C 
BRANCH  15  16
ATOM     16  C   LIG    1        1.336  -2.628   2.188  0.00  0.00    +0.081 C 
ATOM     17  N   LIG    1        1.886  -3.004   3.108  0.00  0.00    -0.195 NA
ENDBRANCH  15  16
ENDBRANCH  12  15
ENDBRANCH   1  11
BRANCH   1  18
ATOM     18  C   LIG    1       -0.735   1.996   1.269  0.00  0.00    +0.035 C 
BRANCH  18  20
ATOM     19  C   LIG    1       -1.467   4.025   2.530  0.00  0.00    +0.007 C 
ATOM     20  C   LIG    1       -0.647   3.522   1.341  0.00  0.00    -0.015 C 
ATOM     21  C   LIG    1        0.814   3.941   1.516  0.00  0.00    +0.007 C 
ENDBRANCH  18  20
ENDBRANCH   1  18
TORSDOF 8
