REMARK  Name = ZINC13737043
REMARK                            x       y       z     vdW  Elec       q    Type
REMARK                         _______ _______ _______ _____ _____    ______ ____
ROOT
ATOM      1  C   LIG    1        3.493   3.568   0.363  0.00  0.00    -0.026 C 
ATOM      2  C   LIG    1        3.842   2.095   0.134  0.00  0.00    +0.030 C 
ATOM      3  C   LIG    1        2.578   1.275   0.092  0.00  0.00    +0.034 A 
ATOM      4  C   LIG    1        1.343   1.862  -0.121  0.00  0.00    +0.127 A 
ATOM      5  O   LIG    1        1.208   3.204  -0.286  0.00  0.00    -0.493 OA
ATOM      6  C   LIG    1        0.200   1.070  -0.164  0.00  0.00    +0.046 A 
ATOM      7  C   LIG    1        0.292  -0.296   0.008  0.00  0.00    +0.007 A 
ATOM      8  C   LIG    1        1.524  -0.884   0.225  0.00  0.00    +0.046 A 
ATOM      9  C   LIG    1        2.666  -0.101   0.268  0.00  0.00    +0.127 A 
ATOM     10  C   LIG    1        2.377   3.957  -0.615  0.00  0.00    +0.214 C 
ENDROOT
BRANCH   1  11
ATOM     11  N   LIG    1        4.685   4.399   0.090  0.00  0.00    +0.384 N 
ATOM     12  H   LIG    1        4.906   4.346  -0.911  0.00  0.00    -0.081 HD
BRANCH  11  13
ATOM     13  C   LIG    1        4.411   5.807   0.447  0.00  0.00    -0.079 C 
BRANCH  13  15
ATOM     14  C   LIG    1        5.289   8.141   0.292  0.00  0.00    +0.002 C 
ATOM     15  C   LIG    1        5.568   6.676  -0.050  0.00  0.00    -0.022 C 
ENDBRANCH  13  15
ENDBRANCH  11  13
BRANCH  11  16
ATOM     16  C   LIG    1        5.839   3.897   0.864  0.00  0.00    -0.079 C 
BRANCH  16  17
ATOM     17  C   LIG    1        5.508   3.857   2.357  0.00  0.00    -0.022 C 
ATOM     18  C   LIG    1        6.754   3.450   3.146  0.00  0.00    +0.002 C 
ENDBRANCH  16  17
ENDBRANCH  11  16
ENDBRANCH   1  11
BRANCH   9  19
ATOM     19  O   LIG    1        3.877  -0.679   0.481  0.00  0.00    -0.495 OA
ATOM     20  C   LIG    1        3.897  -2.098   0.653  0.00  0.00    +0.277 C 
ENDBRANCH   9  19
TORSDOF 6
