REMARK  Name = ZINC13657821
REMARK                            x       y       z     vdW  Elec       q    Type
REMARK                         _______ _______ _______ _____ _____    ______ ____
ROOT
ATOM      1  C   LIG    1       -0.017   1.377   0.010  0.00  0.00    +0.001 A 
ATOM      2  C   LIG    1        1.170   2.090   0.002  0.00  0.00    +0.004 A 
ATOM      3  C   LIG    1        2.385   1.432  -0.015  0.00  0.00    +0.046 A 
ATOM      4  C   LIG    1        2.421   0.048  -0.024  0.00  0.00    +0.130 A 
ATOM      5  C   LIG    1        1.219  -0.673  -0.012  0.00  0.00    +0.043 A 
ATOM      6  C   LIG    1        1.291  -2.154  -0.011  0.00  0.00    +0.085 A 
ATOM      7  C   LIG    1        2.518  -2.738   0.314  0.00  0.00    +0.025 A 
ATOM      8  C   LIG    1        3.689  -1.857   0.660  0.00  0.00    +0.267 C 
ATOM      9  C   LIG    1        2.634  -4.122   0.319  0.00  0.00    +0.013 A 
ATOM     10  C   LIG    1        1.489  -4.885  -0.004  0.00  0.00    +0.121 A 
ATOM     11  C   LIG    1        0.294  -4.218  -0.313  0.00  0.00    +0.231 A 
ATOM     12  N   LIG    1        0.235  -2.898  -0.306  0.00  0.00    -0.211 NA
ATOM     13  O   LIG    1        3.602  -0.619  -0.046  0.00  0.00    -0.487 OA
ATOM     14  C   LIG    1        0.002  -0.004   0.002  0.00  0.00    +0.013 A 
ENDROOT
BRANCH   9  15
ATOM     15  C   LIG    1        3.920  -4.779   0.653  0.00  0.00    -0.016 A 
ATOM     16  C   LIG    1        5.029  -4.607  -0.175  0.00  0.00    +0.010 A 
ATOM     17  C   LIG    1        6.223  -5.221   0.140  0.00  0.00    +0.020 A 
ATOM     18  C   LIG    1        6.323  -6.006   1.276  0.00  0.00    +0.041 A 
ATOM     19 CL   LIG    1        7.829  -6.775   1.667  0.00  0.00    -0.084 Cl
ATOM     20  C   LIG    1        5.225  -6.180   2.102  0.00  0.00    +0.020 A 
ATOM     21  C   LIG    1        4.027  -5.566   1.799  0.00  0.00    +0.010 A 
ENDBRANCH   9  15
BRANCH  10  22
ATOM     22  C   LIG    1        1.548  -6.316  -0.016  0.00  0.00    +0.105 C 
ATOM     23  N   LIG    1        1.594  -7.451  -0.025  0.00  0.00    -0.191 NA
ENDBRANCH  10  22
BRANCH  11  24
ATOM     24  O   LIG    1       -0.813  -4.936  -0.622  0.00  0.00    -0.491 OA
ATOM     25  H   LIG    1       -0.777  -5.872  -0.629  0.00  0.00    +0.294 HD
ENDBRANCH  11  24
TORSDOF 3
