REMARK  Name = ZINC13586781
REMARK                            x       y       z     vdW  Elec       q    Type
REMARK                         _______ _______ _______ _____ _____    ______ ____
ROOT
ATOM      1  C   LIG    1        2.251   1.452  -0.644  0.00  0.00    +0.017 A 
ATOM      2  C   LIG    1        2.314   0.089  -0.617  0.00  0.00    +0.029 A 
ATOM      3  C   LIG    1        1.186  -0.656  -0.293  0.00  0.00    +0.069 A 
ATOM      4  C   LIG    1       -0.027  -0.009   0.008  0.00  0.00    +0.090 A 
ATOM      5  N   LIG    1       -0.940  -0.975   0.281  0.00  0.00    -0.227 NA
ATOM      6  C   LIG    1       -0.378  -2.154   0.170  0.00  0.00    +0.145 A 
ATOM      7  C   LIG    1       -0.088   1.384  -0.021  0.00  0.00    +0.044 A 
ATOM      8  N   LIG    1        0.938  -2.009  -0.184  0.00  0.00    -0.320 N 
ATOM      9  C   LIG    1        1.052   2.114  -0.347  0.00  0.00    +0.061 A 
ENDROOT
BRANCH   8  10
ATOM     10  C   LIG    1        1.902  -3.089  -0.405  0.00  0.00    +0.089 C 
ATOM     11  C   LIG    1        3.017  -2.999   0.639  0.00  0.00    +0.025 C 
ATOM     12  C   LIG    1        4.024  -4.128   0.409  0.00  0.00    +0.002 C 
ATOM     13  C   LIG    1        4.625  -3.997  -0.992  0.00  0.00    +0.000 C 
ATOM     14  C   LIG    1        3.510  -4.087  -2.036  0.00  0.00    +0.002 C 
ATOM     15  C   LIG    1        2.503  -2.958  -1.805  0.00  0.00    +0.025 C 
ENDBRANCH   8  10
BRANCH   6  16
ATOM     16  C   LIG    1       -1.060  -3.445   0.393  0.00  0.00    +0.055 A 
ATOM     17  C   LIG    1       -2.485  -3.741   0.197  0.00  0.00    +0.052 A 
ATOM     18  C   LIG    1       -2.642  -5.035   0.518  0.00  0.00    +0.195 A 
ATOM     19  O   LIG    1       -1.458  -5.540   0.895  0.00  0.00    -0.470 OA
ATOM     20  C   LIG    1       -0.499  -4.607   0.828  0.00  0.00    +0.206 A 
ENDBRANCH   6  16
BRANCH   9  21
ATOM     21  C   LIG    1        0.997   3.588  -0.380  0.00  0.00    +0.337 C 
ATOM     22  O   LIG    1       -0.042   4.163  -0.123  0.00  0.00    -0.245 OA
BRANCH  21  23
ATOM     23  O   LIG    1        2.099   4.296  -0.696  0.00  0.00    -0.477 OA
ATOM     24  H   LIG    1        2.900   3.853  -0.894  0.00  0.00    +0.295 HD
ENDBRANCH  21  23
ENDBRANCH   9  21
TORSDOF 4
