REMARK  Name = ZINC13588711
REMARK                            x       y       z     vdW  Elec       q    Type
REMARK                         _______ _______ _______ _____ _____    ______ ____
ROOT
ATOM      1  C   LIG    1        1.420   2.098  -0.000  0.00  0.00    +0.198 C 
ATOM      2  C   LIG    1       -0.019   1.526   0.010  0.00  0.00    +0.121 C 
ATOM      3  C   LIG    1        0.002  -0.004   0.002  0.00  0.00    +0.034 C 
ATOM      4  N   LIG    1       -0.568   2.053  -1.254  0.00  0.00    -0.338 N 
ATOM      5  H   LIG    1       -1.600   2.127  -1.627  0.00  0.00    +0.164 HD
ATOM      6  C   LIG    1        0.418   2.477  -1.984  0.00  0.00    +0.254 C 
ATOM      7  O   LIG    1        1.627   2.318  -1.411  0.00  0.00    -0.462 OA
ENDROOT
BRANCH   6   8
ATOM      8  N   LIG    1        0.244   3.037  -3.225  0.00  0.00    -0.315 N 
ATOM      9  H   LIG    1       -0.767   3.143  -3.645  0.00  0.00    +0.147 HD
ATOM     10  H   LIG    1        1.117   3.381  -3.800  0.00  0.00    +0.147 HD
ENDBRANCH   6   8
BRANCH   1  12
ATOM     11  C   LIG    1        2.948   3.883   0.851  0.00  0.00    +0.007 C 
ATOM     12  C   LIG    1        1.493   3.414   0.778  0.00  0.00    +0.043 C 
ENDBRANCH   1  12
TORSDOF 2
