REMARK  Name = ZINC13676140
REMARK                            x       y       z     vdW  Elec       q    Type
REMARK                         _______ _______ _______ _____ _____    ______ ____
ROOT
ATOM      1  C   LIG    1       -0.044   1.090   2.346  0.00  0.00    +0.068 C 
ATOM      2  C   LIG    1        1.275   1.440   2.593  0.00  0.00    +0.035 C 
ATOM      3  C   LIG    1        1.897   1.031   3.756  0.00  0.00    +0.083 C 
ATOM      4  N   LIG    1        1.286   0.273   4.707  0.00  0.00    -0.304 NA
ATOM      5  H   LIG    1        1.769  -0.023   5.563  0.00  0.00    +0.123 HD
ATOM      6  C   LIG    1       -0.004  -0.067   4.451  0.00  0.00    +0.127 C 
ATOM      7  S   LIG    1       -1.151  -1.028   5.408  0.00  0.00    -0.099 S 
ATOM      8  C   LIG    1       -2.552  -0.950   4.326  0.00  0.00    +0.097 A 
ATOM      9  C   LIG    1       -3.853  -1.465   4.379  0.00  0.00    +0.285 A 
ATOM     10  N   LIG    1       -4.686  -1.200   3.344  0.00  0.00    -0.216 N 
ATOM     11  C   LIG    1       -4.234  -0.453   2.304  0.00  0.00    +0.222 A 
ATOM     12  N   LIG    1       -3.032   0.028   2.250  0.00  0.00    -0.239 NA
ATOM     13  O   LIG    1       -4.225  -2.133   5.329  0.00  0.00    -0.265 OA
ATOM     14  C   LIG    1       -2.121  -0.186   3.243  0.00  0.00    +0.069 A 
ATOM     15  C   LIG    1       -0.733   0.298   3.306  0.00  0.00    +0.084 C 
ENDROOT
BRANCH  10  16
ATOM     16  N   LIG    1       -5.965  -1.680   3.347  0.00  0.00    -0.267 N 
ATOM     17  C   LIG    1       -6.188  -2.599   2.208  0.00  0.00    +0.124 C 
ATOM     18  C   LIG    1       -7.641  -2.938   2.009  0.00  0.00    +0.020 C 
ATOM     19  C   LIG    1       -8.234  -1.959   0.975  0.00  0.00    +0.002 C 
ATOM     20  C   LIG    1       -8.536  -0.657   1.558  0.00  0.00    +0.002 C 
ATOM     21  C   LIG    1       -7.276   0.037   2.116  0.00  0.00    +0.020 C 
ATOM     22  C   LIG    1       -6.945  -0.576   3.450  0.00  0.00    +0.124 C 
ENDBRANCH  10  16
BRANCH   1  24
ATOM     23  C   LIG    1        0.022   0.993  -0.005  0.00  0.00    +0.104 C 
ATOM     24  N   LIG    1       -0.678   1.500   1.183  0.00  0.00    -0.305 NA
ATOM     25  C   LIG    1       -0.800   2.963   1.137  0.00  0.00    +0.104 C 
ENDBRANCH   1  24
TORSDOF 2
