REMARK  Name = ZINC13732756
REMARK                            x       y       z     vdW  Elec       q    Type
REMARK                         _______ _______ _______ _____ _____    ______ ____
ROOT
ATOM      1  C   LIG    1       -3.607   1.676   0.038  0.00  0.00    +0.280 C 
ATOM      2  C   LIG    1       -4.524   1.017  -0.956  0.00  0.00    +0.262 C 
ATOM      3  N   LIG    1       -5.747   1.485  -1.197  0.00  0.00    -0.271 N 
ATOM      4  C   LIG    1       -6.583   0.736  -2.138  0.00  0.00    +0.138 C 
ATOM      5  C   LIG    1       -6.290   2.627  -0.628  0.00  0.00    +0.045 A 
ATOM      6  C   LIG    1       -7.052   3.455  -1.455  0.00  0.00    +0.024 A 
ATOM      7  C   LIG    1       -7.625   4.606  -0.960  0.00  0.00    +0.002 A 
ATOM      8  C   LIG    1       -7.450   4.953   0.369  0.00  0.00    +0.001 A 
ATOM      9  C   LIG    1       -6.703   4.149   1.198  0.00  0.00    +0.012 A 
ATOM     10  C   LIG    1       -6.111   2.974   0.709  0.00  0.00    +0.022 A 
ATOM     11  C   LIG    1       -5.321   2.165   1.650  0.00  0.00    +0.077 C 
ATOM     12  O   LIG    1       -4.140   0.034  -1.553  0.00  0.00    -0.271 OA
ATOM     13  N   LIG    1       -4.207   1.589   1.369  0.00  0.00    -0.251 NA
ENDROOT
BRANCH   1  17
ATOM     14  N   LIG    1        0.021   1.081   0.033  0.00  0.00    -0.295 N 
ATOM     15  H   LIG    1        0.058   0.111   0.037  0.00  0.00    +0.151 HD
ATOM     16  C   LIG    1       -1.171   1.710   0.033  0.00  0.00    +0.302 C 
ATOM     17  N   LIG    1       -2.311   0.992   0.038  0.00  0.00    -0.270 N 
ATOM     18  H   LIG    1       -2.274   0.023   0.042  0.00  0.00    +0.153 HD
ATOM     19  O   LIG    1       -1.217   2.925   0.028  0.00  0.00    -0.253 OA
BRANCH  14  21
ATOM     20  C   LIG    1        1.317   2.748   1.267  0.00  0.00    +0.031 C 
ATOM     21  C   LIG    1        1.261   1.861   0.021  0.00  0.00    +0.028 C 
ATOM     22  C   LIG    1        1.301   2.738  -1.232  0.00  0.00    +0.031 C 
ATOM     23  C   LIG    1        2.461   0.911   0.017  0.00  0.00    +0.031 C 
ENDBRANCH  14  21
ENDBRANCH   1  17
BRANCH  11  24
ATOM     24  C   LIG    1       -5.848   2.005   3.026  0.00  0.00    +0.001 A 
ATOM     25  C   LIG    1       -4.982   1.698   4.075  0.00  0.00    +0.010 A 
ATOM     26  C   LIG    1       -5.477   1.556   5.355  0.00  0.00    +0.001 A 
ATOM     27  C   LIG    1       -6.831   1.707   5.597  0.00  0.00    +0.000 A 
ATOM     28  C   LIG    1       -7.695   2.006   4.559  0.00  0.00    +0.001 A 
ATOM     29  C   LIG    1       -7.211   2.156   3.276  0.00  0.00    +0.010 A 
ENDBRANCH  11  24
TORSDOF 3
