REMARK  Name = ZINC13585593
REMARK                            x       y       z     vdW  Elec       q    Type
REMARK                         _______ _______ _______ _____ _____    ______ ____
ROOT
ATOM      1  C   LIG    1       -0.860   6.024  -0.888  0.00  0.00    +0.129 A 
ATOM      2  C   LIG    1       -1.036   7.389  -0.721  0.00  0.00    +0.046 A 
ATOM      3  C   LIG    1       -0.265   8.079   0.195  0.00  0.00    +0.004 A 
ATOM      4  C   LIG    1        0.681   7.413   0.954  0.00  0.00    +0.001 A 
ATOM      5  C   LIG    1        0.863   6.053   0.802  0.00  0.00    +0.012 A 
ATOM      6  C   LIG    1        0.091   5.348  -0.119  0.00  0.00    +0.024 A 
ENDROOT
BRANCH   6   7
ATOM      7  C   LIG    1        0.283   3.886  -0.287  0.00  0.00    -0.012 A 
ATOM      8  C   LIG    1       -0.815   3.029  -0.254  0.00  0.00    +0.009 A 
ATOM      9  C   LIG    1       -0.632   1.671  -0.415  0.00  0.00    +0.003 A 
ATOM     10  C   LIG    1        0.641   1.159  -0.599  0.00  0.00    +0.032 A 
ATOM     11  C   LIG    1        1.734   2.005  -0.632  0.00  0.00    +0.122 A 
ATOM     12  C   LIG    1        1.561   3.366  -0.477  0.00  0.00    +0.041 A 
BRANCH  11  13
ATOM     13  N   LIG    1        3.091   1.451  -0.835  0.00  0.00    +0.006 N 
ATOM     14  O   LIG    1        3.245   0.251  -0.971  0.00  0.00    -0.130 OA
BRANCH  13  15
ATOM     15  O   LIG    1        4.055   2.196  -0.865  0.00  0.00    -0.396 OA
ATOM     16  H   LIG    1        3.937   3.119  -0.759  0.00  0.00    +0.329 HD
ENDBRANCH  13  15
ENDBRANCH  11  13
ENDBRANCH   6   7
BRANCH   1  17
ATOM     17  O   LIG    1       -1.614   5.345  -1.792  0.00  0.00    -0.477 OA
BRANCH  17  19
ATOM     18  C   LIG    1       -3.802   6.365  -1.889  0.00  0.00    +0.065 C 
ATOM     19  C   LIG    1       -2.483   6.118  -2.622  0.00  0.00    +0.280 C 
BRANCH  19  20
ATOM     20  C   LIG    1       -2.752   5.368  -3.901  0.00  0.00    +0.280 C 
ATOM     21  N   LIG    1       -3.867   4.772  -4.131  0.00  0.00    -0.273 N 
ATOM     22  H   LIG    1       -4.665   4.744  -3.486  0.00  0.00    +0.304 HD
ATOM     23  C   LIG    1       -3.830   4.136  -5.459  0.00  0.00    +0.276 C 
ATOM     24  C   LIG    1       -2.423   4.471  -5.993  0.00  0.00    +0.268 C 
ATOM     25  N   LIG    1       -1.833   5.264  -4.902  0.00  0.00    -0.234 N 
ATOM     26  H   LIG    1       -0.941   5.647  -4.896  0.00  0.00    +0.291 HD
ENDBRANCH  19  20
ENDBRANCH  17  19
ENDBRANCH   1  17
TORSDOF 6
