REMARK  Name = ZINC13675691
REMARK                            x       y       z     vdW  Elec       q    Type
REMARK                         _______ _______ _______ _____ _____    ______ ____
ROOT
ATOM      1  C   LIG    1        2.396   0.123  -0.015  0.00  0.00    +0.139 A 
ATOM      2  C   LIG    1        1.265  -0.636  -0.023  0.00  0.00    +0.098 A 
ATOM      3  C   LIG    1        0.002  -0.003  -0.006  0.00  0.00    +0.193 A 
ATOM      4  C   LIG    1       -0.018   1.473   0.019  0.00  0.00    +0.065 A 
ATOM      5  C   LIG    1       -1.218   2.181   0.042  0.00  0.00    +0.029 A 
ATOM      6  C   LIG    1       -1.194   3.559   0.059  0.00  0.00    +0.014 A 
ATOM      7  I   LIG    1       -2.993   4.633   0.086  0.00  0.00    -0.044 I 
ATOM      8  C   LIG    1        0.016   4.238   0.065  0.00  0.00    +0.018 A 
ATOM      9  C   LIG    1        1.210   3.548   0.048  0.00  0.00    +0.048 A 
ATOM     10  C   LIG    1        1.207   2.159   0.025  0.00  0.00    +0.139 A 
ATOM     11  O   LIG    1       -1.032  -0.651  -0.013  0.00  0.00    -0.287 OA
ATOM     12  O   LIG    1        2.364   1.465   0.007  0.00  0.00    -0.455 OA
ENDROOT
BRANCH   1  16
ATOM     13  C   LIG    1        6.166  -1.829  -0.065  0.00  0.00    +0.029 A 
ATOM     14  C   LIG    1        6.104  -0.438  -0.042  0.00  0.00    +0.024 A 
ATOM     15  C   LIG    1        4.884   0.198  -0.025  0.00  0.00    +0.013 A 
ATOM     16  C   LIG    1        3.705  -0.554  -0.033  0.00  0.00    +0.018 A 
ATOM     17  C   LIG    1        3.771  -1.951  -0.051  0.00  0.00    +0.013 A 
ATOM     18  C   LIG    1        4.995  -2.580  -0.072  0.00  0.00    +0.024 A 
BRANCH  13  20
ATOM     19  C   LIG    1        8.632  -1.682  -0.201  0.00  0.00    +0.129 C 
ATOM     20  N   LIG    1        7.402  -2.468  -0.081  0.00  0.00    -0.336 N 
ATOM     21  C   LIG    1        7.472  -3.928   0.021  0.00  0.00    +0.129 C 
ENDBRANCH  13  20
ENDBRANCH   1  16
TORSDOF 2
