REMARK  Name = ZINC13641823
REMARK                            x       y       z     vdW  Elec       q    Type
REMARK                         _______ _______ _______ _____ _____    ______ ____
ROOT
ATOM      1  C   LIG    1       -4.059   2.136   4.960  0.00  0.00    +0.015 A 
ATOM      2  C   LIG    1       -4.133   2.985   3.863  0.00  0.00    +0.060 A 
ATOM      3  C   LIG    1       -3.519   2.632   2.671  0.00  0.00    +0.128 A 
ATOM      4  C   LIG    1       -2.831   1.432   2.574  0.00  0.00    +0.034 A 
ATOM      5  C   LIG    1       -2.761   0.581   3.667  0.00  0.00    +0.128 A 
ATOM      6  C   LIG    1       -3.370   0.934   4.861  0.00  0.00    +0.060 A 
ENDROOT
BRANCH   3   7
ATOM      7  O   LIG    1       -3.591   3.463   1.598  0.00  0.00    -0.495 OA
ATOM      8  C   LIG    1       -4.316   4.683   1.769  0.00  0.00    +0.277 C 
ENDBRANCH   3   7
BRANCH   5   9
ATOM      9  O   LIG    1       -2.091  -0.597   3.568  0.00  0.00    -0.495 OA
ATOM     10  C   LIG    1       -2.059  -1.425   4.733  0.00  0.00    +0.277 C 
ENDBRANCH   5   9
BRANCH   1  11
ATOM     11  S   LIG    1       -4.839   2.583   6.475  0.00  0.00    -0.125 S 
BRANCH  11  13
ATOM     12  C   LIG    1       -5.102   1.456   8.954  0.00  0.00    +0.015 C 
ATOM     13  C   LIG    1       -4.474   1.194   7.583  0.00  0.00    +0.071 C 
ENDBRANCH  11  13
ENDBRANCH   1  11
BRANCH   4  14
ATOM     14  C   LIG    1       -2.164   1.050   1.278  0.00  0.00    +0.026 C 
BRANCH  14  15
ATOM     15  C   LIG    1       -0.729   1.579   1.267  0.00  0.00    -0.074 C 
ATOM     16  C   LIG    1       -0.013   1.086   0.008  0.00  0.00    -0.014 C 
BRANCH  15  17
ATOM     17  N   LIG    1       -0.761   3.052   1.253  0.00  0.00    +0.380 N 
ATOM     18  H   LIG    1       -1.232   3.372   0.398  0.00  0.00    -0.090 HD
ATOM     19  H   LIG    1        0.188   3.422   1.268  0.00  0.00    -0.090 HD
ATOM     20  H   LIG    1       -1.272   3.398   2.063  0.00  0.00    -0.090 HD
ENDBRANCH  15  17
ENDBRANCH  14  15
ENDBRANCH   4  14
TORSDOF 7
