REMARK  Name = ZINC13588118
REMARK                            x       y       z     vdW  Elec       q    Type
REMARK                         _______ _______ _______ _____ _____    ______ ____
ROOT
ATOM      1  C   LIG    1        6.132  -0.704  -0.059  0.00  0.00    +0.164 C 
ENDROOT
BRANCH   1   8
ATOM      2  C   LIG    1       11.400  -3.605   2.950  0.00  0.00    +0.162 A 
ATOM      3  C   LIG    1       11.130  -2.259   3.111  0.00  0.00    +0.053 A 
ATOM      4  C   LIG    1       10.293  -1.594   2.224  0.00  0.00    -0.038 A 
ATOM      5  C   LIG    1        9.733  -2.281   1.170  0.00  0.00    -0.023 A 
ATOM      6  C   LIG    1        8.839  -1.616   0.160  0.00  0.00    +0.143 C 
ATOM      7  N   LIG    1        8.470  -0.275   0.626  0.00  0.00    -0.295 N 
ATOM      8  C   LIG    1        7.202   0.174   0.536  0.00  0.00    +0.237 C 
ATOM      9  O   LIG    1        6.923   1.286   0.934  0.00  0.00    -0.274 OA
ATOM     10  C   LIG    1        9.539   0.558   1.202  0.00  0.00    +0.113 C 
ATOM     11  C   LIG    1        9.996  -3.635   1.007  0.00  0.00    +0.054 A 
ATOM     12  C   LIG    1       10.038  -0.130   2.471  0.00  0.00    +0.054 C 
ATOM     13  C   LIG    1       10.826  -4.301   1.890  0.00  0.00    +0.162 A 
BRANCH   2  15
ATOM     14  C   LIG    1       12.774  -3.467   4.886  0.00  0.00    +0.277 C 
ATOM     15  O   LIG    1       12.222  -4.247   3.823  0.00  0.00    -0.491 OA
ENDBRANCH   2  15
BRANCH  13  16
ATOM     16  O   LIG    1       11.079  -5.627   1.724  0.00  0.00    -0.491 OA
ATOM     17  C   LIG    1       10.455  -6.272   0.613  0.00  0.00    +0.277 C 
ENDBRANCH  13  16
ENDBRANCH   1   8
BRANCH   1  18
ATOM     18  N   LIG    1        4.852   0.008  -0.044  0.00  0.00    -0.300 N 
ATOM     19  H   LIG    1        4.836   0.978  -0.039  0.00  0.00    +0.150 HD
ATOM     20  C   LIG    1        3.696  -0.685  -0.036  0.00  0.00    +0.245 C 
ATOM     21  O   LIG    1        3.715  -1.900  -0.043  0.00  0.00    -0.270 OA
BRANCH  20  22
ATOM     22  C   LIG    1        2.403   0.034  -0.021  0.00  0.00    +0.037 A 
ATOM     23  C   LIG    1        1.204  -0.681  -0.013  0.00  0.00    +0.013 A 
ATOM     24  C   LIG    1        0.002  -0.004   0.002  0.00  0.00    +0.001 A 
ATOM     25  C   LIG    1       -0.017   1.379   0.010  0.00  0.00    +0.000 A 
ATOM     26  C   LIG    1        1.168   2.094   0.002  0.00  0.00    +0.001 A 
ATOM     27  C   LIG    1        2.377   1.429  -0.013  0.00  0.00    +0.013 A 
ENDBRANCH  20  22
ENDBRANCH   1  18
BRANCH   1  28
ATOM     28  C   LIG    1        6.503  -1.054  -1.502  0.00  0.00    +0.067 C 
BRANCH  28  29
ATOM     29  C   LIG    1        5.498  -2.030  -2.056  0.00  0.00    -0.045 A 
ATOM     30  C   LIG    1        5.707  -3.390  -1.922  0.00  0.00    +0.004 A 
ATOM     31  C   LIG    1        4.783  -4.285  -2.426  0.00  0.00    +0.000 A 
ATOM     32  C   LIG    1        3.653  -3.821  -3.074  0.00  0.00    +0.000 A 
ATOM     33  C   LIG    1        3.446  -2.461  -3.213  0.00  0.00    +0.000 A 
ATOM     34  C   LIG    1        4.368  -1.566  -2.704  0.00  0.00    +0.004 A 
ENDBRANCH  28  29
ENDBRANCH   1  28
TORSDOF 7
