REMARK  Name = ZINC13743789
REMARK                            x       y       z     vdW  Elec       q    Type
REMARK                         _______ _______ _______ _____ _____    ______ ____
ROOT
ATOM      1  O   LIG    1       -2.969  -0.484   0.140  0.00  0.00    -0.492 OA
ENDROOT
BRANCH   1   2
ATOM      2  C   LIG    1       -2.956   0.216  -1.025  0.00  0.00    +0.124 A 
ATOM      3  C   LIG    1       -3.731  -0.205  -2.097  0.00  0.00    +0.046 A 
ATOM      4  C   LIG    1       -3.716   0.509  -3.280  0.00  0.00    +0.004 A 
ATOM      5  C   LIG    1       -2.931   1.641  -3.396  0.00  0.00    +0.001 A 
ATOM      6  C   LIG    1       -2.163   2.065  -2.328  0.00  0.00    +0.007 A 
ATOM      7  C   LIG    1       -2.170   1.352  -1.144  0.00  0.00    -0.002 A 
BRANCH   7   8
ATOM      8  C   LIG    1       -1.328   1.812   0.018  0.00  0.00    +0.065 C 
BRANCH   8   9
ATOM      9  C   LIG    1       -0.013   1.076   0.008  0.00  0.00    -0.030 C 
ATOM     10  C   LIG    1        1.113   1.746   0.001  0.00  0.00    +0.004 C 
ENDBRANCH   8   9
ENDBRANCH   7   8
ENDBRANCH   1   2
BRANCH   1  11
ATOM     11  C   LIG    1       -3.802  -1.644   0.191  0.00  0.00    +0.227 C 
BRANCH  11  12
ATOM     12  C   LIG    1       -3.686  -2.296   1.570  0.00  0.00    +0.022 C 
BRANCH  12  13
ATOM     13  C   LIG    1       -4.579  -3.537   1.625  0.00  0.00    -0.079 C 
BRANCH  13  14
ATOM     14  N   LIG    1       -4.461  -4.159   2.957  0.00  0.00    +0.381 N 
ATOM     15  H   LIG    1       -4.758  -3.485   3.673  0.00  0.00    -0.086 HD
ATOM     16  H   LIG    1       -3.483  -4.425   3.122  0.00  0.00    -0.086 HD
BRANCH  14  18
ATOM     17  C   LIG    1       -4.552  -6.564   2.478  0.00  0.00    -0.014 C 
ATOM     18  C   LIG    1       -5.312  -5.361   3.038  0.00  0.00    -0.078 C 
ATOM     19  C   LIG    1       -5.674  -5.622   4.502  0.00  0.00    -0.014 C 
ENDBRANCH  14  18
ENDBRANCH  13  14
ENDBRANCH  12  13
ENDBRANCH  11  12
ENDBRANCH   1  11
TORSDOF 8
