REMARK  Name = ZINC13643576
REMARK                            x       y       z     vdW  Elec       q    Type
REMARK                         _______ _______ _______ _____ _____    ______ ____
ROOT
ATOM      1  C   LIG    1       -1.648   4.708   0.056  0.00  0.00    +0.149 C 
ATOM      2  N   LIG    1       -0.747   3.553   0.036  0.00  0.00    -0.350 N 
ATOM      3  C   LIG    1       -1.133   2.265   0.034  0.00  0.00    +0.093 A 
ATOM      4  C   LIG    1        0.002   1.469   0.018  0.00  0.00    -0.007 A 
ATOM      5  C   LIG    1        1.118   2.339   0.001  0.00  0.00    +0.035 A 
ATOM      6  C   LIG    1        0.630   3.615   0.013  0.00  0.00    +0.042 A 
ENDROOT
BRANCH   4   7
ATOM      7  C   LIG    1        0.040   0.002   0.013  0.00  0.00    +0.013 C 
ATOM      8  C   LIG    1        1.229  -0.645  -0.009  0.00  0.00    +0.052 C 
BRANCH   8   9
ATOM      9  C   LIG    1        1.265  -2.060  -0.014  0.00  0.00    +0.186 C 
ATOM     10  O   LIG    1        0.226  -2.695   0.002  0.00  0.00    -0.287 OA
BRANCH   9  11
ATOM     11  C   LIG    1        2.564  -2.767  -0.038  0.00  0.00    +0.024 A 
ATOM     12  C   LIG    1        2.603  -4.162  -0.043  0.00  0.00    +0.012 A 
ATOM     13  C   LIG    1        3.817  -4.817  -0.066  0.00  0.00    +0.003 A 
ATOM     14  C   LIG    1        4.996  -4.094  -0.086  0.00  0.00    +0.038 A 
ATOM     15  C   LIG    1        4.966  -2.708  -0.081  0.00  0.00    +0.124 A 
ATOM     16  F   LIG    1        6.122  -2.009  -0.100  0.00  0.00    -0.205 F 
ATOM     17  C   LIG    1        3.756  -2.041  -0.063  0.00  0.00    +0.050 A 
ENDBRANCH   9  11
ENDBRANCH   8   9
ENDBRANCH   4   7
BRANCH   6  18
ATOM     18  C   LIG    1        1.407   4.802   0.002  0.00  0.00    +0.031 C 
ATOM     19  C   LIG    1        2.758   4.728   0.088  0.00  0.00    +0.071 C 
BRANCH  19  20
ATOM     20  C   LIG    1        3.527   5.912   0.187  0.00  0.00    +0.259 C 
ATOM     21  N   LIG    1        4.870   5.839   0.272  0.00  0.00    -0.194 N 
ATOM     22  H   LIG    1        5.310   4.974   0.265  0.00  0.00    +0.183 HD
ATOM     23  O   LIG    1        2.975   6.998   0.196  0.00  0.00    -0.269 OA
BRANCH  21  24
ATOM     24  O   LIG    1        5.639   7.023   0.371  0.00  0.00    -0.295 OA
ATOM     25  H   LIG    1        6.592   6.870   0.427  0.00  0.00    +0.241 HD
ENDBRANCH  21  24
ENDBRANCH  19  20
ENDBRANCH   6  18
TORSDOF 6
