REMARK  Name = ZINC13680681
REMARK                            x       y       z     vdW  Elec       q    Type
REMARK                         _______ _______ _______ _____ _____    ______ ____
ROOT
ATOM      1  C   LIG    1        2.571  -2.534   4.284  0.00  0.00    +0.028 C 
ATOM      2  C   LIG    1        2.543  -3.888   4.389  0.00  0.00    +0.078 C 
ATOM      3  C   LIG    1        3.049  -4.759   5.468  0.00  0.00    +0.273 C 
ATOM      4  N   LIG    1        2.885  -6.061   5.305  0.00  0.00    -0.167 N 
ATOM      5  C   LIG    1        2.284  -6.563   4.207  0.00  0.00    +0.137 C 
ATOM      6  S   LIG    1        1.980  -8.202   3.817  0.00  0.00    -0.026 S 
ATOM      7  O   LIG    1        3.591  -4.302   6.458  0.00  0.00    -0.268 OA
ATOM      8  S   LIG    1        1.875  -5.104   3.262  0.00  0.00    -0.060 S 
ENDROOT
BRANCH   1  12
ATOM      9  C   LIG    1        0.478  -0.607   1.140  0.00  0.00    +0.120 A 
ATOM     10  C   LIG    1        0.307  -1.970   1.352  0.00  0.00    +0.046 A 
ATOM     11  C   LIG    1        0.984  -2.601   2.371  0.00  0.00    +0.011 A 
ATOM     12  C   LIG    1        1.847  -1.867   3.195  0.00  0.00    -0.024 A 
ATOM     13  C   LIG    1        2.015  -0.494   2.977  0.00  0.00    +0.011 A 
ATOM     14  C   LIG    1        1.337   0.126   1.952  0.00  0.00    +0.046 A 
BRANCH   9  16
ATOM     15  C   LIG    1       -1.059  -0.801  -0.662  0.00  0.00    +0.277 C 
ATOM     16  O   LIG    1       -0.193   0.010   0.134  0.00  0.00    -0.495 OA
ENDBRANCH   9  16
ENDBRANCH   1  12
BRANCH   4  17
ATOM     17  N   LIG    1        3.345  -6.939   6.295  0.00  0.00    -0.100 NA
ATOM     18  H   LIG    1        2.870  -6.681   7.160  0.00  0.00    +0.172 HD
BRANCH  17  19
ATOM     19  S   LIG    1        3.148  -8.572   6.110  0.00  0.00    +0.074 S 
ATOM     20  O   LIG    1        3.957  -8.956   5.006  0.00  0.00    -0.152 OA
ATOM     21  O   LIG    1        1.750  -8.820   6.152  0.00  0.00    -0.152 OA
BRANCH  19  22
ATOM     22  C   LIG    1        3.841  -9.345   7.534  0.00  0.00    +0.107 A 
ATOM     23  C   LIG    1        5.174  -9.708   7.544  0.00  0.00    +0.028 A 
ATOM     24  C   LIG    1        5.717 -10.315   8.661  0.00  0.00    +0.002 A 
ATOM     25  C   LIG    1        4.927 -10.557   9.769  0.00  0.00    +0.000 A 
ATOM     26  C   LIG    1        3.593 -10.193   9.759  0.00  0.00    +0.002 A 
ATOM     27  C   LIG    1        3.051  -9.583   8.643  0.00  0.00    +0.028 A 
ENDBRANCH  19  22
ENDBRANCH  17  19
ENDBRANCH   4  17
TORSDOF 5
