REMARK  Name = ZINC13736993
REMARK                            x       y       z     vdW  Elec       q    Type
REMARK                         _______ _______ _______ _____ _____    ______ ____
ROOT
ATOM      1  C   LIG    1       -7.212   5.348  -0.531  0.00  0.00    +0.162 A 
ATOM      2  C   LIG    1       -5.996   6.007  -0.657  0.00  0.00    +0.050 A 
ATOM      3  C   LIG    1       -4.830   5.287  -0.795  0.00  0.00    +0.017 A 
ATOM      4  C   LIG    1       -4.869   3.891  -0.819  0.00  0.00    +0.041 A 
ATOM      5  C   LIG    1       -6.092   3.227  -0.692  0.00  0.00    +0.062 A 
ATOM      6  C   LIG    1       -7.258   3.955  -0.548  0.00  0.00    +0.163 A 
ENDROOT
BRANCH   4   7
ATOM      7  C   LIG    1       -3.621   3.119  -0.972  0.00  0.00    +0.248 C 
ATOM      8  N   LIG    1       -2.442   3.760  -1.095  0.00  0.00    -0.280 N 
ATOM      9  H   LIG    1       -2.403   4.725  -1.003  0.00  0.00    +0.155 HD
ATOM     10  O   LIG    1       -3.656   1.903  -0.988  0.00  0.00    -0.270 OA
BRANCH   8  11
ATOM     11  C   LIG    1       -1.278   3.037  -1.354  0.00  0.00    +0.055 A 
ATOM     12  C   LIG    1       -1.340   1.731  -1.838  0.00  0.00    +0.044 A 
ATOM     13  C   LIG    1       -0.166   1.047  -2.076  0.00  0.00    +0.112 A 
ATOM     14  N   LIG    1        1.005   1.618  -1.863  0.00  0.00    -0.262 NA
ATOM     15  C   LIG    1        1.107   2.853  -1.411  0.00  0.00    +0.132 A 
ATOM     16  C   LIG    1       -0.021   3.603  -1.141  0.00  0.00    +0.080 A 
ATOM     17 CL   LIG    1        0.123   5.227  -0.546  0.00  0.00    -0.080 Cl
ENDBRANCH   8  11
ENDBRANCH   4   7
BRANCH   1  19
ATOM     18  C   LIG    1       -8.239   7.486  -0.381  0.00  0.00    +0.277 C 
ATOM     19  O   LIG    1       -8.358   6.062  -0.391  0.00  0.00    -0.491 OA
ENDBRANCH   1  19
BRANCH   6  20
ATOM     20  O   LIG    1       -8.450   3.312  -0.424  0.00  0.00    -0.485 OA
BRANCH  20  21
ATOM     21  C   LIG    1       -8.411   1.888  -0.315  0.00  0.00    +0.174 C 
ATOM     22  C   LIG    1       -8.402   1.251  -1.720  0.00  0.00    +0.044 C 
ATOM     23  C   LIG    1       -9.274  -0.021  -1.565  0.00  0.00    +0.004 C 
ATOM     24  C   LIG    1      -10.398   0.449  -0.608  0.00  0.00    +0.004 C 
ATOM     25  C   LIG    1       -9.678   1.378   0.392  0.00  0.00    +0.044 C 
ENDBRANCH  20  21
ENDBRANCH   6  20
TORSDOF 5
