REMARK  Name = ZINC13613346
REMARK                            x       y       z     vdW  Elec       q    Type
REMARK                         _______ _______ _______ _____ _____    ______ ____
ROOT
ATOM      1  C   LIG    1       -4.857   0.851   3.809  0.00  0.00    +0.076 C 
ATOM      2  C   LIG    1       -6.153   0.038   3.792  0.00  0.00    +0.022 C 
ATOM      3  C   LIG    1       -7.013   0.474   2.605  0.00  0.00    +0.002 C 
ATOM      4  C   LIG    1       -6.245   0.237   1.303  0.00  0.00    +0.000 C 
ATOM      5  C   LIG    1       -4.949   1.050   1.320  0.00  0.00    +0.003 C 
ATOM      6  C   LIG    1       -4.088   0.613   2.508  0.00  0.00    -0.007 C 
ENDROOT
BRANCH   1  10
ATOM      7  N   LIG    1       -3.480   0.591   7.209  0.00  0.00    -0.248 N 
ATOM      8  H   LIG    1       -2.787  -0.076   7.086  0.00  0.00    +0.158 HD
ATOM      9  C   LIG    1       -4.238   0.976   6.163  0.00  0.00    +0.306 C 
ATOM     10  N   LIG    1       -4.033   0.433   4.946  0.00  0.00    -0.296 N 
ATOM     11  H   LIG    1       -3.340  -0.235   4.824  0.00  0.00    +0.151 HD
ATOM     12  O   LIG    1       -5.106   1.813   6.316  0.00  0.00    -0.252 OA
BRANCH   7  17
ATOM     13  C   LIG    1       -5.673   3.535  10.442  0.00  0.00    +0.067 C 
ATOM     14  C   LIG    1       -4.658   2.494  10.045  0.00  0.00    +0.058 A 
ATOM     15  C   LIG    1       -3.772   1.959  10.977  0.00  0.00    +0.078 A 
ATOM     16  S   LIG    1       -2.861   0.819   9.945  0.00  0.00    -0.049 S 
ATOM     17  C   LIG    1       -3.690   1.148   8.456  0.00  0.00    +0.166 A 
ATOM     18  N   LIG    1       -4.579   2.063   8.816  0.00  0.00    -0.229 NA
BRANCH  15  19
ATOM     19  C   LIG    1       -3.635   2.235  12.352  0.00  0.00    +0.168 C 
ATOM     20  C   LIG    1       -2.587   1.518  13.164  0.00  0.00    +0.092 C 
ATOM     21  O   LIG    1       -4.362   3.051  12.883  0.00  0.00    -0.292 OA
ENDBRANCH  15  19
ENDBRANCH   7  17
ENDBRANCH   1  10
BRANCH   6  22
ATOM     22  C   LIG    1       -2.793   1.427   2.525  0.00  0.00    -0.074 C 
BRANCH  22  23
ATOM     23  N   LIG    1       -1.921   0.906   3.598  0.00  0.00    +0.380 N 
ATOM     24  H   LIG    1       -2.482   0.772   4.448  0.00  0.00    -0.082 HD
ATOM     25  C   LIG    1       -0.840   1.873   3.885  0.00  0.00    -0.075 C 
ATOM     26  C   LIG    1       -0.024   1.367   5.077  0.00  0.00    -0.023 C 
ATOM     27  C   LIG    1        0.582   0.004   4.733  0.00  0.00    +0.000 C 
ATOM     28  C   LIG    1       -0.544  -0.968   4.366  0.00  0.00    -0.018 C 
ATOM     29  C   LIG    1       -1.345  -0.394   3.195  0.00  0.00    -0.079 C 
BRANCH  26  30
ATOM     30  C   LIG    1        1.097   2.361   5.387  0.00  0.00    +0.037 C 
BRANCH  30  31
ATOM     31  C   LIG    1        1.824   1.925   6.633  0.00  0.00    -0.047 A 
ATOM     32  C   LIG    1        1.405   2.375   7.870  0.00  0.00    +0.006 A 
ATOM     33  C   LIG    1        2.068   1.972   9.014  0.00  0.00    +0.038 A 
ATOM     34  C   LIG    1        3.160   1.126   8.918  0.00  0.00    +0.123 A 
ATOM     35  F   LIG    1        3.812   0.735  10.035  0.00  0.00    -0.205 F 
ATOM     36  C   LIG    1        3.583   0.681   7.678  0.00  0.00    +0.038 A 
ATOM     37  C   LIG    1        2.914   1.081   6.536  0.00  0.00    +0.006 A 
ENDBRANCH  30  31
ENDBRANCH  26  30
ENDBRANCH  22  23
ENDBRANCH   6  22
TORSDOF 7
