REMARK  Name = ZINC13703893
REMARK                            x       y       z     vdW  Elec       q    Type
REMARK                         _______ _______ _______ _____ _____    ______ ____
ROOT
ATOM      1  C   LIG    1        2.381   1.354  -0.013  0.00  0.00    +0.043 A 
ATOM      2  C   LIG    1        1.168   2.039   0.002  0.00  0.00    +0.049 A 
ATOM      3  C   LIG    1       -0.016   1.314   0.009  0.00  0.00    +0.135 A 
ATOM      4  N   LIG    1        0.002  -0.004   0.002  0.00  0.00    -0.241 NA
ATOM      5  C   LIG    1        1.133  -0.684  -0.013  0.00  0.00    +0.143 A 
ATOM      6 CL   LIG    1        1.089  -2.419  -0.021  0.00  0.00    -0.061 Cl
ATOM      7  C   LIG    1        2.354  -0.031  -0.021  0.00  0.00    +0.056 A 
ATOM      8 BR   LIG    1        3.967  -1.019  -0.041  0.00  0.00    -0.047 Br
ENDROOT
BRANCH   2   9
ATOM      9  N   LIG    1        1.144   3.437   0.010  0.00  0.00    -0.332 N 
ATOM     10  C   LIG    1        1.887   3.983  -1.135  0.00  0.00    +0.086 C 
ATOM     11  C   LIG    1        1.904   5.511  -1.046  0.00  0.00    -0.063 C 
ATOM     12  N   LIG    1        0.519   6.019  -1.037  0.00  0.00    +0.381 N 
ATOM     13  H   LIG    1        0.535   7.044  -0.970  0.00  0.00    -0.086 HD
ATOM     14  H   LIG    1        0.050   5.741  -1.907  0.00  0.00    -0.086 HD
ATOM     15  C   LIG    1       -0.220   5.467   0.114  0.00  0.00    -0.063 C 
ATOM     16  C   LIG    1       -0.237   3.939   0.026  0.00  0.00    +0.086 C 
ENDBRANCH   2   9
TORSDOF 1
