REMARK  Name = ZINC13687055
REMARK                            x       y       z     vdW  Elec       q    Type
REMARK                         _______ _______ _______ _____ _____    ______ ____
ROOT
ATOM      1  C   LIG    1        4.788   1.455   0.068  0.00  0.00    +0.137 A 
ATOM      2  C   LIG    1        6.001   2.162   0.172  0.00  0.00    +0.078 A 
ATOM      3  C   LIG    1        6.354   3.529   0.215  0.00  0.00    +0.147 A 
ATOM      4  N   LIG    1        7.649   3.618   0.319  0.00  0.00    -0.180 NA
ATOM      5  N   LIG    1        8.209   2.334   0.350  0.00  0.00    -0.260 N 
ATOM      6  H   LIG    1        9.154   2.128   0.424  0.00  0.00    +0.191 HD
ATOM      7  C   LIG    1        7.198   1.425   0.260  0.00  0.00    +0.161 A 
ATOM      8  N   LIG    1        7.135   0.094   0.241  0.00  0.00    -0.216 NA
ATOM      9  C   LIG    1        5.978  -0.522   0.143  0.00  0.00    +0.225 A 
ATOM     10  N   LIG    1        4.829   0.127   0.063  0.00  0.00    -0.220 NA
ENDROOT
BRANCH   1  11
ATOM     11  N   LIG    1        3.583   2.126  -0.021  0.00  0.00    -0.299 N 
ATOM     12  H   LIG    1        3.557   3.091   0.072  0.00  0.00    +0.154 HD
BRANCH  11  15
ATOM     13  C   LIG    1        0.047   1.128   0.116  0.00  0.00    +0.005 A 
ATOM     14  C   LIG    1        1.214   1.833   0.340  0.00  0.00    +0.023 A 
ATOM     15  C   LIG    1        2.401   1.414  -0.246  0.00  0.00    +0.035 A 
ATOM     16  C   LIG    1        2.412   0.286  -1.057  0.00  0.00    +0.061 A 
ATOM     17  C   LIG    1        1.241  -0.415  -1.278  0.00  0.00    +0.125 A 
ATOM     18  F   LIG    1        1.250  -1.512  -2.067  0.00  0.00    -0.205 F 
ATOM     19  C   LIG    1        0.059   0.006  -0.691  0.00  0.00    +0.038 A 
ENDBRANCH  11  15
ENDBRANCH   1  11
TORSDOF 2
