REMARK  Name = ZINC13603629
REMARK                            x       y       z     vdW  Elec       q    Type
REMARK                         _______ _______ _______ _____ _____    ______ ____
ROOT
ATOM      1  C   LIG    1       -0.069  -2.723   1.938  0.00  0.00    +0.054 A 
ATOM      2  C   LIG    1        0.846  -2.016   1.180  0.00  0.00    -0.004 A 
ATOM      3  C   LIG    1        1.779  -2.692   0.407  0.00  0.00    +0.122 A 
ATOM      4  C   LIG    1        1.804  -4.078   0.402  0.00  0.00    +0.072 A 
ATOM      5  C   LIG    1        0.887  -4.789   1.162  0.00  0.00    +0.070 A 
ATOM      6  C   LIG    1       -0.053  -4.107   1.933  0.00  0.00    +0.138 A 
ENDROOT
BRANCH   5   7
ATOM      7  N   LIG    1        0.906  -6.188   1.155  0.00  0.00    -0.355 N 
ATOM      8  H   LIG    1        1.560  -6.662   0.618  0.00  0.00    +0.142 HD
ATOM      9  H   LIG    1        0.264  -6.685   1.687  0.00  0.00    +0.142 HD
ENDBRANCH   5   7
BRANCH   3  10
ATOM     10  O   LIG    1        2.674  -1.994  -0.342  0.00  0.00    -0.506 OA
ATOM     11  H   LIG    1        3.498  -1.788   0.121  0.00  0.00    +0.292 HD
ENDBRANCH   3  10
BRANCH   6  12
ATOM     12  O   LIG    1       -0.954  -4.802   2.680  0.00  0.00    -0.505 OA
ATOM     13  H   LIG    1       -1.776  -5.007   2.214  0.00  0.00    +0.292 HD
ENDBRANCH   6  12
BRANCH   2  14
ATOM     14  C   LIG    1        0.826  -0.509   1.188  0.00  0.00    +0.019 C 
BRANCH  14  15
ATOM     15  C   LIG    1        0.002  -0.004   0.002  0.00  0.00    -0.082 C 
BRANCH  15  16
ATOM     16  N   LIG    1       -0.029   1.469   0.032  0.00  0.00    +0.378 N 
ATOM     17  H   LIG    1       -0.484   1.779   0.899  0.00  0.00    -0.090 HD
ATOM     18  H   LIG    1       -0.556   1.823  -0.764  0.00  0.00    -0.090 HD
ATOM     19  H   LIG    1        0.919   1.839   0.003  0.00  0.00    -0.090 HD
ENDBRANCH  15  16
ENDBRANCH  14  15
ENDBRANCH   2  14
TORSDOF 6
