REMARK  Name = ZINC13683103
REMARK                            x       y       z     vdW  Elec       q    Type
REMARK                         _______ _______ _______ _____ _____    ______ ____
ROOT
ATOM      1  C   LIG    1        5.692   7.803   0.720  0.00  0.00    +0.198 C 
ATOM      2  O   LIG    1        6.600   7.107   1.136  0.00  0.00    -0.286 OA
ENDROOT
BRANCH   1   5
ATOM      3  C   LIG    1        1.948   7.813   1.034  0.00  0.00    +0.004 A 
ATOM      4  C   LIG    1        3.252   8.254   0.939  0.00  0.00    +0.012 A 
ATOM      5  C   LIG    1        4.294   7.333   0.823  0.00  0.00    +0.026 A 
ATOM      6  C   LIG    1        4.011   5.966   0.803  0.00  0.00    +0.057 A 
ATOM      7  C   LIG    1        2.699   5.534   0.899  0.00  0.00    +0.121 A 
ATOM      8  C   LIG    1        1.669   6.459   1.009  0.00  0.00    +0.046 A 
BRANCH   7   9
ATOM      9  O   LIG    1        2.419   4.204   0.880  0.00  0.00    -0.489 OA
BRANCH   9  10
ATOM     10  C   LIG    1        1.044   3.829   0.983  0.00  0.00    +0.262 C 
BRANCH  10  11
ATOM     11  C   LIG    1        0.927   2.304   0.945  0.00  0.00    +0.177 C 
BRANCH  11  12
ATOM     12  O   LIG    1        1.354   1.826  -0.332  0.00  0.00    -0.386 OA
ATOM     13  H   LIG    1        0.839   2.171  -1.074  0.00  0.00    +0.210 HD
ENDBRANCH  11  12
BRANCH  11  14
ATOM     14  C   LIG    1       -0.529   1.898   1.180  0.00  0.00    +0.190 C 
BRANCH  14  15
ATOM     15  O   LIG    1       -0.620   0.475   1.260  0.00  0.00    -0.392 OA
ATOM     16  H   LIG    1       -1.517   0.145   1.408  0.00  0.00    +0.210 HD
ENDBRANCH  14  15
ENDBRANCH  11  14
ENDBRANCH  10  11
ENDBRANCH   9  10
ENDBRANCH   7   9
ENDBRANCH   1   5
BRANCH   1  17
ATOM     17  C   LIG    1        5.986   9.106   0.117  0.00  0.00    +0.081 A 
ATOM     18  C   LIG    1        5.060   9.967  -0.522  0.00  0.00    +0.148 A 
ATOM     19  N   LIG    1        5.700  11.029  -0.922  0.00  0.00    -0.172 NA
ATOM     20  N   LIG    1        7.051  10.911  -0.579  0.00  0.00    -0.218 N 
ATOM     21  C   LIG    1        7.231   9.734   0.058  0.00  0.00    +0.131 A 
BRANCH  20  22
ATOM     22  C   LIG    1        8.050  11.856  -0.852  0.00  0.00    +0.068 A 
ATOM     23  C   LIG    1        9.083  12.057   0.054  0.00  0.00    +0.030 A 
ATOM     24  C   LIG    1       10.069  12.985  -0.218  0.00  0.00    +0.040 A 
ATOM     25  C   LIG    1       10.023  13.722  -1.390  0.00  0.00    +0.124 A 
ATOM     26  F   LIG    1       10.986  14.633  -1.652  0.00  0.00    -0.205 F 
ATOM     27  C   LIG    1        8.991  13.527  -2.292  0.00  0.00    +0.040 A 
ATOM     28  C   LIG    1        8.005  12.597  -2.026  0.00  0.00    +0.030 A 
ENDBRANCH  20  22
BRANCH  21  29
ATOM     29  N   LIG    1        8.419   9.245   0.557  0.00  0.00    -0.342 N 
ATOM     30  H   LIG    1        9.234   9.763   0.464  0.00  0.00    +0.144 HD
ATOM     31  H   LIG    1        8.441   8.382   1.001  0.00  0.00    +0.144 HD
ENDBRANCH  21  29
ENDBRANCH   1  17
TORSDOF 10
