REMARK  Name = ZINC13686352
REMARK                            x       y       z     vdW  Elec       q    Type
REMARK                         _______ _______ _______ _____ _____    ______ ____
ROOT
ATOM      1  C   LIG    1       -0.016   1.344   0.004  0.00  0.00    +0.136 A 
ATOM      2  C   LIG    1        1.252   1.821  -0.019  0.00  0.00    +0.058 A 
ATOM      3  C   LIG    1        2.127   0.646  -0.029  0.00  0.00    +0.024 A 
ATOM      4  C   LIG    1        3.512   0.466  -0.053  0.00  0.00    +0.057 A 
ATOM      5  C   LIG    1        4.032  -0.814  -0.057  0.00  0.00    +0.121 A 
ATOM      6  C   LIG    1        3.181  -1.915  -0.037  0.00  0.00    +0.049 A 
ATOM      7  C   LIG    1        1.813  -1.746  -0.014  0.00  0.00    +0.050 A 
ATOM      8  C   LIG    1        1.270  -0.468  -0.010  0.00  0.00    +0.136 A 
ATOM      9  O   LIG    1        0.003  -0.004   0.010  0.00  0.00    -0.455 OA
ENDROOT
BRANCH   1  13
ATOM     10  C   LIG    1       -3.526   3.738   0.040  0.00  0.00    +0.029 A 
ATOM     11  C   LIG    1       -3.632   2.352   0.047  0.00  0.00    +0.024 A 
ATOM     12  C   LIG    1       -2.495   1.572   0.035  0.00  0.00    +0.013 A 
ATOM     13  C   LIG    1       -1.236   2.176   0.016  0.00  0.00    +0.017 A 
ATOM     14  C   LIG    1       -1.133   3.569   0.014  0.00  0.00    +0.013 A 
ATOM     15  C   LIG    1       -2.274   4.343   0.021  0.00  0.00    +0.024 A 
BRANCH  10  17
ATOM     16  C   LIG    1       -5.997   3.894  -0.055  0.00  0.00    +0.129 C 
ATOM     17  N   LIG    1       -4.678   4.524   0.052  0.00  0.00    -0.336 N 
ATOM     18  C   LIG    1       -4.571   5.981   0.171  0.00  0.00    +0.129 C 
ENDBRANCH  10  17
ENDBRANCH   1  13
BRANCH   5  19
ATOM     19  O   LIG    1        5.379  -0.998  -0.080  0.00  0.00    -0.495 OA
ATOM     20  C   LIG    1        5.849  -2.347  -0.083  0.00  0.00    +0.277 C 
ENDBRANCH   5  19
TORSDOF 3
