REMARK  Name = ZINC13613025
REMARK                            x       y       z     vdW  Elec       q    Type
REMARK                         _______ _______ _______ _____ _____    ______ ____
ROOT
ATOM      1  C   LIG    1        2.306   4.130  -0.906  0.00  0.00    +0.014 A 
ATOM      2  C   LIG    1        1.135   3.503  -0.602  0.00  0.00    +0.019 A 
ATOM      3  C   LIG    1        1.113   2.092  -0.601  0.00  0.00    +0.002 A 
ATOM      4  C   LIG    1       -0.058   1.387  -0.298  0.00  0.00    +0.021 A 
ATOM      5  C   LIG    1       -0.039  -0.003  -0.307  0.00  0.00    +0.018 A 
ATOM      6  C   LIG    1        1.147  -0.696  -0.618  0.00  0.00    +0.013 A 
ATOM      7  C   LIG    1        2.288  -0.025  -0.913  0.00  0.00    +0.029 A 
ATOM      8  C   LIG    1        2.301   1.383  -0.913  0.00  0.00    +0.075 A 
ATOM      9  N   LIG    1        3.419   2.056  -1.202  0.00  0.00    -0.213 NA
ATOM     10  C   LIG    1        3.445   3.372  -1.205  0.00  0.00    +0.218 A 
ENDROOT
BRANCH   1  12
ATOM     11  C   LIG    1        3.000   6.129   0.387  0.00  0.00    +0.009 C 
ATOM     12  C   LIG    1        2.375   5.635  -0.919  0.00  0.00    +0.037 C 
ENDBRANCH   1  12
BRANCH   5  13
ATOM     13  C   LIG    1       -1.263  -0.753   0.010  0.00  0.00    +0.166 C 
ATOM     14  O   LIG    1       -2.285  -0.159   0.278  0.00  0.00    -0.292 OA
BRANCH  13  15
ATOM     15  C   LIG    1       -1.246  -2.260   0.002  0.00  0.00    +0.060 C 
ATOM     16  C   LIG    1       -1.254  -2.762  -1.443  0.00  0.00    +0.014 C 
ATOM     17  C   LIG    1       -2.516  -2.262  -2.150  0.00  0.00    +0.032 C 
ATOM     18  C   LIG    1       -3.753  -2.789  -1.420  0.00  0.00    +0.118 C 
ATOM     19  C   LIG    1       -3.744  -2.287   0.026  0.00  0.00    +0.032 C 
ATOM     20  C   LIG    1       -2.483  -2.787   0.732  0.00  0.00    +0.014 C 
BRANCH  18  21
ATOM     21  O   LIG    1       -4.931  -2.322  -2.079  0.00  0.00    -0.380 OA
ATOM     22  C   LIG    1       -5.406  -3.194  -3.107  0.00  0.00    +0.194 C 
ENDBRANCH  18  21
ENDBRANCH  13  15
ENDBRANCH   5  13
BRANCH  10  23
ATOM     23  O   LIG    1        4.603   4.010  -1.505  0.00  0.00    -0.479 OA
ATOM     24  C   LIG    1        5.736   3.191  -1.803  0.00  0.00    +0.279 C 
ENDBRANCH  10  23
TORSDOF 5
