REMARK  Name = ZINC13610039
REMARK                            x       y       z     vdW  Elec       q    Type
REMARK                         _______ _______ _______ _____ _____    ______ ____
ROOT
ATOM      1  C   LIG    1       -6.385   5.050   1.531  0.00  0.00    -0.096 C 
ATOM      2  N   LIG    1       -5.065   4.405   1.376  0.00  0.00    +0.378 N 
ATOM      3  H   LIG    1       -4.902   3.782   2.176  0.00  0.00    -0.082 HD
ATOM      4  C   LIG    1       -4.002   5.433   1.345  0.00  0.00    -0.077 C 
ATOM      5  C   LIG    1       -2.639   4.738   1.302  0.00  0.00    +0.008 C 
ATOM      6  C   LIG    1       -2.554   3.867   0.046  0.00  0.00    +0.079 C 
ATOM      7  C   LIG    1       -3.704   2.856   0.055  0.00  0.00    +0.008 C 
ATOM      8  C   LIG    1       -5.036   3.607   0.132  0.00  0.00    -0.077 C 
ENDROOT
BRANCH   6   9
ATOM      9  C   LIG    1       -1.238   3.133   0.030  0.00  0.00    -0.026 A 
ATOM     10  C   LIG    1       -1.219   1.750   0.017  0.00  0.00    +0.007 A 
ATOM     11  C   LIG    1       -0.013   1.076   0.008  0.00  0.00    +0.022 A 
ATOM     12  C   LIG    1        1.176   1.784   0.000  0.00  0.00    +0.059 A 
ATOM     13 CL   LIG    1        2.691   0.937  -0.019  0.00  0.00    -0.082 Cl
ATOM     14  C   LIG    1        1.156   3.168   0.008  0.00  0.00    +0.060 A 
ATOM     15 CL   LIG    1        2.647   4.058  -0.003  0.00  0.00    -0.082 Cl
ATOM     16  C   LIG    1       -0.052   3.842   0.022  0.00  0.00    +0.026 A 
ENDBRANCH   6   9
BRANCH   6  17
ATOM     17  C   LIG    1       -2.657   4.719  -1.151  0.00  0.00    +0.074 C 
ATOM     18  N   LIG    1       -2.736   5.376  -2.074  0.00  0.00    -0.196 NA
ENDBRANCH   6  17
TORSDOF 2
