REMARK  Name = ZINC13586462
REMARK                            x       y       z     vdW  Elec       q    Type
REMARK                         _______ _______ _______ _____ _____    ______ ____
ROOT
ATOM      1  C   LIG    1        7.208  -2.672  -0.079  0.00  0.00    +0.077 A 
ATOM      2  C   LIG    1        8.415  -1.973  -0.086  0.00  0.00    +0.057 A 
ATOM      3  C   LIG    1        8.372  -0.579  -0.080  0.00  0.00    +0.077 A 
ATOM      4  N   LIG    1        7.189   0.032  -0.066  0.00  0.00    -0.214 NA
ATOM      5  C   LIG    1        6.065  -0.666  -0.059  0.00  0.00    +0.223 A 
ATOM      6  N   LIG    1        6.065  -1.990  -0.060  0.00  0.00    -0.214 NA
ENDROOT
BRANCH   1  10
ATOM      7  C   LIG    1        7.180  -6.924  -0.099  0.00  0.00    +0.000 A 
ATOM      8  C   LIG    1        5.985  -6.227  -0.084  0.00  0.00    +0.001 A 
ATOM      9  C   LIG    1        5.988  -4.847  -0.078  0.00  0.00    +0.010 A 
ATOM     10  C   LIG    1        7.198  -4.156  -0.086  0.00  0.00    +0.001 A 
ATOM     11  C   LIG    1        8.399  -4.863  -0.106  0.00  0.00    +0.010 A 
ATOM     12  C   LIG    1        8.384  -6.243  -0.106  0.00  0.00    +0.001 A 
ENDBRANCH   1  10
BRANCH   3  13
ATOM     13  C   LIG    1        9.627   0.213  -0.087  0.00  0.00    +0.001 A 
ATOM     14  C   LIG    1       10.861  -0.434  -0.095  0.00  0.00    +0.010 A 
ATOM     15  C   LIG    1       12.025   0.307  -0.108  0.00  0.00    +0.001 A 
ATOM     16  C   LIG    1       11.969   1.690  -0.101  0.00  0.00    +0.000 A 
ATOM     17  C   LIG    1       10.746   2.337  -0.086  0.00  0.00    +0.001 A 
ATOM     18  C   LIG    1        9.575   1.605  -0.079  0.00  0.00    +0.010 A 
ENDBRANCH   3  13
BRANCH   5  19
ATOM     19  N   LIG    1        4.851   0.008  -0.044  0.00  0.00    -0.250 N 
ATOM     20  H   LIG    1        4.836   0.978  -0.039  0.00  0.00    +0.158 HD
ATOM     21  C   LIG    1        3.695  -0.684  -0.037  0.00  0.00    +0.250 C 
ATOM     22  O   LIG    1        3.715  -1.899  -0.043  0.00  0.00    -0.270 OA
BRANCH  21  23
ATOM     23  C   LIG    1        2.404   0.034  -0.021  0.00  0.00    +0.037 A 
ATOM     24  C   LIG    1        1.204  -0.681  -0.013  0.00  0.00    +0.013 A 
ATOM     25  C   LIG    1        0.002  -0.004   0.002  0.00  0.00    +0.001 A 
ATOM     26  C   LIG    1       -0.017   1.379   0.010  0.00  0.00    +0.000 A 
ATOM     27  C   LIG    1        1.168   2.094   0.002  0.00  0.00    +0.001 A 
ATOM     28  C   LIG    1        2.377   1.430  -0.013  0.00  0.00    +0.013 A 
ENDBRANCH  21  23
ENDBRANCH   5  19
TORSDOF 4
