REMARK  Name = ZINC13584108
REMARK                            x       y       z     vdW  Elec       q    Type
REMARK                         _______ _______ _______ _____ _____    ______ ____
ROOT
ATOM      1  N   TRP A  1       -0.898  -2.695  -2.034  0.00  0.00    -0.313 N 
ATOM      2  H   TRP A  1       -1.120  -1.995  -1.401  0.00  0.00    +0.149 HD
ENDROOT
BRANCH   1   3
ATOM      3  C   UNK A  0       -0.963  -2.452  -3.358  0.00  0.00    +0.135 C 
ATOM      4  S   UNK A  0       -0.571  -3.688  -4.476  0.00  0.00    -0.019 S 
BRANCH   3   5
ATOM      5  N   UNK A  0       -1.336  -1.235  -3.802  0.00  0.00    -0.297 N 
ATOM      6  H   UNK A  0       -1.617  -0.554  -3.171  0.00  0.00    +0.154 HD
BRANCH   5   7
ATOM      7  C   UNK A  0       -1.318  -0.955  -5.173  0.00  0.00    +0.033 A 
ATOM      8  C   UNK A  0       -1.845  -1.869  -6.076  0.00  0.00    +0.025 A 
ATOM      9  C   UNK A  0       -1.827  -1.589  -7.429  0.00  0.00    +0.030 A 
ATOM     10  C   UNK A  0       -1.284  -0.401  -7.883  0.00  0.00    +0.105 A 
ATOM     11  C   UNK A  0       -0.759   0.511  -6.986  0.00  0.00    +0.030 A 
ATOM     12  C   UNK A  0       -0.779   0.239  -5.632  0.00  0.00    +0.025 A 
BRANCH  10  13
ATOM     13  S   UNK A  0       -1.262  -0.048  -9.609  0.00  0.00    +0.056 S 
ATOM     14  O   UNK A  0       -1.318  -1.299 -10.280  0.00  0.00    -0.153 OA
ATOM     15  O   UNK A  0       -0.209   0.883  -9.820  0.00  0.00    -0.153 OA
BRANCH  13  16
ATOM     16  N   UNK A  0       -2.672   0.744  -9.965  0.00  0.00    -0.204 NA
ATOM     17  H   UNK A  0       -2.852   1.028 -10.875  0.00  0.00    +0.144 HD
ATOM     18  H   UNK A  0       -3.317   0.924  -9.264  0.00  0.00    +0.144 HD
ENDBRANCH  13  16
ENDBRANCH  10  13
ENDBRANCH   5   7
ENDBRANCH   3   5
ENDBRANCH   1   3
BRANCH   1  19
ATOM     19  CA  TRP A  1       -0.492  -4.018  -1.551  0.00  0.00    +0.185 C 
BRANCH  19  20
ATOM     20  C   TRP A  1       -1.692  -4.928  -1.513  0.00  0.00    +0.326 C 
ATOM     21  O   TRP A  1       -2.802  -4.466  -1.313  0.00  0.00    -0.249 OA
BRANCH  20  22
ATOM     22  OXT TRP A  1       -1.553  -6.128  -1.683  0.00  0.00    -0.479 OA
ATOM     23  HXT TRP A  1       -0.699  -6.483  -1.837  0.00  0.00    +0.295 HD
ENDBRANCH  20  22
ENDBRANCH  19  20
BRANCH  19  24
ATOM     24  CB  TRP A  1        0.095  -3.889  -0.144  0.00  0.00    +0.071 C 
BRANCH  24  30
ATOM     25  CZ3 TRP A  1        0.967   0.717  -0.073  0.00  0.00    +0.001 A 
ATOM     26  CH2 TRP A  1        2.321   1.012  -0.149  0.00  0.00    +0.002 A 
ATOM     27  CZ2 TRP A  1        3.256   0.004  -0.236  0.00  0.00    +0.026 A 
ATOM     28  CE2 TRP A  1        2.842  -1.324  -0.246  0.00  0.00    +0.047 A 
ATOM     29  CD2 TRP A  1        1.468  -1.618  -0.168  0.00  0.00    +0.003 A 
ATOM     30  CG  TRP A  1        1.365  -3.079  -0.202  0.00  0.00    -0.020 A 
ATOM     31  CD1 TRP A  1        2.615  -3.559  -0.294  0.00  0.00    +0.087 A 
ATOM     32  NE1 TRP A  1        3.511  -2.525  -0.321  0.00  0.00    -0.360 N 
ATOM     33  HE1 TRP A  1        4.474  -2.624  -0.384  0.00  0.00    +0.165 HD
ATOM     34  CE3 TRP A  1        0.538  -0.581  -0.082  0.00  0.00    +0.010 A 
ENDBRANCH  24  30
ENDBRANCH  19  24
ENDBRANCH   1  19
TORSDOF 10
