REMARK  Name = ZINC13581280
REMARK                            x       y       z     vdW  Elec       q    Type
REMARK                         _______ _______ _______ _____ _____    ______ ____
ROOT
ATOM      1  C   LIG    1        4.913 -10.654   2.537  0.00  0.00    +0.125 C 
ATOM      2  C   LIG    1        6.116 -10.139   2.031  0.00  0.00    +0.038 C 
ATOM      3  C   LIG    1        6.156  -8.871   1.536  0.00  0.00    -0.007 C 
ATOM      4  C   LIG    1        7.437  -8.296   0.987  0.00  0.00    +0.008 C 
ATOM      5  C   LIG    1        4.969  -8.110   1.550  0.00  0.00    +0.011 C 
ATOM      6  C   LIG    1        4.942  -6.798   1.054  0.00  0.00    +0.027 C 
ATOM      7  C   LIG    1        3.763  -6.086   1.084  0.00  0.00    +0.073 C 
ATOM      8  C   LIG    1        2.599  -6.659   1.608  0.00  0.00    +0.024 C 
ATOM      9  C   LIG    1        2.601  -7.931   2.089  0.00  0.00    +0.021 C 
ATOM     10  C   LIG    1        3.786  -8.686   2.074  0.00  0.00    +0.059 C 
ATOM     11  N   LIG    1        3.808  -9.938   2.547  0.00  0.00    -0.298 NA
ATOM     12  H   LIG    1        2.879 -10.368   2.949  0.00  0.00    +0.124 HD
ENDROOT
BRANCH   1  16
ATOM     13  N   LIG    1        4.042 -14.664   3.128  0.00  0.00    -0.300 NA
ATOM     14  C   LIG    1        3.576 -13.700   4.135  0.00  0.00    +0.100 C 
ATOM     15  C   LIG    1        3.544 -12.299   3.518  0.00  0.00    +0.101 C 
ATOM     16  N   LIG    1        4.888 -11.947   3.039  0.00  0.00    -0.285 NA
ATOM     17  C   LIG    1        5.354 -12.912   2.032  0.00  0.00    +0.101 C 
ATOM     18  C   LIG    1        5.386 -14.312   2.648  0.00  0.00    +0.100 C 
BRANCH  13  20
ATOM     19  C   LIG    1        4.263 -17.027   2.522  0.00  0.00    +0.020 C 
ATOM     20  C   LIG    1        4.015 -16.034   3.659  0.00  0.00    +0.081 C 
ENDBRANCH  13  20
ENDBRANCH   1  16
BRANCH   7  21
ATOM     21  N   LIG    1        3.730  -4.776   0.591  0.00  0.00    -0.309 N 
ATOM     22  H   LIG    1        4.602  -4.117   0.721  0.00  0.00    +0.149 HD
ATOM     23  C   LIG    1        2.631  -4.322  -0.043  0.00  0.00    +0.254 C 
ATOM     24  O   LIG    1        1.643  -5.021  -0.120  0.00  0.00    -0.272 OA
BRANCH  23  25
ATOM     25  C   LIG    1        2.630  -2.945  -0.656  0.00  0.00    +0.256 C 
ATOM     26  C   LIG    1        3.645  -2.895  -1.800  0.00  0.00    +0.062 C 
BRANCH  25  27
ATOM     27  O   LIG    1        1.327  -2.650  -1.163  0.00  0.00    -0.478 OA
BRANCH  27  28
ATOM     28  C   LIG    1        0.994  -1.338  -1.283  0.00  0.00    +0.140 A 
ATOM     29  C   LIG    1        1.866  -0.356  -0.836  0.00  0.00    +0.048 A 
ATOM     30  C   LIG    1        1.526   0.977  -0.960  0.00  0.00    +0.023 A 
ATOM     31  C   LIG    1        0.316   1.334  -1.530  0.00  0.00    +0.043 A 
ATOM     32 CL   LIG    1       -0.107   3.011  -1.684  0.00  0.00    -0.083 Cl
ATOM     33  C   LIG    1       -0.555   0.357  -1.977  0.00  0.00    +0.043 A 
ATOM     34  C   LIG    1       -0.219  -0.978  -1.855  0.00  0.00    +0.084 A 
ATOM     35 CL   LIG    1       -1.312  -2.204  -2.416  0.00  0.00    -0.080 Cl
ENDBRANCH  27  28
ENDBRANCH  25  27
ENDBRANCH  23  25
ENDBRANCH   7  21
TORSDOF 6
