REMARK  Name = ZINC13643221
REMARK                            x       y       z     vdW  Elec       q    Type
REMARK                         _______ _______ _______ _____ _____    ______ ____
ROOT
ATOM      1  C   LIG    1        2.194   1.897  -0.115  0.00  0.00    +0.024 A 
ATOM      2  C   LIG    1        0.939   2.478  -0.147  0.00  0.00    +0.049 A 
ATOM      3  C   LIG    1       -0.193   1.681  -0.120  0.00  0.00    +0.142 A 
ATOM      4  C   LIG    1       -0.066   0.295  -0.061  0.00  0.00    +0.078 A 
ATOM      5  C   LIG    1        1.195  -0.281  -0.030  0.00  0.00    +0.047 A 
ATOM      6  C   LIG    1        2.322   0.521  -0.057  0.00  0.00    +0.043 A 
ATOM      7 CL   LIG    1        3.901  -0.201  -0.018  0.00  0.00    -0.083 Cl
ENDROOT
BRANCH   4   8
ATOM      8  N   LIG    1       -1.209  -0.515  -0.033  0.00  0.00    -0.266 N 
ATOM      9  H   LIG    1       -2.007  -0.245  -0.513  0.00  0.00    +0.156 HD
ATOM     10  C   LIG    1       -1.199  -1.670   0.661  0.00  0.00    +0.309 C 
ATOM     11  N   LIG    1       -2.254  -2.507   0.592  0.00  0.00    -0.253 N 
ATOM     12  H   LIG    1       -3.049  -2.245   0.103  0.00  0.00    +0.158 HD
ATOM     13  O   LIG    1       -0.240  -1.957   1.351  0.00  0.00    -0.252 OA
BRANCH  11  14
ATOM     14  C   LIG    1       -2.201  -3.745   1.222  0.00  0.00    +0.144 A 
ATOM     15  C   LIG    1       -3.248  -4.655   1.060  0.00  0.00    +0.156 A 
ATOM     16  N   LIG    1       -3.197  -5.829   1.652  0.00  0.00    -0.240 NA
ATOM     17  C   LIG    1       -2.150  -6.147   2.413  0.00  0.00    +0.158 A 
ATOM     18  C   LIG    1       -1.107  -5.235   2.578  0.00  0.00    +0.151 A 
ATOM     19  N   LIG    1       -1.158  -4.060   1.979  0.00  0.00    -0.236 NA
BRANCH  17  20
ATOM     20  C   LIG    1       -2.097  -7.422   3.062  0.00  0.00    +0.121 C 
ATOM     21  N   LIG    1       -2.054  -8.434   3.577  0.00  0.00    -0.189 NA
ENDBRANCH  17  20
ENDBRANCH  11  14
ENDBRANCH   4   8
BRANCH   3  22
ATOM     22  O   LIG    1       -1.428   2.251  -0.157  0.00  0.00    -0.487 OA
BRANCH  22  23
ATOM     23  C   LIG    1       -1.485   3.678  -0.126  0.00  0.00    +0.178 C 
ATOM     24  C   LIG    1       -1.415   4.163   1.325  0.00  0.00    +0.072 C 
ATOM     25  C   LIG    1       -1.558   5.687   1.353  0.00  0.00    +0.163 C 
ATOM     26  O   LIG    1       -2.788   6.062   0.731  0.00  0.00    -0.380 OA
ATOM     27  C   LIG    1       -2.888   5.677  -0.642  0.00  0.00    +0.163 C 
ATOM     28  C   LIG    1       -2.801   4.152  -0.750  0.00  0.00    +0.072 C 
ENDBRANCH  22  23
ENDBRANCH   3  22
TORSDOF 5
