REMARK  Name = ZINC13641637
REMARK                            x       y       z     vdW  Elec       q    Type
REMARK                         _______ _______ _______ _____ _____    ______ ____
ROOT
ATOM      1  C   LIG    1       -2.590  -0.413   0.035  0.00  0.00    +0.046 C 
ATOM      2  C   LIG    1       -2.514   1.092   0.041  0.00  0.00    -0.019 A 
ATOM      3  C   LIG    1       -1.225   1.777   0.033  0.00  0.00    +0.040 A 
ATOM      4  C   LIG    1       -0.013   1.077   0.018  0.00  0.00    +0.126 A 
ATOM      5  N   LIG    1        1.112   1.768   0.006  0.00  0.00    -0.222 NA
ATOM      6  C   LIG    1        1.104   3.096   0.013  0.00  0.00    +0.222 A 
ATOM      7  N   LIG    1       -0.017   3.801   0.031  0.00  0.00    -0.196 NA
ATOM      8  C   LIG    1       -1.195   3.188   0.044  0.00  0.00    +0.149 A 
ATOM      9  N   LIG    1       -2.372   3.890   0.063  0.00  0.00    -0.289 N 
ATOM     10  C   LIG    1       -3.557   3.254   0.061  0.00  0.00    +0.267 A 
ATOM     11  O   LIG    1       -4.583   3.912   0.075  0.00  0.00    -0.266 OA
ATOM     12  C   LIG    1       -3.645   1.846   0.055  0.00  0.00    +0.086 A 
ATOM     13 BR   LIG    1       -5.339   1.007   0.066  0.00  0.00    -0.044 Br
ENDROOT
BRANCH   9  14
ATOM     14  C   LIG    1       -2.339   5.355   0.070  0.00  0.00    +0.092 C 
ATOM     15  C   LIG    1       -3.081   5.894   1.311  0.00  0.00    +0.025 C 
ATOM     16  C   LIG    1       -3.800   7.168   0.799  0.00  0.00    +0.002 C 
ATOM     17  C   LIG    1       -4.249   6.759  -0.626  0.00  0.00    +0.002 C 
ATOM     18  C   LIG    1       -3.081   5.905  -1.161  0.00  0.00    +0.025 C 
ENDBRANCH   9  14
BRANCH   6  19
ATOM     19  N   LIG    1        2.312   3.769   0.000  0.00  0.00    -0.268 N 
ATOM     20  H   LIG    1        2.327   4.736  -0.072  0.00  0.00    +0.156 HD
BRANCH  19  21
ATOM     21  C   LIG    1        3.507   3.056   0.091  0.00  0.00    +0.125 A 
ATOM     22  C   LIG    1        4.712   3.745   0.188  0.00  0.00    +0.045 A 
ATOM     23  C   LIG    1        5.891   3.030   0.284  0.00  0.00    +0.028 A 
ATOM     24  C   LIG    1        5.827   1.637   0.268  0.00  0.00    +0.048 A 
ATOM     25  C   LIG    1        4.589   1.019   0.163  0.00  0.00    +0.136 A 
ATOM     26  N   LIG    1        3.483   1.734   0.079  0.00  0.00    -0.238 NA
BRANCH  24  27
ATOM     27  N   LIG    1        6.995   0.872   0.356  0.00  0.00    -0.332 N 
ATOM     28  C   LIG    1        7.758   1.214   1.565  0.00  0.00    +0.086 C 
ATOM     29  C   LIG    1        9.064   0.416   1.583  0.00  0.00    -0.063 C 
ATOM     30  N   LIG    1        8.760  -1.028   1.554  0.00  0.00    +0.381 N 
ATOM     31  H   LIG    1        9.639  -1.559   1.558  0.00  0.00    -0.086 HD
ATOM     32  H   LIG    1        8.206  -1.274   2.382  0.00  0.00    -0.086 HD
ATOM     33  C   LIG    1        7.995  -1.363   0.338  0.00  0.00    -0.063 C 
ATOM     34  C   LIG    1        6.689  -0.565   0.320  0.00  0.00    +0.086 C 
ENDBRANCH  24  27
ENDBRANCH  19  21
ENDBRANCH   6  19
TORSDOF 4
