REMARK  Name = ZINC13719854
REMARK                            x       y       z     vdW  Elec       q    Type
REMARK                         _______ _______ _______ _____ _____    ______ ____
ROOT
ATOM      1  C   LIG    1        0.317   1.795   0.103  0.00  0.00    +0.014 C 
ATOM      2  C   LIG    1        0.334   2.605  -1.194  0.00  0.00    +0.114 C 
ATOM      3  C   LIG    1        1.632   2.005  -0.650  0.00  0.00    +0.114 C 
ENDROOT
BRANCH   2   4
ATOM      4  C   LIG    1        0.158   4.098  -1.085  0.00  0.00    +0.309 C 
ATOM      5  O   LIG    1        0.945   4.847  -1.639  0.00  0.00    -0.251 OA
BRANCH   4   6
ATOM      6  O   LIG    1       -0.772   4.557  -0.443  0.00  0.00    -0.480 OA
ATOM      7  H   LIG    1       -1.376   3.981  -0.017  0.00  0.00    +0.295 HD
ENDBRANCH   4   6
ENDBRANCH   2   4
BRANCH   3   8
ATOM      8  C   LIG    1        2.637   2.952  -0.046  0.00  0.00    +0.309 C 
ATOM      9  O   LIG    1        3.821   2.662  -0.043  0.00  0.00    -0.251 OA
BRANCH   8  10
ATOM     10  O   LIG    1        2.266   4.007   0.438  0.00  0.00    -0.480 OA
ATOM     11  H   LIG    1        1.355   4.230   0.435  0.00  0.00    +0.295 HD
ENDBRANCH   8  10
ENDBRANCH   3   8
BRANCH   1  12
ATOM     12  CA  LIG    1        0.124   2.562   1.413  0.00  0.00    +0.040 C 
BRANCH  12  13
ATOM     13  N   LIG    1        1.124   2.118   2.393  0.00  0.00    +0.387 N 
ATOM     14  H1  LIG    1        1.013   1.129   2.562  0.00  0.00    -0.089 HD
ATOM     15  H2  LIG    1        0.996   2.623   3.257  0.00  0.00    -0.089 HD
ATOM     16  H3  LIG    1        2.050   2.295   2.033  0.00  0.00    -0.089 HD
ENDBRANCH  12  13
BRANCH  12  17
ATOM     17  C   LIG    1       -1.259   2.297   1.951  0.00  0.00    +0.290 C 
ATOM     18  O   LIG    1       -1.412   1.535   2.890  0.00  0.00    -0.253 OA
BRANCH  17  19
ATOM     19  OXT LIG    1       -2.225   2.844   1.447  0.00  0.00    -0.482 OA
ATOM     20  HXT LIG    1       -2.107   3.429   0.725  0.00  0.00    +0.295 HD
ENDBRANCH  17  19
ENDBRANCH  12  17
ENDBRANCH   1  12
TORSDOF 8
