REMARK  Name = ZINC13732792
REMARK                            x       y       z     vdW  Elec       q    Type
REMARK                         _______ _______ _______ _____ _____    ______ ____
ROOT
ATOM      1  C   LIG    1       -2.025   9.060  -2.674  0.00  0.00    +0.138 C 
ATOM      2  N   LIG    1       -2.239   8.021  -1.664  0.00  0.00    -0.271 N 
ATOM      3  C   LIG    1       -3.512   7.904  -1.128  0.00  0.00    +0.045 A 
ATOM      4  C   LIG    1       -4.592   8.042  -2.004  0.00  0.00    +0.024 A 
ATOM      5  C   LIG    1       -5.886   7.944  -1.544  0.00  0.00    +0.002 A 
ATOM      6  C   LIG    1       -6.130   7.707  -0.201  0.00  0.00    +0.001 A 
ATOM      7  C   LIG    1       -5.080   7.566   0.676  0.00  0.00    +0.012 A 
ATOM      8  C   LIG    1       -3.755   7.662   0.222  0.00  0.00    +0.022 A 
ATOM      9  C   LIG    1       -2.681   7.500   1.215  0.00  0.00    +0.077 C 
ATOM     10  N   LIG    1       -1.587   6.855   1.015  0.00  0.00    -0.251 NA
ATOM     11  C   LIG    1       -1.294   6.208  -0.263  0.00  0.00    +0.280 C 
ATOM     12  C   LIG    1       -1.197   7.261  -1.334  0.00  0.00    +0.262 C 
ATOM     13  O   LIG    1       -0.142   7.423  -1.909  0.00  0.00    -0.271 OA
ENDROOT
BRANCH   9  14
ATOM     14  C   LIG    1       -2.876   8.126   2.543  0.00  0.00    +0.001 A 
ATOM     15  C   LIG    1       -3.719   9.228   2.682  0.00  0.00    +0.010 A 
ATOM     16  C   LIG    1       -3.899   9.804   3.923  0.00  0.00    +0.001 A 
ATOM     17  C   LIG    1       -3.238   9.296   5.027  0.00  0.00    +0.000 A 
ATOM     18  C   LIG    1       -2.396   8.206   4.895  0.00  0.00    +0.001 A 
ATOM     19  C   LIG    1       -2.211   7.619   3.660  0.00  0.00    +0.010 A 
ENDBRANCH   9  14
BRANCH  11  20
ATOM     20  N   LIG    1       -0.022   5.487  -0.168  0.00  0.00    -0.270 N 
ATOM     21  H   LIG    1        0.815   5.977  -0.172  0.00  0.00    +0.153 HD
ATOM     22  C   LIG    1       -0.016   4.142  -0.075  0.00  0.00    +0.306 C 
ATOM     23  N   LIG    1        1.154   3.479   0.013  0.00  0.00    -0.268 N 
ATOM     24  H   LIG    1        1.988   3.971   0.074  0.00  0.00    +0.156 HD
ATOM     25  O   LIG    1       -1.065   3.528  -0.070  0.00  0.00    -0.252 OA
BRANCH  23  26
ATOM     26  C   LIG    1        1.166   2.079   0.015  0.00  0.00    +0.053 A 
ATOM     27  C   LIG    1        0.136   1.375   0.626  0.00  0.00    +0.025 A 
ATOM     28  C   LIG    1        0.151  -0.006   0.627  0.00  0.00    +0.002 A 
ATOM     29  C   LIG    1        1.190  -0.689   0.021  0.00  0.00    +0.002 A 
ATOM     30  C   LIG    1        2.217   0.008  -0.588  0.00  0.00    +0.022 A 
ATOM     31  C   LIG    1        2.209   1.390  -0.592  0.00  0.00    +0.062 A 
ATOM     32 CL   LIG    1        3.499   2.265  -1.357  0.00  0.00    -0.082 Cl
ENDBRANCH  23  26
ENDBRANCH  11  20
TORSDOF 3
