REMARK  Name = ZINC13744635
REMARK                            x       y       z     vdW  Elec       q    Type
REMARK                         _______ _______ _______ _____ _____    ______ ____
ROOT
ATOM      1  C   LIG    1        4.578   7.326   3.135  0.00  0.00    +0.162 A 
ATOM      2  C   LIG    1        3.879   7.233   1.940  0.00  0.00    +0.053 A 
ATOM      3  C   LIG    1        3.587   5.998   1.397  0.00  0.00    -0.033 A 
ATOM      4  C   LIG    1        3.994   4.833   2.050  0.00  0.00    +0.025 A 
ATOM      5  C   LIG    1        3.577   3.643   1.295  0.00  0.00    +0.167 C 
ATOM      6  C   LIG    1        2.844   4.103   0.058  0.00  0.00    +0.065 C 
ATOM      7  O   LIG    1        3.786   2.491   1.611  0.00  0.00    -0.292 OA
ATOM      8  C   LIG    1        4.701   4.931   3.261  0.00  0.00    +0.061 A 
ATOM      9  C   LIG    1        2.852   5.636   0.128  0.00  0.00    +0.047 C 
ATOM     10  C   LIG    1        4.989   6.168   3.796  0.00  0.00    +0.162 A 
ENDROOT
BRANCH   1  12
ATOM     11  C   LIG    1        4.411   9.688   2.933  0.00  0.00    +0.277 C 
ATOM     12  O   LIG    1        4.862   8.544   3.662  0.00  0.00    -0.491 OA
ENDBRANCH   1  12
BRANCH  10  13
ATOM     13  O   LIG    1        5.673   6.260   4.967  0.00  0.00    -0.491 OA
ATOM     14  C   LIG    1        6.062   5.034   5.589  0.00  0.00    +0.277 C 
ENDBRANCH  10  13
BRANCH   6  15
ATOM     15  C   LIG    1        1.406   3.580   0.069  0.00  0.00    +0.015 C 
BRANCH  15  16
ATOM     16  C   LIG    1        1.413   2.065  -0.150  0.00  0.00    -0.014 C 
ATOM     17  C   LIG    1        1.930   1.754  -1.557  0.00  0.00    -0.016 C 
ATOM     18  C   LIG    1        1.878   0.243  -1.792  0.00  0.00    -0.082 C 
ATOM     19  N   LIG    1        0.488  -0.234  -1.652  0.00  0.00    +0.379 N 
ATOM     20  H   LIG    1       -0.108   0.262  -2.325  0.00  0.00    -0.086 HD
ATOM     21  H   LIG    1        0.456  -1.242  -1.844  0.00  0.00    -0.086 HD
ATOM     22  C   LIG    1       -0.007   0.017  -0.285  0.00  0.00    -0.082 C 
ATOM     23  C   LIG    1       -0.011   1.521  -0.005  0.00  0.00    -0.016 C 
ENDBRANCH  15  16
ENDBRANCH   6  15
TORSDOF 4
