REMARK  Name = ZINC13676104
REMARK                            x       y       z     vdW  Elec       q    Type
REMARK                         _______ _______ _______ _____ _____    ______ ____
ROOT
ATOM      1  N   LIG    1       -4.686  -1.201   3.345  0.00  0.00    -0.267 N 
ATOM      2  C   LIG    1       -4.230  -0.465   2.296  0.00  0.00    +0.207 A 
ATOM      3  N   LIG    1       -3.027   0.014   2.242  0.00  0.00    -0.240 NA
ATOM      4  C   LIG    1       -2.121  -0.187   3.242  0.00  0.00    +0.068 A 
ATOM      5  C   LIG    1       -0.733   0.297   3.306  0.00  0.00    +0.084 C 
ATOM      6  C   LIG    1       -0.040   1.078   2.340  0.00  0.00    +0.068 C 
ATOM      7  C   LIG    1        1.278   1.431   2.588  0.00  0.00    +0.035 C 
ATOM      8  C   LIG    1        1.895   1.036   3.759  0.00  0.00    +0.083 C 
ATOM      9  N   LIG    1        1.279   0.290   4.716  0.00  0.00    -0.304 NA
ATOM     10  H   LIG    1        1.758   0.004   5.578  0.00  0.00    +0.123 HD
ATOM     11  C   LIG    1       -0.009  -0.053   4.459  0.00  0.00    +0.127 C 
ATOM     12  S   LIG    1       -1.160  -1.003   5.422  0.00  0.00    -0.099 S 
ATOM     13  C   LIG    1       -2.557  -0.938   4.332  0.00  0.00    +0.096 A 
ATOM     14  C   LIG    1       -3.857  -1.453   4.386  0.00  0.00    +0.272 A 
ATOM     15  O   LIG    1       -4.233  -2.110   5.343  0.00  0.00    -0.266 OA
ENDROOT
BRANCH   1  19
ATOM     16  C   LIG    1       -8.588  -2.663   3.355  0.00  0.00    -0.047 A 
ATOM     17  C   LIG    1       -8.361  -1.302   3.442  0.00  0.00    +0.005 A 
ATOM     18  C   LIG    1       -7.069  -0.814   3.438  0.00  0.00    +0.026 A 
ATOM     19  C   LIG    1       -5.997  -1.692   3.348  0.00  0.00    +0.051 A 
ATOM     20  C   LIG    1       -6.229  -3.058   3.256  0.00  0.00    +0.026 A 
ATOM     21  C   LIG    1       -7.523  -3.540   3.265  0.00  0.00    +0.005 A 
BRANCH  16  23
ATOM     22  C   LIG    1      -10.517  -3.272   1.920  0.00  0.00    +0.009 C 
ATOM     23  C   LIG    1       -9.999  -3.192   3.357  0.00  0.00    +0.032 C 
ENDBRANCH  16  23
ENDBRANCH   1  19
BRANCH   6  24
ATOM     24  N   LIG    1       -0.669   1.475   1.168  0.00  0.00    -0.305 NA
ATOM     25  C   LIG    1       -0.790   2.937   1.105  0.00  0.00    +0.104 C 
ATOM     26  C   LIG    1        0.037   0.954  -0.010  0.00  0.00    +0.104 C 
ENDBRANCH   6  24
TORSDOF 3
