REMARK  Name = ZINC13734379
REMARK                            x       y       z     vdW  Elec       q    Type
REMARK                         _______ _______ _______ _____ _____    ______ ____
ROOT
ATOM      1  C   LIG    1       -0.061   4.173   0.025  0.00  0.00    +0.021 A 
ATOM      2  C   LIG    1        1.143   3.509   0.010  0.00  0.00    +0.029 A 
ATOM      3  C   LIG    1        1.177   2.116   0.002  0.00  0.00    +0.066 A 
ATOM      4  C   LIG    1       -0.017   1.389   0.010  0.00  0.00    +0.067 A 
ATOM      5  N   LIG    1        0.002  -0.004   0.002  0.00  0.00    -0.316 N 
ATOM      6  C   LIG    1        1.178  -0.664  -0.012  0.00  0.00    +0.314 A 
ATOM      7  C   LIG    1        2.451   0.114  -0.020  0.00  0.00    +0.314 A 
ATOM      8  O   LIG    1        3.521  -0.461  -0.033  0.00  0.00    -0.262 OA
ATOM      9  O   LIG    1        1.201  -1.878  -0.019  0.00  0.00    -0.262 OA
ATOM     10  H   LIG    1       -0.832  -0.500   0.007  0.00  0.00    +0.169 HD
ATOM     11  C   LIG    1       -1.232   2.056   0.031  0.00  0.00    +0.046 A 
ATOM     12  N   LIG    1        2.403   1.461  -0.013  0.00  0.00    -0.316 N 
ATOM     13  H   LIG    1        3.225   1.975  -0.018  0.00  0.00    +0.169 HD
ATOM     14  C   LIG    1       -1.260   3.451   0.032  0.00  0.00    +0.054 A 
ENDROOT
BRANCH  14  15
ATOM     15  C   LIG    1       -2.513   4.143   0.047  0.00  0.00    +0.099 C 
ATOM     16  N   LIG    1       -3.508   4.692   0.059  0.00  0.00    -0.191 NA
ENDBRANCH  14  15
TORSDOF 1
