REMARK  Name = ZINC13588594
REMARK                            x       y       z     vdW  Elec       q    Type
REMARK                         _______ _______ _______ _____ _____    ______ ____
ROOT
ATOM      1  C   LIG    1       -0.014   1.211   0.009  0.00  0.00    +0.401 C 
ATOM      2  N   LIG    1       -1.191   1.869   0.018  0.00  0.00    -0.272 N 
ATOM      3  H   LIG    1       -1.204   2.839   0.023  0.00  0.00    +0.153 HD
ATOM      4  O   LIG    1        0.002  -0.004   0.002  0.00  0.00    -0.226 OA
ENDROOT
BRANCH   1   5
ATOM      5  O   LIG    1        1.142   1.900   0.001  0.00  0.00    -0.445 OA
BRANCH   5   7
ATOM      6  C   LIG    1        2.405   0.250  -1.269  0.00  0.00    +0.055 C 
ATOM      7  C   LIG    1        2.371   1.126  -0.015  0.00  0.00    +0.107 C 
ATOM      8  C   LIG    1        2.429   0.237   1.229  0.00  0.00    +0.055 C 
ATOM      9  C   LIG    1        3.571   2.074  -0.021  0.00  0.00    +0.055 C 
ENDBRANCH   5   7
ENDBRANCH   1   5
BRANCH   2  10
ATOM     10  CA  LIG    1       -2.449   1.119   0.020  0.00  0.00    +0.141 C 
BRANCH  10  11
ATOM     11  C   LIG    1       -2.824   0.763  -1.396  0.00  0.00    +0.245 C 
ATOM     12  O   LIG    1       -2.113   1.101  -2.312  0.00  0.00    -0.299 OA
ENDBRANCH  10  11
BRANCH  10  13
ATOM     13  C   LIG    1       -3.554   1.978   0.639  0.00  0.00    +0.058 C 
BRANCH  13  14
ATOM     14  C   LIG    1       -3.233   2.235   2.113  0.00  0.00    +0.161 C 
BRANCH  14  15
ATOM     15  O   LIG    1       -4.265   3.037   2.692  0.00  0.00    -0.383 OA
ATOM     16  C   LIG    1       -4.061   3.337   4.074  0.00  0.00    +0.193 C 
ENDBRANCH  14  15
ENDBRANCH  13  14
ENDBRANCH  10  13
ENDBRANCH   2  10
TORSDOF 7
