REMARK  Name = ZINC13584924
REMARK                            x       y       z     vdW  Elec       q    Type
REMARK                         _______ _______ _______ _____ _____    ______ ____
ROOT
ATOM      1  C   LIG    1        1.113   1.921   0.002  0.00  0.00    +0.095 A 
ATOM      2  C   LIG    1       -0.013   1.076   0.008  0.00  0.00    +0.074 A 
ATOM      3  C   LIG    1       -1.122   1.862   0.017  0.00  0.00    +0.129 A 
ATOM      4  N   LIG    1       -0.709   3.159   0.026  0.00  0.00    -0.218 N 
ATOM      5  N   LIG    1        0.692   3.168   0.013  0.00  0.00    -0.165 NA
ENDROOT
BRANCH   1   9
ATOM      6  C   LIG    1        5.175   0.661  -0.042  0.00  0.00    +0.000 A 
ATOM      7  C   LIG    1        4.872   2.011  -0.033  0.00  0.00    +0.001 A 
ATOM      8  C   LIG    1        3.555   2.425  -0.018  0.00  0.00    +0.010 A 
ATOM      9  C   LIG    1        2.531   1.481  -0.014  0.00  0.00    +0.002 A 
ATOM     10  C   LIG    1        2.841   0.123  -0.018  0.00  0.00    +0.010 A 
ATOM     11  C   LIG    1        4.161  -0.280  -0.038  0.00  0.00    +0.001 A 
ENDBRANCH   1   9
BRANCH   4  12
ATOM     12  C   LIG    1       -1.539   4.288   0.040  0.00  0.00    +0.067 A 
ATOM     13  C   LIG    1       -2.748   4.271  -0.643  0.00  0.00    +0.028 A 
ATOM     14  C   LIG    1       -3.567   5.383  -0.623  0.00  0.00    +0.002 A 
ATOM     15  C   LIG    1       -3.178   6.516   0.068  0.00  0.00    +0.000 A 
ATOM     16  C   LIG    1       -1.972   6.538   0.744  0.00  0.00    +0.002 A 
ATOM     17  C   LIG    1       -1.152   5.428   0.732  0.00  0.00    +0.028 A 
ENDBRANCH   4  12
BRANCH   3  18
ATOM     18  N   LIG    1       -2.443   1.419   0.020  0.00  0.00    -0.265 N 
ATOM     19  H   LIG    1       -3.169   2.062   0.026  0.00  0.00    +0.157 HD
ATOM     20  C   LIG    1       -2.711   0.098   0.014  0.00  0.00    +0.269 C 
ATOM     21  O   LIG    1       -1.801  -0.707   0.007  0.00  0.00    -0.268 OA
BRANCH  20  22
ATOM     22  C   LIG    1       -4.115  -0.372   0.018  0.00  0.00    +0.144 A 
ATOM     23  C   LIG    1       -4.396  -1.738   0.012  0.00  0.00    +0.143 A 
ATOM     24  N   LIG    1       -5.649  -2.153   0.015  0.00  0.00    -0.259 NA
ATOM     25  C   LIG    1       -6.637  -1.275   0.024  0.00  0.00    +0.130 A 
ATOM     26  C   LIG    1       -6.362   0.085   0.030  0.00  0.00    +0.131 A 
ATOM     27  N   LIG    1       -5.113   0.507   0.032  0.00  0.00    -0.247 NA
ENDBRANCH  20  22
ENDBRANCH   3  18
TORSDOF 4
