REMARK  Name = ZINC13657906
REMARK                            x       y       z     vdW  Elec       q    Type
REMARK                         _______ _______ _______ _____ _____    ______ ____
ROOT
ATOM      1  C   LIG    1       -1.495   0.369   0.055  0.00  0.00    +0.067 C 
ATOM      2  C   LIG    1       -0.259  -0.491  -0.008  0.00  0.00    +0.064 A 
ATOM      3  C   LIG    1        0.459  -0.808  -1.145  0.00  0.00    +0.169 A 
ATOM      4  C   LIG    1        1.537  -1.635  -0.741  0.00  0.00    +0.259 A 
ATOM      5  N   LIG    1        1.458  -1.795   0.555  0.00  0.00    -0.134 NA
ATOM      6  N   LIG    1        0.349  -1.087   1.033  0.00  0.00    -0.276 N 
ATOM      7  H   LIG    1        0.067  -1.035   1.959  0.00  0.00    +0.189 HD
ENDROOT
BRANCH   4   8
ATOM      8  O   LIG    1        2.485  -2.167  -1.555  0.00  0.00    -0.490 OA
ATOM      9  H   LIG    1        3.296  -1.643  -1.612  0.00  0.00    +0.294 HD
ENDBRANCH   4   8
BRANCH   3  10
ATOM     10  N   LIG    1        0.183  -0.401  -2.418  0.00  0.00    -0.142 NA
ATOM     11  N   LIG    1        0.102  -1.268  -3.369  0.00  0.00    -0.148 NA
BRANCH  11  12
ATOM     12  C   LIG    1        0.122  -2.605  -3.079  0.00  0.00    +0.104 A 
ATOM     13  C   LIG    1       -0.470  -3.078  -1.905  0.00  0.00    +0.031 A 
ATOM     14  C   LIG    1       -0.447  -4.426  -1.619  0.00  0.00    +0.002 A 
ATOM     15  C   LIG    1        0.162  -5.312  -2.492  0.00  0.00    +0.002 A 
ATOM     16  C   LIG    1        0.751  -4.853  -3.656  0.00  0.00    +0.022 A 
ATOM     17  C   LIG    1        0.730  -3.506  -3.958  0.00  0.00    +0.068 A 
ATOM     18 CL   LIG    1        1.463  -2.931  -5.423  0.00  0.00    -0.081 Cl
ENDBRANCH  11  12
ENDBRANCH   3  10
TORSDOF 3
