REMARK  Name = ZINC13604439
REMARK                            x       y       z     vdW  Elec       q    Type
REMARK                         _______ _______ _______ _____ _____    ______ ____
ROOT
ATOM      1  C   LIG    1       -1.903   6.361  -2.215  0.00  0.00    +0.113 C 
ATOM      2  C   LIG    1       -2.248   7.765  -2.691  0.00  0.00    +0.165 C 
ATOM      3  C   LIG    1       -3.663   8.191  -2.394  0.00  0.00    +0.165 C 
ATOM      4  C   LIG    1       -4.726   7.123  -2.432  0.00  0.00    +0.113 C 
ATOM      5  N   LIG    1       -4.601   6.291  -3.630  0.00  0.00    -0.279 N 
ATOM      6  C   LIG    1       -3.597   5.412  -3.765  0.00  0.00    +0.305 C 
ATOM      7  O   LIG    1       -3.705   4.603  -4.675  0.00  0.00    -0.252 OA
ATOM      8  N   LIG    1       -2.508   5.320  -3.028  0.00  0.00    -0.279 N 
ENDROOT
BRANCH   2   9
ATOM      9  O   LIG    1       -1.339   8.703  -2.091  0.00  0.00    -0.387 OA
ATOM     10  H   LIG    1       -1.497   9.622  -2.347  0.00  0.00    +0.210 HD
ENDBRANCH   2   9
BRANCH   3  11
ATOM     11  O   LIG    1       -4.029   9.227  -3.320  0.00  0.00    -0.387 OA
ATOM     12  H   LIG    1       -3.469  10.013  -3.272  0.00  0.00    +0.210 HD
ENDBRANCH   3  11
BRANCH   1  13
ATOM     13  C   LIG    1       -2.232   6.169  -0.737  0.00  0.00    +0.060 C 
BRANCH  13  17
ATOM     14  C   LIG    1        0.359   8.609   1.625  0.00  0.00    +0.000 A 
ATOM     15  C   LIG    1        0.796   7.381   1.165  0.00  0.00    +0.000 A 
ATOM     16  C   LIG    1       -0.044   6.589   0.405  0.00  0.00    +0.004 A 
ATOM     17  C   LIG    1       -1.318   7.030   0.097  0.00  0.00    -0.046 A 
ATOM     18  C   LIG    1       -1.753   8.260   0.553  0.00  0.00    +0.004 A 
ATOM     19  C   LIG    1       -0.914   9.050   1.317  0.00  0.00    +0.000 A 
ENDBRANCH  13  17
ENDBRANCH   1  13
BRANCH   4  20
ATOM     20  C   LIG    1       -6.107   7.797  -2.451  0.00  0.00    +0.060 C 
BRANCH  20  21
ATOM     21  C   LIG    1       -6.333   8.515  -1.146  0.00  0.00    -0.046 A 
ATOM     22  C   LIG    1       -6.931   7.856  -0.089  0.00  0.00    +0.004 A 
ATOM     23  C   LIG    1       -7.134   8.513   1.110  0.00  0.00    +0.000 A 
ATOM     24  C   LIG    1       -6.749   9.834   1.248  0.00  0.00    +0.000 A 
ATOM     25  C   LIG    1       -6.157  10.495   0.188  0.00  0.00    +0.000 A 
ATOM     26  C   LIG    1       -5.949   9.836  -1.009  0.00  0.00    +0.004 A 
ENDBRANCH  20  21
ENDBRANCH   4  20
BRANCH   5  27
ATOM     27  C   LIG    1       -5.595   6.420  -4.701  0.00  0.00    +0.113 C 
BRANCH  27  28
ATOM     28  C   LIG    1       -6.778   5.494  -4.413  0.00  0.00    +0.006 C 
ATOM     29  C   LIG    1       -6.350   4.021  -4.585  0.00  0.00    +0.005 C 
ATOM     30  C   LIG    1       -7.590   3.337  -5.213  0.00  0.00    +0.000 C 
ATOM     31  C   LIG    1       -8.123   4.418  -6.185  0.00  0.00    +0.000 C 
ATOM     32  C   LIG    1       -7.905   5.746  -5.430  0.00  0.00    +0.005 C 
ENDBRANCH  27  28
ENDBRANCH   5  27
BRANCH   8  33
ATOM     33  C   LIG    1       -1.831   4.011  -3.033  0.00  0.00    +0.113 C 
BRANCH  33  34
ATOM     34  C   LIG    1       -2.505   3.085  -2.018  0.00  0.00    +0.006 C 
ATOM     35  C   LIG    1       -1.605   2.918  -0.776  0.00  0.00    +0.005 C 
ATOM     36  C   LIG    1       -1.799   1.437  -0.364  0.00  0.00    +0.000 C 
ATOM     37  C   LIG    1       -1.888   0.710  -1.729  0.00  0.00    +0.000 C 
ATOM     38  C   LIG    1       -2.685   1.682  -2.624  0.00  0.00    +0.005 C 
ENDBRANCH  33  34
ENDBRANCH   8  33
TORSDOF 10
