REMARK  Name = ZINC13647791
REMARK                            x       y       z     vdW  Elec       q    Type
REMARK                         _______ _______ _______ _____ _____    ______ ____
ROOT
ATOM      1  C   LIG    1        4.468  -4.310  -0.064  0.00  0.00    +0.089 A 
ATOM      2  C   LIG    1        4.867  -5.655  -0.082  0.00  0.00    +0.049 A 
ATOM      3  C   LIG    1        6.206  -5.941  -0.095  0.00  0.00    +0.116 A 
ATOM      4  N   LIG    1        7.085  -4.948  -0.092  0.00  0.00    -0.223 NA
ATOM      5  C   LIG    1        6.689  -3.684  -0.076  0.00  0.00    +0.216 A 
ATOM      6  N   LIG    1        5.405  -3.359  -0.068  0.00  0.00    -0.214 NA
ENDROOT
BRANCH   1  15
ATOM      7  C   LIG    1       -0.017   1.370   0.010  0.00  0.00    +0.002 A 
ATOM      8  C   LIG    1        1.157   2.104   0.002  0.00  0.00    +0.001 A 
ATOM      9  C   LIG    1        2.369   1.437  -0.013  0.00  0.00    +0.017 A 
ATOM     10  C   LIG    1        2.389   0.063  -0.021  0.00  0.00    +0.037 A 
ATOM     11  C   LIG    1        1.218  -0.710  -0.013  0.00  0.00    +0.054 A 
ATOM     12  N   LIG    1        1.395  -2.081  -0.022  0.00  0.00    -0.348 N 
ATOM     13  H   LIG    1        0.624  -2.669  -0.018  0.00  0.00    +0.166 HD
ATOM     14  C   LIG    1        2.655  -2.611  -0.037  0.00  0.00    +0.098 A 
ATOM     15  C   LIG    1        3.038  -3.953  -0.049  0.00  0.00    +0.107 C 
ATOM     16  S   LIG    1        3.684  -1.153  -0.039  0.00  0.00    -0.068 S 
ATOM     17  C   LIG    1        0.002  -0.004   0.002  0.00  0.00    +0.027 A 
BRANCH  15  18
ATOM     18  C   LIG    1        2.043  -4.983  -0.045  0.00  0.00    +0.104 C 
ATOM     19  N   LIG    1        1.254  -5.800  -0.042  0.00  0.00    -0.191 NA
ENDBRANCH  15  18
ENDBRANCH   1  15
BRANCH   5  20
ATOM     20  N   LIG    1        7.639  -2.678  -0.073  0.00  0.00    -0.313 N 
ATOM     21  H   LIG    1        7.362  -1.748  -0.061  0.00  0.00    +0.149 HD
BRANCH  20  22
ATOM     22  C   LIG    1        9.065  -3.017  -0.087  0.00  0.00    +0.109 C 
BRANCH  22  23
ATOM     23  C   LIG    1        9.895  -1.732  -0.081  0.00  0.00    +0.055 C 
BRANCH  23  24
ATOM     24  C   LIG    1       11.361  -2.081  -0.096  0.00  0.00    -0.028 A 
ATOM     25  C   LIG    1       12.052  -2.261   1.093  0.00  0.00    +0.006 A 
ATOM     26  C   LIG    1       13.399  -2.582   1.031  0.00  0.00    +0.020 A 
ATOM     27  C   LIG    1       14.005  -2.709  -0.205  0.00  0.00    +0.111 A 
ATOM     28  N   LIG    1       13.316  -2.529  -1.315  0.00  0.00    -0.263 NA
ATOM     29  C   LIG    1       12.032  -2.230  -1.294  0.00  0.00    +0.114 A 
ENDBRANCH  23  24
ENDBRANCH  22  23
ENDBRANCH  20  22
ENDBRANCH   5  20
TORSDOF 6
