REMARK  Name = ZINC13633702
REMARK                            x       y       z     vdW  Elec       q    Type
REMARK                         _______ _______ _______ _____ _____    ______ ____
ROOT
ATOM      1  C   LIG    1        1.043   5.079   2.210  0.00  0.00    +0.162 A 
ATOM      2  N   LIG    1       -0.087   4.438   1.975  0.00  0.00    -0.227 NA
ATOM      3  C   LIG    1       -0.114   3.398   1.131  0.00  0.00    +0.077 A 
ATOM      4  C   LIG    1       -1.296   2.695   0.860  0.00  0.00    +0.028 A 
ATOM      5  C   LIG    1       -1.271   1.647  -0.011  0.00  0.00    +0.002 A 
ATOM      6  C   LIG    1       -0.086   1.255  -0.628  0.00  0.00    +0.001 A 
ATOM      7  C   LIG    1        1.082   1.917  -0.386  0.00  0.00    +0.013 A 
ATOM      8  C   LIG    1        1.090   3.001   0.499  0.00  0.00    +0.040 A 
ATOM      9  C   LIG    1        2.273   3.725   0.789  0.00  0.00    +0.131 A 
ATOM     10  N   LIG    1        2.196   4.739   1.637  0.00  0.00    -0.212 NA
ENDROOT
BRANCH   1  14
ATOM     11  C   LIG    1        1.000   8.363   4.910  0.00  0.00    +0.000 A 
ATOM     12  C   LIG    1       -0.170   7.675   4.643  0.00  0.00    +0.001 A 
ATOM     13  C   LIG    1       -0.162   6.609   3.767  0.00  0.00    +0.011 A 
ATOM     14  C   LIG    1        1.028   6.224   3.152  0.00  0.00    +0.019 A 
ATOM     15  C   LIG    1        2.205   6.917   3.429  0.00  0.00    +0.011 A 
ATOM     16  C   LIG    1        2.184   7.986   4.302  0.00  0.00    +0.001 A 
ENDBRANCH   1  14
BRANCH   9  17
ATOM     17  N   LIG    1        3.475   3.382   0.202  0.00  0.00    -0.326 N 
ATOM     18  H   LIG    1        3.542   2.483  -0.428  0.00  0.00    +0.148 HD
BRANCH  17  19
ATOM     19  C   LIG    1        4.602   4.176   0.408  0.00  0.00    +0.074 C 
ATOM     20  C   LIG    1        4.484   5.554   0.586  0.00  0.00    +0.037 C 
ATOM     21  C   LIG    1        5.623   6.303   0.792  0.00  0.00    +0.082 C 
ATOM     22  N   LIG    1        6.814   5.732   0.811  0.00  0.00    -0.316 NA
ATOM     23  H   LIG    1        7.714   6.344   0.973  0.00  0.00    +0.122 HD
ATOM     24  C   LIG    1        6.967   4.433   0.642  0.00  0.00    +0.082 C 
ATOM     25  C   LIG    1        5.877   3.613   0.436  0.00  0.00    +0.037 C 
ENDBRANCH  17  19
ENDBRANCH   9  17
TORSDOF 3
