REMARK  Name = ZINC13581278
REMARK                            x       y       z     vdW  Elec       q    Type
REMARK                         _______ _______ _______ _____ _____    ______ ____
ROOT
ATOM      1  C   LIG    1       -4.311  -2.866  -1.675  0.00  0.00    +0.124 C 
ATOM      2  C   LIG    1       -4.263  -4.247  -1.435  0.00  0.00    +0.038 C 
ATOM      3  C   LIG    1       -5.018  -5.093  -2.190  0.00  0.00    -0.007 C 
ATOM      4  C   LIG    1       -4.984  -6.581  -1.951  0.00  0.00    +0.008 C 
ATOM      5  C   LIG    1       -5.833  -4.542  -3.200  0.00  0.00    +0.011 C 
ATOM      6  C   LIG    1       -6.636  -5.357  -4.012  0.00  0.00    +0.027 C 
ATOM      7  C   LIG    1       -7.418  -4.782  -4.989  0.00  0.00    +0.073 C 
ATOM      8  C   LIG    1       -7.418  -3.395  -5.175  0.00  0.00    +0.024 C 
ATOM      9  C   LIG    1       -6.648  -2.586  -4.400  0.00  0.00    +0.021 C 
ATOM     10  C   LIG    1       -5.838  -3.139  -3.393  0.00  0.00    +0.059 C 
ATOM     11  N   LIG    1       -5.078  -2.357  -2.617  0.00  0.00    -0.298 NA
ATOM     12  H   LIG    1       -5.090  -1.397  -2.753  0.00  0.00    +0.124 HD
ENDROOT
BRANCH   1  17
ATOM     13  N   LIG    1       -1.327  -0.557  -0.006  0.00  0.00    +0.381 N 
ATOM     14  H   LIG    1       -1.818  -0.161   0.781  0.00  0.00    -0.082 HD
ATOM     15  C   LIG    1       -1.999  -0.158  -1.249  0.00  0.00    -0.063 C 
ATOM     16  C   LIG    1       -3.472  -0.576  -1.188  0.00  0.00    +0.067 C 
ATOM     17  N   LIG    1       -3.536  -2.017  -0.899  0.00  0.00    -0.291 NA
ATOM     18  C   LIG    1       -2.757  -2.531   0.238  0.00  0.00    +0.067 C 
ATOM     19  C   LIG    1       -1.317  -2.021   0.110  0.00  0.00    -0.063 C 
BRANCH  13  21
ATOM     20  C   LIG    1        0.048   1.470  -0.013  0.00  0.00    -0.017 C 
ATOM     21  C   LIG    1        0.056  -0.060  -0.018  0.00  0.00    -0.082 C 
ENDBRANCH  13  21
ENDBRANCH   1  17
BRANCH   7  22
ATOM     22  N   LIG    1       -8.221  -5.591  -5.801  0.00  0.00    -0.310 N 
ATOM     23  H   LIG    1       -8.365  -5.354  -6.731  0.00  0.00    +0.149 HD
ATOM     24  C   LIG    1       -8.794  -6.700  -5.293  0.00  0.00    +0.251 C 
ATOM     25  O   LIG    1       -8.696  -6.944  -4.109  0.00  0.00    -0.272 OA
BRANCH  24  26
ATOM     26  C   LIG    1       -9.556  -7.636  -6.195  0.00  0.00    +0.324 C 
BRANCH  26  27
ATOM     27  O   LIG    1      -10.065  -8.728  -5.427  0.00  0.00    -0.483 OA
BRANCH  27  28
ATOM     28  C   LIG    1      -10.782  -9.671  -6.094  0.00  0.00    +0.121 A 
ATOM     29  C   LIG    1      -10.986  -9.549  -7.461  0.00  0.00    +0.047 A 
ATOM     30  C   LIG    1      -11.715 -10.508  -8.138  0.00  0.00    +0.023 A 
ATOM     31  C   LIG    1      -12.242 -11.589  -7.453  0.00  0.00    +0.041 A 
ATOM     32 CL   LIG    1      -13.158 -12.792  -8.305  0.00  0.00    -0.084 Cl
ATOM     33  C   LIG    1      -12.040 -11.712  -6.090  0.00  0.00    +0.023 A 
ATOM     34  C   LIG    1      -11.305 -10.758  -5.411  0.00  0.00    +0.047 A 
ENDBRANCH  27  28
ENDBRANCH  26  27
ENDBRANCH  24  26
ENDBRANCH   7  22
TORSDOF 6
