REMARK  Name = ZINC13555417
REMARK                            x       y       z     vdW  Elec       q    Type
REMARK                         _______ _______ _______ _____ _____    ______ ____
ROOT
ATOM      1  C   LIG    1       -0.013   1.086   0.008  0.00  0.00    +0.069 C 
ATOM      2  C   LIG    1       -0.742   1.585  -1.213  0.00  0.00    +0.080 A 
ATOM      3  N   LIG    1       -0.070   1.823  -2.322  0.00  0.00    -0.256 NA
ATOM      4  C   LIG    1       -0.665   2.256  -3.416  0.00  0.00    +0.117 A 
ATOM      5  C   LIG    1       -2.026   2.491  -3.443  0.00  0.00    +0.006 A 
ATOM      6  C   LIG    1       -2.694   2.992  -4.688  0.00  0.00    +0.209 C 
ATOM      7  O   LIG    1       -3.140   4.339  -4.499  0.00  0.00    -0.282 OA
ATOM      8  P   LIG    1       -4.559   4.661  -3.788  0.00  0.00    +0.476 P 
ATOM      9  O   LIG    1       -4.521   3.900  -2.359  0.00  0.00    -0.282 OA
ATOM     10  C   LIG    1       -4.251   2.497  -2.274  0.00  0.00    +0.211 C 
ATOM     11  O   LIG    1       -4.715   6.183  -3.577  0.00  0.00    -0.227 OA
ATOM     12  C   LIG    1       -2.772   2.256  -2.288  0.00  0.00    +0.029 A 
ATOM     13  C   LIG    1       -2.112   1.795  -1.157  0.00  0.00    +0.143 A 
ENDROOT
BRANCH   8  14
ATOM     14  O   LIG    1       -5.722   4.122  -4.651  0.00  0.00    -0.302 OA
ATOM     15  H   LIG    1       -5.733   4.585  -5.504  0.00  0.00    +0.222 HD
ENDBRANCH   8  14
BRANCH  13  16
ATOM     16  O   LIG    1       -2.799   1.554  -0.010  0.00  0.00    -0.505 OA
ATOM     17  H   LIG    1       -2.859   2.317   0.581  0.00  0.00    +0.292 HD
ENDBRANCH  13  16
TORSDOF 2
