REMARK  Name = ZINC13741670
REMARK                            x       y       z     vdW  Elec       q    Type
REMARK                         _______ _______ _______ _____ _____    ______ ____
ROOT
ATOM      1  C   LIG    1       -0.150   1.183   2.378  0.00  0.00    +0.256 A 
ATOM      2  C   LIG    1       -0.628   1.513   3.657  0.00  0.00    +0.041 A 
ATOM      3  C   LIG    1        0.228   0.920   4.509  0.00  0.00    +0.142 A 
ATOM      4  C   LIG    1        0.111   0.991   6.020  0.00  0.00    +0.076 C 
ATOM      5  C   LIG    1       -1.212   0.296   6.392  0.00  0.00    -0.011 C 
ATOM      6  C   LIG    1       -2.385   1.212   6.141  0.00  0.00    -0.082 C 
ATOM      7  N   LIG    1       -2.776   1.436   4.754  0.00  0.00    +0.382 N 
ATOM      8  H   LIG    1       -2.793   0.535   4.261  0.00  0.00    -0.085 HD
ATOM      9  H   LIG    1       -3.714   1.854   4.734  0.00  0.00    -0.085 HD
ATOM     10  O   LIG    1        1.140   0.296   3.765  0.00  0.00    -0.356 OA
ATOM     11  C   LIG    1       -1.821   2.349   4.065  0.00  0.00    -0.038 C 
ATOM     12  N   LIG    1        0.916   0.444   2.580  0.00  0.00    -0.040 NA
ENDROOT
BRANCH   1  14
ATOM     13  C   LIG    1       -0.013   1.086   0.008  0.00  0.00    +0.279 C 
ATOM     14  O   LIG    1       -0.682   1.547   1.184  0.00  0.00    -0.478 OA
ENDBRANCH   1  14
TORSDOF 1
