REMARK  Name = ZINC13641439
REMARK                            x       y       z     vdW  Elec       q    Type
REMARK                         _______ _______ _______ _____ _____    ______ ____
ROOT
ATOM      1  C   LIG    1        0.377   1.718  -1.129  0.00  0.00    -0.037 C 
ATOM      2  C   LIG    1        0.188   0.200  -1.156  0.00  0.00    +0.010 C 
ENDROOT
BRANCH   1   3
ATOM      3  C   LIG    1       -0.466   2.357  -2.235  0.00  0.00    +0.008 C 
BRANCH   3   5
ATOM      4  C   LIG    1       -2.791   2.974  -2.909  0.00  0.00    +0.007 C 
ATOM      5  C   LIG    1       -1.951   2.158  -1.925  0.00  0.00    -0.017 C 
ATOM      6  C   LIG    1       -2.305   0.675  -2.058  0.00  0.00    +0.007 C 
ENDBRANCH   3   5
ENDBRANCH   1   3
BRANCH   1   7
ATOM      7  C   LIG    1       -0.068   2.263   0.230  0.00  0.00    -0.079 C 
BRANCH   7   8
ATOM      8  N   LIG    1        0.097   3.727   0.238  0.00  0.00    +0.378 N 
ATOM      9  H   LIG    1       -0.501   4.138  -0.489  0.00  0.00    -0.090 HD
ATOM     10  H   LIG    1        1.068   3.970   0.046  0.00  0.00    -0.090 HD
ATOM     11  H   LIG    1       -0.174   4.104   1.144  0.00  0.00    -0.090 HD
ENDBRANCH   7   8
ENDBRANCH   1   7
BRANCH   1  12
ATOM     12  C   LIG    1        1.852   2.052  -1.354  0.00  0.00    +0.125 C 
BRANCH  12  13
ATOM     13  C   LIG    1        2.682   1.423  -0.265  0.00  0.00    +0.305 C 
ATOM     14  O   LIG    1        2.148   0.774   0.603  0.00  0.00    -0.251 OA
BRANCH  13  15
ATOM     15  O   LIG    1        4.015   1.584  -0.258  0.00  0.00    -0.481 OA
ATOM     16  H   LIG    1        4.429   2.088  -0.931  0.00  0.00    +0.295 HD
ENDBRANCH  13  15
ENDBRANCH  12  13
ENDBRANCH   1  12
TORSDOF 7
