REMARK  Name = ZINC13586566
REMARK                            x       y       z     vdW  Elec       q    Type
REMARK                         _______ _______ _______ _____ _____    ______ ____
ROOT
ATOM      1  C   LIG    1        0.724  -7.304   1.284  0.00  0.00    -0.019 C 
ENDROOT
BRANCH   1   2
ATOM      2  C   LIG    1        0.095  -6.806  -0.019  0.00  0.00    -0.079 C 
BRANCH   2   6
ATOM      3  N   LIG    1        0.594  -2.768  -0.995  0.00  0.00    -0.333 N 
ATOM      4  C   LIG    1       -0.752  -3.336  -1.167  0.00  0.00    +0.086 C 
ATOM      5  C   LIG    1       -0.633  -4.862  -1.218  0.00  0.00    -0.060 C 
ATOM      6  N   LIG    1        0.077  -5.337  -0.024  0.00  0.00    +0.382 N 
ATOM      7  H   LIG    1       -0.398  -5.006   0.802  0.00  0.00    -0.082 HD
ATOM      8  C   LIG    1        1.456  -4.833  -0.029  0.00  0.00    -0.060 C 
ATOM      9  C   LIG    1        1.442  -3.309   0.078  0.00  0.00    +0.086 C 
BRANCH   3  15
ATOM     10  C   LIG    1        0.848  -0.411  -1.489  0.00  0.00    +0.029 A 
ATOM     11  C   LIG    1        1.315   0.597  -2.321  0.00  0.00    +0.016 A 
ATOM     12  C   LIG    1        1.979   0.275  -3.490  0.00  0.00    +0.001 A 
ATOM     13  C   LIG    1        2.180  -1.049  -3.834  0.00  0.00    +0.002 A 
ATOM     14  C   LIG    1        1.719  -2.060  -3.011  0.00  0.00    +0.024 A 
ATOM     15  C   LIG    1        1.057  -1.747  -1.833  0.00  0.00    +0.043 A 
BRANCH  10  17
ATOM     16  C   LIG    1       -0.022   1.810   0.012  0.00  0.00    +0.090 C 
ATOM     17  S   LIG    1        0.002  -0.004   0.002  0.00  0.00    -0.127 S 
ENDBRANCH  10  17
ENDBRANCH   3  15
ENDBRANCH   2   6
ENDBRANCH   1   2
BRANCH   1  18
ATOM     18  C   LIG    1        0.743  -8.834   1.289  0.00  0.00    -0.001 C 
BRANCH  18  19
ATOM     19  C   LIG    1        1.371  -9.332   2.592  0.00  0.00    +0.009 C 
BRANCH  19  20
ATOM     20  C   LIG    1        1.390 -10.862   2.598  0.00  0.00    +0.096 C 
BRANCH  20  21
ATOM     21  C   LIG    1        2.009 -11.352   3.881  0.00  0.00    +0.213 C 
ATOM     22  N   LIG    1        2.132 -12.675   4.108  0.00  0.00    -0.308 N 
ATOM     23  H   LIG    1        1.821 -13.312   3.445  0.00  0.00    +0.149 HD
ATOM     24  O   LIG    1        2.398 -10.556   4.710  0.00  0.00    -0.276 OA
BRANCH  22  25
ATOM     25  C   LIG    1        2.734 -13.152   5.355  0.00  0.00    +0.103 C 
ATOM     26  C   LIG    1        2.208 -14.552   5.665  0.00  0.00    +0.027 C 
ATOM     27  C   LIG    1        3.007 -15.118   6.845  0.00  0.00    +0.007 C 
ATOM     28  C   LIG    1        4.429 -15.408   6.369  0.00  0.00    +0.035 C 
ATOM     29  C   LIG    1        5.011 -14.204   5.677  0.00  0.00    -0.042 A 
ATOM     30  C   LIG    1        6.390 -14.155   5.516  0.00  0.00    +0.004 A 
ATOM     31  C   LIG    1        6.984 -13.084   4.885  0.00  0.00    +0.000 A 
ATOM     32  C   LIG    1        6.203 -12.047   4.411  0.00  0.00    +0.000 A 
ATOM     33  C   LIG    1        4.834 -12.092   4.573  0.00  0.00    +0.006 A 
ATOM     34  C   LIG    1        4.233 -13.170   5.208  0.00  0.00    -0.024 A 
ENDBRANCH  22  25
ENDBRANCH  20  21
ENDBRANCH  19  20
ENDBRANCH  18  19
ENDBRANCH   1  18
TORSDOF 9
