REMARK  Name = ZINC13584914
REMARK                            x       y       z     vdW  Elec       q    Type
REMARK                         _______ _______ _______ _____ _____    ______ ____
ROOT
ATOM      1  C   LIG    1       -1.121   1.861   0.017  0.00  0.00    +0.129 A 
ATOM      2  C   LIG    1       -0.013   1.076   0.008  0.00  0.00    +0.074 A 
ATOM      3  C   LIG    1        1.113   1.921   0.002  0.00  0.00    +0.095 A 
ATOM      4  N   LIG    1        0.692   3.168   0.012  0.00  0.00    -0.165 NA
ATOM      5  N   LIG    1       -0.709   3.159   0.025  0.00  0.00    -0.218 N 
ENDROOT
BRANCH   3   6
ATOM      6  C   LIG    1        2.531   1.481  -0.013  0.00  0.00    +0.002 A 
ATOM      7  C   LIG    1        2.842   0.123  -0.016  0.00  0.00    +0.010 A 
ATOM      8  C   LIG    1        4.162  -0.280  -0.036  0.00  0.00    +0.001 A 
ATOM      9  C   LIG    1        5.175   0.661  -0.040  0.00  0.00    +0.000 A 
ATOM     10  C   LIG    1        4.872   2.011  -0.032  0.00  0.00    +0.001 A 
ATOM     11  C   LIG    1        3.555   2.425  -0.018  0.00  0.00    +0.010 A 
ENDBRANCH   3   6
BRANCH   5  12
ATOM     12  C   LIG    1       -1.539   4.288   0.037  0.00  0.00    +0.067 A 
ATOM     13  C   LIG    1       -2.747   4.270  -0.646  0.00  0.00    +0.028 A 
ATOM     14  C   LIG    1       -3.566   5.382  -0.627  0.00  0.00    +0.002 A 
ATOM     15  C   LIG    1       -3.179   6.516   0.062  0.00  0.00    +0.000 A 
ATOM     16  C   LIG    1       -1.973   6.539   0.739  0.00  0.00    +0.002 A 
ATOM     17  C   LIG    1       -1.152   5.428   0.729  0.00  0.00    +0.028 A 
ENDBRANCH   5  12
BRANCH   1  19
ATOM     18  C   LIG    1       -2.711   0.098   0.016  0.00  0.00    +0.249 C 
ATOM     19  N   LIG    1       -2.443   1.419   0.021  0.00  0.00    -0.266 N 
ATOM     20  H   LIG    1       -3.170   2.061   0.027  0.00  0.00    +0.157 HD
ATOM     21  O   LIG    1       -1.800  -0.707   0.008  0.00  0.00    -0.270 OA
BRANCH  18  26
ATOM     22  C   LIG    1       -8.168  -1.729   0.031  0.00  0.00    +0.044 C 
ATOM     23  C   LIG    1       -6.739  -1.251   0.027  0.00  0.00    -0.050 A 
ATOM     24  C   LIG    1       -5.705  -2.170   0.019  0.00  0.00    +0.004 A 
ATOM     25  C   LIG    1       -4.394  -1.739   0.015  0.00  0.00    +0.013 A 
ATOM     26  C   LIG    1       -4.113  -0.371   0.020  0.00  0.00    +0.037 A 
ATOM     27  C   LIG    1       -5.161   0.551   0.034  0.00  0.00    +0.013 A 
ATOM     28  C   LIG    1       -6.467   0.106   0.032  0.00  0.00    +0.004 A 
ENDBRANCH  18  26
ENDBRANCH   1  19
TORSDOF 4
