REMARK  Name = ZINC13588784
REMARK                            x       y       z     vdW  Elec       q    Type
REMARK                         _______ _______ _______ _____ _____    ______ ____
ROOT
ATOM      1  C   LIG    1       -0.016   1.360   0.009  0.00  0.00    +0.001 A 
ATOM      2  C   LIG    1        1.170   2.083   0.002  0.00  0.00    +0.002 A 
ATOM      3  C   LIG    1        2.386   1.435  -0.013  0.00  0.00    +0.026 A 
ATOM      4  C   LIG    1        2.431   0.043  -0.021  0.00  0.00    +0.049 A 
ATOM      5  C   LIG    1        1.228  -0.686  -0.013  0.00  0.00    -0.001 A 
ATOM      6  C   LIG    1        1.258  -2.103  -0.021  0.00  0.00    +0.027 A 
ATOM      7  C   LIG    1        2.477  -2.749  -0.036  0.00  0.00    +0.082 A 
ATOM      8  C   LIG    1        3.710  -1.953  -0.044  0.00  0.00    +0.260 A 
ATOM      9  O   LIG    1        4.793  -2.511  -0.057  0.00  0.00    -0.267 OA
ATOM     10  N   LIG    1        3.647  -0.609  -0.036  0.00  0.00    -0.322 N 
ATOM     11  H   LIG    1        4.467  -0.091  -0.042  0.00  0.00    +0.169 HD
ATOM     12  C   LIG    1        0.002  -0.004   0.002  0.00  0.00    +0.010 A 
ENDROOT
BRANCH   7  13
ATOM     13  C   LIG    1        2.541  -4.223  -0.043  0.00  0.00    +0.145 A 
ATOM     14  N   LIG    1        3.694  -4.962  -0.052  0.00  0.00    -0.338 N 
ATOM     15  C   LIG    1        3.325  -6.294  -0.056  0.00  0.00    +0.066 A 
ATOM     16  C   LIG    1        4.032  -7.488  -0.066  0.00  0.00    +0.028 A 
ATOM     17  C   LIG    1        3.349  -8.686  -0.068  0.00  0.00    +0.002 A 
ATOM     18  C   LIG    1        1.961  -8.705  -0.061  0.00  0.00    +0.002 A 
ATOM     19  C   LIG    1        1.248  -7.540  -0.052  0.00  0.00    +0.030 A 
ATOM     20  C   LIG    1        1.919  -6.312  -0.049  0.00  0.00    +0.089 A 
ATOM     21  H   LIG    1        4.600  -4.615  -0.056  0.00  0.00    +0.167 HD
ATOM     22  N   LIG    1        1.501  -5.023  -0.036  0.00  0.00    -0.228 NA
ENDBRANCH   7  13
TORSDOF 1
