REMARK  Name = ZINC13642872
REMARK                            x       y       z     vdW  Elec       q    Type
REMARK                         _______ _______ _______ _____ _____    ______ ____
ROOT
ATOM      1  C   LIG    1       -3.806   2.399   0.146  0.00  0.00    +0.239 C 
ATOM      2  O   LIG    1       -3.822   3.614   0.140  0.00  0.00    -0.283 OA
ENDROOT
BRANCH   1   3
ATOM      3  C   LIG    1       -5.064   1.648   0.259  0.00  0.00    +0.102 A 
ATOM      4  C   LIG    1       -5.729   1.207  -0.896  0.00  0.00    +0.175 A 
ATOM      5  F   LIG    1       -5.213   1.472  -2.116  0.00  0.00    -0.202 F 
ATOM      6  C   LIG    1       -6.907   0.496  -0.781  0.00  0.00    +0.197 A 
ATOM      7  F   LIG    1       -7.545   0.065  -1.891  0.00  0.00    -0.199 F 
ATOM      8  C   LIG    1       -7.442   0.229   0.473  0.00  0.00    +0.199 A 
ATOM      9  F   LIG    1       -8.598  -0.462   0.577  0.00  0.00    -0.199 F 
ATOM     10  C   LIG    1       -6.794   0.667   1.620  0.00  0.00    +0.197 A 
ATOM     11  F   LIG    1       -7.322   0.402   2.835  0.00  0.00    -0.199 F 
ATOM     12  C   LIG    1       -5.611   1.374   1.522  0.00  0.00    +0.175 A 
ATOM     13  F   LIG    1       -4.982   1.800   2.639  0.00  0.00    -0.202 F 
ENDBRANCH   1   3
BRANCH   1  14
ATOM     14  C   LIG    1       -2.510   1.670   0.039  0.00  0.00    +0.236 C 
ATOM     15  O   LIG    1       -2.500   0.460  -0.052  0.00  0.00    -0.283 OA
BRANCH  14  16
ATOM     16  C   LIG    1       -1.242   2.418   0.042  0.00  0.00    +0.065 A 
ATOM     17  C   LIG    1       -0.624   2.750   1.254  0.00  0.00    +0.073 A 
ATOM     18 CL   LIG    1       -1.350   2.280   2.760  0.00  0.00    -0.081 Cl
ATOM     19  C   LIG    1        0.563   3.456   1.249  0.00  0.00    +0.080 A 
ATOM     20 CL   LIG    1        1.329   3.873   2.750  0.00  0.00    -0.080 Cl
ATOM     21  C   LIG    1        1.144   3.833   0.048  0.00  0.00    +0.080 A 
ATOM     22 CL   LIG    1        2.636   4.721   0.052  0.00  0.00    -0.080 Cl
ATOM     23  C   LIG    1        0.540   3.504  -1.156  0.00  0.00    +0.080 A 
ATOM     24 CL   LIG    1        1.279   3.981  -2.653  0.00  0.00    -0.080 Cl
ATOM     25  C   LIG    1       -0.645   2.798  -1.168  0.00  0.00    +0.073 A 
ATOM     26 CL   LIG    1       -1.399   2.388  -2.677  0.00  0.00    -0.081 Cl
ENDBRANCH  14  16
ENDBRANCH   1  14
TORSDOF 3
