REMARK  Name = ZINC13604416
REMARK                            x       y       z     vdW  Elec       q    Type
REMARK                         _______ _______ _______ _____ _____    ______ ____
ROOT
ATOM      1  N   LIG    1       -1.172   7.183  -4.313  0.00  0.00    -0.280 N 
ATOM      2  C   LIG    1       -0.189   8.129  -3.794  0.00  0.00    +0.113 C 
ATOM      3  C   LIG    1       -0.553   8.579  -2.379  0.00  0.00    +0.165 C 
ATOM      4  C   LIG    1       -0.146   7.561  -1.335  0.00  0.00    +0.165 C 
ATOM      5  C   LIG    1       -0.656   6.160  -1.588  0.00  0.00    +0.113 C 
ATOM      6  N   LIG    1       -1.938   6.172  -2.290  0.00  0.00    -0.280 N 
ATOM      7  C   LIG    1       -2.027   6.488  -3.591  0.00  0.00    +0.305 C 
ATOM      8  O   LIG    1       -3.022   6.083  -4.177  0.00  0.00    -0.252 OA
ENDROOT
BRANCH   3   9
ATOM      9  O   LIG    1        0.091   9.829  -2.098  0.00  0.00    -0.387 OA
ATOM     10  H   LIG    1       -0.095  10.177  -1.216  0.00  0.00    +0.210 HD
ENDBRANCH   3   9
BRANCH   4  11
ATOM     11  O   LIG    1       -0.654   7.997  -0.064  0.00  0.00    -0.387 OA
ATOM     12  H   LIG    1       -0.378   8.890   0.185  0.00  0.00    +0.210 HD
ENDBRANCH   4  11
BRANCH   1  13
ATOM     13  C   LIG    1       -1.237   7.025  -5.771  0.00  0.00    +0.110 C 
BRANCH  13  14
ATOM     14  C   LIG    1       -2.267   8.001  -6.344  0.00  0.00    +0.019 C 
BRANCH  14  16
ATOM     15  C   LIG    1       -3.365   8.812  -8.437  0.00  0.00    +0.004 C 
ATOM     16  C   LIG    1       -2.335   7.836  -7.864  0.00  0.00    -0.002 C 
ENDBRANCH  14  16
ENDBRANCH  13  14
ENDBRANCH   1  13
BRANCH   2  17
ATOM     17  C   LIG    1        1.212   7.530  -3.853  0.00  0.00    +0.060 C 
BRANCH  17  18
ATOM     18  C   LIG    1        1.619   7.346  -5.292  0.00  0.00    -0.046 A 
ATOM     19  C   LIG    1        1.504   6.104  -5.889  0.00  0.00    +0.004 A 
ATOM     20  C   LIG    1        1.873   5.936  -7.211  0.00  0.00    +0.000 A 
ATOM     21  C   LIG    1        2.367   7.007  -7.932  0.00  0.00    +0.000 A 
ATOM     22  C   LIG    1        2.487   8.247  -7.333  0.00  0.00    +0.000 A 
ATOM     23  C   LIG    1        2.114   8.416  -6.013  0.00  0.00    +0.004 A 
ENDBRANCH  17  18
ENDBRANCH   2  17
BRANCH   5  24
ATOM     24  C   LIG    1       -0.831   5.441  -0.244  0.00  0.00    +0.060 C 
BRANCH  24  25
ATOM     25  C   LIG    1        0.511   5.294   0.425  0.00  0.00    -0.046 A 
ATOM     26  C   LIG    1        0.910   6.208   1.382  0.00  0.00    +0.004 A 
ATOM     27  C   LIG    1        2.141   6.073   1.996  0.00  0.00    +0.000 A 
ATOM     28  C   LIG    1        2.973   5.023   1.653  0.00  0.00    +0.000 A 
ATOM     29  C   LIG    1        2.575   4.112   0.692  0.00  0.00    +0.000 A 
ATOM     30  C   LIG    1        1.342   4.244   0.083  0.00  0.00    +0.004 A 
ENDBRANCH  24  25
ENDBRANCH   5  24
BRANCH   6  31
ATOM     31  C   LIG    1       -3.160   5.825  -1.553  0.00  0.00    +0.110 C 
BRANCH  31  32
ATOM     32  C   LIG    1       -3.814   7.101  -1.021  0.00  0.00    +0.019 C 
BRANCH  32  33
ATOM     33  C   LIG    1       -5.087   6.739  -0.253  0.00  0.00    -0.002 C 
ATOM     34  C   LIG    1       -5.742   8.015   0.280  0.00  0.00    +0.004 C 
ENDBRANCH  32  33
ENDBRANCH  31  32
ENDBRANCH   6  31
TORSDOF 12
