REMARK  Name = ZINC13580432
REMARK                            x       y       z     vdW  Elec       q    Type
REMARK                         _______ _______ _______ _____ _____    ______ ____
ROOT
ATOM      1  C   LIG    1       -1.266  -0.763   0.010  0.00  0.00    +0.249 C 
ATOM      2  N   LIG    1       -1.244  -2.111   0.003  0.00  0.00    -0.265 N 
ATOM      3  H   LIG    1       -0.397  -2.582  -0.008  0.00  0.00    +0.157 HD
ATOM      4  O   LIG    1       -2.328  -0.172   0.023  0.00  0.00    -0.270 OA
ENDROOT
BRANCH   1  11
ATOM      5  C   LIG    1       -0.017   1.392   0.010  0.00  0.00    +0.014 A 
ATOM      6  C   LIG    1        1.170   2.095   0.002  0.00  0.00    +0.016 A 
ATOM      7  C   LIG    1        2.378   1.419  -0.013  0.00  0.00    +0.018 A 
ATOM      8 BR   LIG    1        4.000   2.390  -0.024  0.00  0.00    -0.050 Br
ATOM      9  C   LIG    1        2.403   0.034  -0.022  0.00  0.00    +0.016 A 
ATOM     10  C   LIG    1        1.224  -0.680  -0.014  0.00  0.00    +0.014 A 
ATOM     11  C   LIG    1        0.002  -0.004   0.002  0.00  0.00    +0.037 A 
ENDBRANCH   1  11
BRANCH   2  12
ATOM     12  C   LIG    1       -2.446  -2.830   0.010  0.00  0.00    +0.147 A 
ATOM     13  C   LIG    1       -3.738  -2.279   0.020  0.00  0.00    +0.068 A 
ATOM     14  C   LIG    1       -4.624  -3.300   0.025  0.00  0.00    +0.041 A 
ATOM     15  N   LIG    1       -3.926  -4.455   0.019  0.00  0.00    -0.280 N 
ATOM     16  H   LIG    1       -4.303  -5.349   0.020  0.00  0.00    +0.189 HD
ATOM     17  N   LIG    1       -2.562  -4.138   0.004  0.00  0.00    -0.158 NA
BRANCH  14  18
ATOM     18  C   LIG    1       -6.126  -3.171   0.036  0.00  0.00    +0.037 C 
ATOM     19  C   LIG    1       -6.921  -4.238   0.792  0.00  0.00    +0.010 C 
ATOM     20  C   LIG    1       -6.931  -4.217  -0.738  0.00  0.00    +0.010 C 
ENDBRANCH  14  18
ENDBRANCH   2  12
TORSDOF 3
