REMARK  Name = ZINC13741582
REMARK                            x       y       z     vdW  Elec       q    Type
REMARK                         _______ _______ _______ _____ _____    ______ ____
ROOT
ATOM      1  C   LIG    1       -2.953   3.141   4.399  0.00  0.00    +0.078 C 
ATOM      2  C   LIG    1       -3.925   2.097   4.961  0.00  0.00    +0.027 C 
ATOM      3  C   LIG    1       -4.824   1.619   3.818  0.00  0.00    +0.037 C 
ATOM      4  C   LIG    1       -3.993   1.194   2.636  0.00  0.00    -0.041 A 
ATOM      5  C   LIG    1       -4.596   0.386   1.679  0.00  0.00    +0.004 A 
ATOM      6  C   LIG    1       -3.896  -0.028   0.565  0.00  0.00    +0.004 A 
ATOM      7  C   LIG    1       -2.581   0.361   0.396  0.00  0.00    +0.046 A 
ATOM      8  C   LIG    1       -1.975   1.163   1.348  0.00  0.00    +0.124 A 
ATOM      9  C   LIG    1       -2.681   1.575   2.477  0.00  0.00    -0.001 A 
ATOM     10  C   LIG    1       -1.957   2.430   3.484  0.00  0.00    +0.061 C 
ENDROOT
BRANCH   1  13
ATOM     11  C   LIG    1       -2.040   5.521   7.255  0.00  0.00    +0.109 C 
ATOM     12  C   LIG    1       -2.778   4.854   6.123  0.00  0.00    +0.210 C 
ATOM     13  N   LIG    1       -2.235   3.790   5.499  0.00  0.00    -0.312 N 
ATOM     14  H   LIG    1       -1.369   3.454   5.779  0.00  0.00    +0.149 HD
ATOM     15  O   LIG    1       -3.861   5.274   5.774  0.00  0.00    -0.276 OA
ENDBRANCH   1  13
BRANCH   8  16
ATOM     16  O   LIG    1       -0.682   1.547   1.184  0.00  0.00    -0.495 OA
ATOM     17  C   LIG    1       -0.013   1.086   0.008  0.00  0.00    +0.277 C 
ENDBRANCH   8  16
TORSDOF 2
