REMARK  Name = ZINC13740975
REMARK                            x       y       z     vdW  Elec       q    Type
REMARK                         _______ _______ _______ _____ _____    ______ ____
ROOT
ATOM      1  C   LIG    1       -1.333   2.113   0.020  0.00  0.00    +0.264 C 
ATOM      2  C   LIG    1       -1.803   2.355  -1.395  0.00  0.00    +0.025 C 
ATOM      3  C   LIG    1       -2.983   1.724  -1.524  0.00  0.00    +0.072 C 
ATOM      4  C   LIG    1       -3.324   1.069  -0.250  0.00  0.00    +0.343 C 
ATOM      5  O   LIG    1       -4.330   0.419  -0.047  0.00  0.00    -0.245 OA
ATOM      6  O   LIG    1       -2.356   1.297   0.656  0.00  0.00    -0.421 OA
ENDROOT
BRANCH   3   7
ATOM      7  C   LIG    1       -3.812   1.694  -2.754  0.00  0.00    -0.007 A 
ATOM      8  C   LIG    1       -3.337   1.060  -3.901  0.00  0.00    +0.012 A 
ATOM      9  C   LIG    1       -4.108   1.033  -5.044  0.00  0.00    +0.050 A 
ATOM     10  C   LIG    1       -5.358   1.634  -5.057  0.00  0.00    +0.166 A 
ATOM     11  C   LIG    1       -5.838   2.269  -3.913  0.00  0.00    +0.167 A 
ATOM     12  O   LIG    1       -7.077   2.775  -4.183  0.00  0.00    -0.453 OA
ATOM     13  C   LIG    1       -7.521   2.092  -5.370  0.00  0.00    +0.466 C 
ATOM     14  O   LIG    1       -6.297   1.744  -6.042  0.00  0.00    -0.453 OA
ATOM     15  C   LIG    1       -5.070   2.294  -2.763  0.00  0.00    +0.058 A 
ENDBRANCH   3   7
BRANCH   1  19
ATOM     16  C   LIG    1        2.399   0.030  -0.021  0.00  0.00    +0.120 A 
ATOM     17  C   LIG    1        1.207  -0.680  -0.014  0.00  0.00    +0.046 A 
ATOM     18  C   LIG    1        0.002  -0.004   0.002  0.00  0.00    +0.014 A 
ATOM     19  C   LIG    1       -0.017   1.378   0.010  0.00  0.00    +0.028 A 
ATOM     20  C   LIG    1        1.170   2.088   0.002  0.00  0.00    +0.014 A 
ATOM     21  C   LIG    1        2.377   1.417  -0.013  0.00  0.00    +0.046 A 
BRANCH  16  23
ATOM     22  C   LIG    1        4.772   0.164  -0.044  0.00  0.00    +0.277 C 
ATOM     23  O   LIG    1        3.586  -0.632  -0.037  0.00  0.00    -0.495 OA
ENDBRANCH  16  23
ENDBRANCH   1  19
BRANCH   1  24
ATOM     24  O   LIG    1       -1.196   3.356   0.711  0.00  0.00    -0.348 OA
ATOM     25  H   LIG    1       -0.908   3.265   1.630  0.00  0.00    +0.215 HD
ENDBRANCH   1  24
BRANCH   2  26
ATOM     26  C   LIG    1       -1.087   3.149  -2.457  0.00  0.00    +0.073 C 
BRANCH  26  27
ATOM     27  C   LIG    1       -1.429   4.609  -2.307  0.00  0.00    -0.036 A 
ATOM     28  C   LIG    1       -2.516   5.136  -2.980  0.00  0.00    +0.053 A 
ATOM     29  C   LIG    1       -2.837   6.477  -2.841  0.00  0.00    +0.165 A 
ATOM     30  C   LIG    1       -2.057   7.296  -2.032  0.00  0.00    +0.204 A 
ATOM     31  C   LIG    1       -0.962   6.764  -1.361  0.00  0.00    +0.165 A 
ATOM     32  C   LIG    1       -0.651   5.420  -1.502  0.00  0.00    +0.053 A 
BRANCH  29  33
ATOM     33  O   LIG    1       -3.910   6.993  -3.498  0.00  0.00    -0.491 OA
ATOM     34  C   LIG    1       -4.665   6.093  -4.312  0.00  0.00    +0.277 C 
ENDBRANCH  29  33
BRANCH  30  35
ATOM     35  O   LIG    1       -2.366   8.614  -1.896  0.00  0.00    -0.488 OA
ATOM     36  C   LIG    1       -1.770   9.520  -2.827  0.00  0.00    +0.277 C 
ENDBRANCH  30  35
BRANCH  31  37
ATOM     37  O   LIG    1       -0.196   7.561  -0.569  0.00  0.00    -0.491 OA
ATOM     38  C   LIG    1        0.914   6.947   0.089  0.00  0.00    +0.277 C 
ENDBRANCH  31  37
ENDBRANCH  26  27
ENDBRANCH   2  26
TORSDOF 9
