REMARK  Name = ZINC13556374
REMARK                            x       y       z     vdW  Elec       q    Type
REMARK                         _______ _______ _______ _____ _____    ______ ____
ROOT
ATOM      1  C   LIG    1       -6.021  -0.968   0.057  0.00  0.00    +0.223 C 
ATOM      2  C   LIG    1       -6.459  -1.245  -1.383  0.00  0.00    +0.095 C 
ATOM      3  C   LIG    1       -6.739   0.081  -2.095  0.00  0.00    +0.168 C 
ATOM      4  C   LIG    1       -7.851   0.830  -1.358  0.00  0.00    +0.081 C 
ATOM      5  C   LIG    1       -7.414   1.106   0.082  0.00  0.00    +0.162 C 
ATOM      6  C   LIG    1       -7.134  -0.219   0.793  0.00  0.00    +0.246 C 
ENDROOT
BRANCH   5   7
ATOM      7  O   LIG    1       -8.453   1.806   0.769  0.00  0.00    -0.388 OA
ATOM      8  H   LIG    1       -8.683   2.657   0.373  0.00  0.00    +0.210 HD
ENDBRANCH   5   7
BRANCH   3   9
ATOM      9  C   LIG    1       -7.170  -0.192  -3.513  0.00  0.00    +0.337 C 
ATOM     10  O   LIG    1       -8.167  -0.859  -3.729  0.00  0.00    -0.248 OA
BRANCH   9  11
ATOM     11  O   LIG    1       -6.521   0.255  -4.443  0.00  0.00    -0.479 OA
ATOM     12  H   LIG    1       -5.755   0.767  -4.277  0.00  0.00    +0.295 HD
ENDBRANCH   9  11
ENDBRANCH   3   9
BRANCH   3  13
ATOM     13  O   LIG    1       -5.553   0.877  -2.102  0.00  0.00    -0.377 OA
ATOM     14  H   LIG    1       -5.657   1.734  -2.538  0.00  0.00    +0.211 HD
ENDBRANCH   3  13
BRANCH   6  15
ATOM     15  O   LIG    1       -6.725   0.039   2.138  0.00  0.00    -0.452 OA
BRANCH  15  16
ATOM     16  C   LIG    1       -7.696   0.100   3.072  0.00  0.00    +0.332 C 
ATOM     17  O   LIG    1       -8.859  -0.062   2.753  0.00  0.00    -0.246 OA
BRANCH  16  18
ATOM     18  C   LIG    1       -7.362   0.353   4.427  0.00  0.00    +0.092 C 
ATOM     19  C   LIG    1       -8.334   0.413   5.362  0.00  0.00    +0.015 C 
BRANCH  19  20
ATOM     20  C   LIG    1       -7.988   0.676   6.766  0.00  0.00    -0.021 A 
ATOM     21  C   LIG    1       -6.651   0.868   7.135  0.00  0.00    +0.012 A 
ATOM     22  C   LIG    1       -6.329   1.113   8.452  0.00  0.00    +0.050 A 
ATOM     23  C   LIG    1       -7.327   1.171   9.416  0.00  0.00    +0.158 A 
ATOM     24  C   LIG    1       -8.661   0.980   9.056  0.00  0.00    +0.159 A 
ATOM     25  C   LIG    1       -8.994   0.739   7.738  0.00  0.00    +0.057 A 
BRANCH  24  26
ATOM     26  O   LIG    1       -9.636   1.037  10.003  0.00  0.00    -0.503 OA
ATOM     27  H   LIG    1      -10.003   1.921  10.137  0.00  0.00    +0.292 HD
ENDBRANCH  24  26
BRANCH  23  28
ATOM     28  O   LIG    1       -7.004   1.413  10.712  0.00  0.00    -0.503 OA
ATOM     29  H   LIG    1       -6.996   2.350  10.947  0.00  0.00    +0.292 HD
ENDBRANCH  23  28
ENDBRANCH  19  20
ENDBRANCH  16  18
ENDBRANCH  15  16
ENDBRANCH   6  15
BRANCH   1  30
ATOM     30  O   LIG    1       -4.835  -0.172   0.049  0.00  0.00    -0.454 OA
BRANCH  30  31
ATOM     31  C   LIG    1       -3.656  -0.828   0.034  0.00  0.00    +0.332 C 
ATOM     32  O   LIG    1       -3.638  -2.045   0.027  0.00  0.00    -0.246 OA
BRANCH  31  34
ATOM     33  C   LIG    1       -1.259  -0.758   0.011  0.00  0.00    +0.015 C 
ATOM     34  C   LIG    1       -2.439  -0.101   0.026  0.00  0.00    +0.092 C 
BRANCH  33  40
ATOM     35  C   LIG    1       -0.017   1.395   0.010  0.00  0.00    +0.012 A 
ATOM     36  C   LIG    1        1.167   2.100   0.002  0.00  0.00    +0.050 A 
ATOM     37  C   LIG    1        2.380   1.425  -0.013  0.00  0.00    +0.158 A 
ATOM     38  C   LIG    1        2.408   0.031  -0.021  0.00  0.00    +0.159 A 
ATOM     39  C   LIG    1        1.226  -0.683  -0.014  0.00  0.00    +0.057 A 
ATOM     40  C   LIG    1        0.002  -0.004   0.002  0.00  0.00    -0.021 A 
BRANCH  38  41
ATOM     41  O   LIG    1        3.599  -0.626  -0.037  0.00  0.00    -0.503 OA
ATOM     42  H   LIG    1        3.952  -0.821   0.842  0.00  0.00    +0.292 HD
ENDBRANCH  38  41
BRANCH  37  43
ATOM     43  O   LIG    1        3.544   2.125  -0.020  0.00  0.00    -0.503 OA
ATOM     44  H   LIG    1        3.890   2.323   0.861  0.00  0.00    +0.292 HD
ENDBRANCH  37  43
ENDBRANCH  33  40
ENDBRANCH  31  34
ENDBRANCH  30  31
ENDBRANCH   1  30
TORSDOF 16
