REMARK  Name = ZINC13600452
REMARK                            x       y       z     vdW  Elec       q    Type
REMARK                         _______ _______ _______ _____ _____    ______ ____
ROOT
ATOM      1  N   LIG    1        3.464   1.201   0.569  0.00  0.00    -0.276 N 
ATOM      2  C   LIG    1        2.077   1.196   0.554  0.00  0.00    +0.169 A 
ATOM      3  C   LIG    1        1.406   0.062   1.006  0.00  0.00    +0.152 A 
ATOM      4  N   LIG    1        0.055   0.330   0.882  0.00  0.00    -0.322 N 
ATOM      5  C   LIG    1       -1.050  -0.567   1.233  0.00  0.00    +0.151 C 
ATOM      6  C   LIG    1       -0.051   1.591   0.370  0.00  0.00    +0.136 A 
ATOM      7  C   LIG    1        2.154  -1.042   1.462  0.00  0.00    +0.282 A 
ATOM      8  N   LIG    1        3.501  -0.976   1.451  0.00  0.00    -0.259 N 
ATOM      9  O   LIG    1        1.589  -2.045   1.863  0.00  0.00    -0.265 OA
ATOM     10  N   LIG    1        1.161   2.087   0.183  0.00  0.00    -0.210 NA
ATOM     11  C   LIG    1        4.138   0.123   1.013  0.00  0.00    +0.334 A 
ATOM     12  O   LIG    1        5.353   0.146   1.018  0.00  0.00    -0.246 OA
ENDROOT
BRANCH   6  13
ATOM     13  C   LIG    1       -1.306   2.283   0.070  0.00  0.00    +0.047 C 
ATOM     14  C   LIG    1       -1.285   3.473  -0.564  0.00  0.00    +0.011 C 
BRANCH  14  15
ATOM     15  C   LIG    1       -0.037   3.963  -1.168  0.00  0.00    -0.021 A 
ATOM     16  C   LIG    1        0.762   3.100  -1.925  0.00  0.00    +0.012 A 
ATOM     17  C   LIG    1        1.931   3.562  -2.491  0.00  0.00    +0.050 A 
ATOM     18  C   LIG    1        2.318   4.883  -2.311  0.00  0.00    +0.162 A 
ATOM     19  C   LIG    1        1.528   5.749  -1.557  0.00  0.00    +0.162 A 
ATOM     20  C   LIG    1        0.352   5.295  -0.991  0.00  0.00    +0.057 A 
BRANCH  18  21
ATOM     21  O   LIG    1        3.472   5.332  -2.871  0.00  0.00    -0.491 OA
ATOM     22  C   LIG    1        4.177   4.426  -3.721  0.00  0.00    +0.277 C 
ENDBRANCH  18  21
BRANCH  19  23
ATOM     23  O   LIG    1        1.912   7.042  -1.384  0.00  0.00    -0.491 OA
ATOM     24  C   LIG    1        1.054   7.873  -0.600  0.00  0.00    +0.277 C 
ENDBRANCH  19  23
ENDBRANCH  14  15
ENDBRANCH   6  13
BRANCH   1  25
ATOM     25  C   LIG    1        4.196   2.380   0.100  0.00  0.00    +0.128 C 
BRANCH  25  27
ATOM     26  C   LIG    1        5.190   4.566   0.790  0.00  0.00    +0.005 C 
ATOM     27  C   LIG    1        4.533   3.278   1.292  0.00  0.00    +0.018 C 
ENDBRANCH  25  27
ENDBRANCH   1  25
BRANCH   8  28
ATOM     28  C   LIG    1        4.283  -2.122   1.924  0.00  0.00    +0.130 C 
BRANCH  28  29
ATOM     29  C   LIG    1        4.539  -1.979   3.426  0.00  0.00    +0.018 C 
ATOM     30  C   LIG    1        5.356  -3.175   3.920  0.00  0.00    +0.005 C 
ENDBRANCH  28  29
ENDBRANCH   8  28
TORSDOF 8
