REMARK  Name = ZINC13643827
REMARK                            x       y       z     vdW  Elec       q    Type
REMARK                         _______ _______ _______ _____ _____    ______ ____
ROOT
ATOM      1  C   LIG    1       -0.017   1.385   0.010  0.00  0.00    +0.000 A 
ATOM      2  C   LIG    1        1.148   2.125   0.003  0.00  0.00    +0.000 A 
ATOM      3  C   LIG    1        2.397   1.516  -0.013  0.00  0.00    +0.004 A 
ATOM      4  C   LIG    1        2.420   0.134  -0.021  0.00  0.00    -0.043 A 
ATOM      5  C   LIG    1        1.243  -0.613  -0.013  0.00  0.00    -0.043 A 
ATOM      6  C   LIG    1        1.597  -2.081  -0.023  0.00  0.00    +0.003 C 
ATOM      7  C   LIG    1        3.015  -2.096   0.628  0.00  0.00    +0.012 C 
ATOM      8  C   LIG    1        1.792  -2.497  -1.495  0.00  0.00    -0.074 C 
ATOM      9  N   LIG    1        2.576  -1.440  -2.176  0.00  0.00    +0.380 N 
ATOM     10  H   LIG    1        2.748  -1.722  -3.129  0.00  0.00    -0.086 HD
ATOM     11  H   LIG    1        2.036  -0.588  -2.177  0.00  0.00    -0.086 HD
ATOM     12  C   LIG    1        3.860  -1.193  -1.509  0.00  0.00    -0.074 C 
ATOM     13  C   LIG    1        3.598  -0.811  -0.038  0.00  0.00    +0.003 C 
ATOM     14  C   LIG    1        0.002  -0.004   0.002  0.00  0.00    +0.004 A 
ENDROOT
TORSDOF 0
