REMARK  Name = ZINC13684672
REMARK                            x       y       z     vdW  Elec       q    Type
REMARK                         _______ _______ _______ _____ _____    ______ ____
ROOT
ATOM      1  C   LIG    1       -4.813  -4.225  -0.069  0.00  0.00    +0.135 C 
ATOM      2  S   LIG    1       -3.322  -5.066  -0.081  0.00  0.00    -0.019 S 
ENDROOT
BRANCH   1   3
ATOM      3  N   LIG    1       -4.829  -2.881   0.034  0.00  0.00    -0.297 N 
ATOM      4  H   LIG    1       -5.673  -2.411   0.121  0.00  0.00    +0.154 HD
BRANCH   3   8
ATOM      5  C   LIG    1       -1.261  -0.752  -0.024  0.00  0.00    +0.017 A 
ATOM      6  C   LIG    1       -1.458  -1.819  -0.911  0.00  0.00    +0.013 A 
ATOM      7  C   LIG    1       -2.632  -2.516  -0.888  0.00  0.00    +0.024 A 
ATOM      8  C   LIG    1       -3.633  -2.168   0.014  0.00  0.00    +0.033 A 
ATOM      9  C   LIG    1       -3.443  -1.109   0.897  0.00  0.00    +0.024 A 
ATOM     10  C   LIG    1       -2.269  -0.410   0.886  0.00  0.00    +0.013 A 
BRANCH   5  12
ATOM     11  C   LIG    1        1.082  -0.370  -1.026  0.00  0.00    +0.091 C 
ATOM     12  C   LIG    1       -0.001   0.000  -0.045  0.00  0.00    +0.160 C 
ATOM     13  O   LIG    1        0.169   0.920   0.727  0.00  0.00    -0.292 OA
ENDBRANCH   5  12
ENDBRANCH   3   8
ENDBRANCH   1   3
BRANCH   1  14
ATOM     14  N   LIG    1       -5.972  -4.907  -0.163  0.00  0.00    -0.326 N 
ATOM     15  H   LIG    1       -6.817  -4.431  -0.156  0.00  0.00    +0.148 HD
BRANCH  14  16
ATOM     16  C   LIG    1       -5.955  -6.368  -0.275  0.00  0.00    +0.105 C 
BRANCH  16  17
ATOM     17  C   LIG    1       -7.391  -6.889  -0.366  0.00  0.00    +0.040 C 
BRANCH  17  18
ATOM     18  C   LIG    1       -7.374  -8.414  -0.483  0.00  0.00    +0.124 C 
BRANCH  18  19
ATOM     19  N   LIG    1       -8.749  -8.913  -0.570  0.00  0.00    -0.337 N 
ATOM     20  C   LIG    1       -9.552  -9.269   0.479  0.00  0.00    +0.106 A 
ATOM     21  C   LIG    1      -10.726  -9.668  -0.046  0.00  0.00    +0.130 A 
ATOM     22  N   LIG    1      -10.642  -9.558  -1.380  0.00  0.00    -0.244 NA
ATOM     23  C   LIG    1       -9.462  -9.102  -1.701  0.00  0.00    +0.199 A 
ENDBRANCH  18  19
ENDBRANCH  17  18
ENDBRANCH  16  17
ENDBRANCH  14  16
ENDBRANCH   1  14
TORSDOF 8
