REMARK  Name = ZINC13586321
REMARK                            x       y       z     vdW  Elec       q    Type
REMARK                         _______ _______ _______ _____ _____    ______ ____
ROOT
ATOM      1  C   LIG    1        0.002   1.384  -0.391  0.00  0.00    +0.046 A 
ATOM      2  C   LIG    1        1.163   2.095  -0.296  0.00  0.00    +0.016 A 
ATOM      3  C   LIG    1        2.379   1.424  -0.151  0.00  0.00    +0.028 A 
ATOM      4  C   LIG    1        2.404   0.018  -0.103  0.00  0.00    +0.070 A 
ATOM      5  N   LIG    1        3.716  -0.354   0.043  0.00  0.00    -0.276 N 
ATOM      6  N   LIG    1        4.518   0.791   0.087  0.00  0.00    -0.173 NA
ATOM      7  H   LIG    1        4.037  -1.267   0.105  0.00  0.00    +0.189 HD
ATOM      8  C   LIG    1        1.210  -0.692  -0.201  0.00  0.00    +0.073 A 
ATOM      9  C   LIG    1        3.773   1.864  -0.024  0.00  0.00    +0.104 A 
ATOM     10  C   LIG    1        0.018  -0.009  -0.344  0.00  0.00    +0.119 A 
ENDROOT
BRANCH   9  11
ATOM     11  C   LIG    1        4.252   3.266  -0.021  0.00  0.00    +0.044 A 
ATOM     12  C   LIG    1        3.614   4.221   0.769  0.00  0.00    +0.017 A 
ATOM     13  C   LIG    1        4.062   5.526   0.770  0.00  0.00    +0.046 A 
ATOM     14  C   LIG    1        5.147   5.892  -0.015  0.00  0.00    +0.120 A 
ATOM     15  C   LIG    1        5.788   4.948  -0.804  0.00  0.00    +0.091 A 
ATOM     16  C   LIG    1        5.349   3.635  -0.807  0.00  0.00    +0.130 A 
BRANCH  14  17
ATOM     17  O   LIG    1        5.583   7.179  -0.011  0.00  0.00    -0.507 OA
ATOM     18  H   LIG    1        6.256   7.364   0.659  0.00  0.00    +0.292 HD
ENDBRANCH  14  17
BRANCH  16  19
ATOM     19  O   LIG    1        5.978   2.708  -1.575  0.00  0.00    -0.506 OA
ATOM     20  H   LIG    1        5.617   2.626  -2.469  0.00  0.00    +0.292 HD
ENDBRANCH  16  19
ENDBRANCH   9  11
BRANCH  10  21
ATOM     21  O   LIG    1       -1.148  -0.701  -0.439  0.00  0.00    -0.507 OA
ATOM     22  H   LIG    1       -1.397  -0.929  -1.345  0.00  0.00    +0.292 HD
ENDBRANCH  10  21
TORSDOF 4
