REMARK  Name = ZINC13741159
REMARK                            x       y       z     vdW  Elec       q    Type
REMARK                         _______ _______ _______ _____ _____    ______ ____
ROOT
ATOM      1  C   LIG    1       -0.013   1.086   0.008  0.00  0.00    +0.016 C 
ATOM      2  C   LIG    1       -0.731   1.580   1.266  0.00  0.00    -0.080 C 
ATOM      3  N   LIG    1       -0.777   3.055   1.265  0.00  0.00    +0.379 N 
ATOM      4  H   LIG    1       -1.226   3.380   2.130  0.00  0.00    -0.086 HD
ATOM      5  H   LIG    1        0.180   3.424   1.218  0.00  0.00    -0.086 HD
ATOM      6  C   LIG    1       -1.545   3.547   0.104  0.00  0.00    -0.080 C 
ATOM      7  C   LIG    1       -0.852   3.117  -1.191  0.00  0.00    +0.016 C 
ATOM      8  C   LIG    1       -0.753   1.593  -1.228  0.00  0.00    +0.073 C 
ATOM      9  C   LIG    1       -0.012   1.148  -2.501  0.00  0.00    +0.111 C 
ATOM     10  C   LIG    1       -1.040   0.320  -3.264  0.00  0.00    +0.161 C 
ATOM     11  C   LIG    1       -2.362   0.809  -2.682  0.00  0.00    +0.234 C 
ATOM     12  O   LIG    1       -0.853  -0.514  -4.117  0.00  0.00    -0.295 OA
ATOM     13  O   LIG    1       -2.067   1.018  -1.283  0.00  0.00    -0.366 OA
ENDROOT
TORSDOF 0
