REMARK  Name = ZINC13679488
REMARK                            x       y       z     vdW  Elec       q    Type
REMARK                         _______ _______ _______ _____ _____    ______ ____
ROOT
ATOM      1  C   LIG    1        1.268  -2.144  -0.023  0.00  0.00    +0.158 A 
ATOM      2  N   LIG    1        2.407  -2.903  -0.034  0.00  0.00    -0.337 N 
ATOM      3  C   LIG    1        2.017  -4.226  -0.040  0.00  0.00    +0.068 A 
ATOM      4  C   LIG    1        2.702  -5.434  -0.051  0.00  0.00    +0.047 A 
ATOM      5  C   LIG    1        1.997  -6.620  -0.054  0.00  0.00    +0.043 A 
ATOM      6 CL   LIG    1        2.852  -8.130  -0.069  0.00  0.00    -0.083 Cl
ATOM      7  C   LIG    1        0.608  -6.613  -0.047  0.00  0.00    +0.022 A 
ATOM      8  C   LIG    1       -0.083  -5.436  -0.036  0.00  0.00    +0.031 A 
ATOM      9  C   LIG    1        0.610  -4.220  -0.033  0.00  0.00    +0.090 A 
ATOM     10  H   LIG    1        3.319  -2.572  -0.036  0.00  0.00    +0.167 HD
ATOM     11  N   LIG    1        0.216  -2.924  -0.017  0.00  0.00    -0.226 NA
ENDROOT
BRANCH   1  16
ATOM     12  C   LIG    1       -0.017   1.380   0.010  0.00  0.00    +0.004 A 
ATOM     13  C   LIG    1        1.193   2.059   0.002  0.00  0.00    +0.020 A 
ATOM     14  C   LIG    1        2.375   1.340  -0.013  0.00  0.00    +0.111 A 
ATOM     15  N   LIG    1        2.366   0.023  -0.021  0.00  0.00    -0.252 NA
ATOM     16  C   LIG    1        1.230  -0.665  -0.014  0.00  0.00    +0.106 A 
ATOM     17  C   LIG    1        0.002  -0.004   0.002  0.00  0.00    +0.031 A 
ENDBRANCH   1  16
TORSDOF 1
