REMARK  Name = ZINC13602366
REMARK                            x       y       z     vdW  Elec       q    Type
REMARK                         _______ _______ _______ _____ _____    ______ ____
ROOT
ATOM      1  S   LIG    1        0.058  -1.507   3.638  0.00  0.00    +0.075 S 
ATOM      2  O   LIG    1        1.312  -2.170   3.554  0.00  0.00    -0.150 OA
ATOM      3  O   LIG    1       -1.178  -2.205   3.578  0.00  0.00    -0.150 OA
ENDROOT
BRANCH   1   4
ATOM      4  C   LIG    1        0.060  -0.616   5.158  0.00  0.00    +0.109 A 
ATOM      5  C   LIG    1        1.258  -0.244   5.739  0.00  0.00    +0.032 A 
ATOM      6  C   LIG    1        1.263   0.454   6.930  0.00  0.00    +0.047 A 
ATOM      7  C   LIG    1        0.063   0.784   7.544  0.00  0.00    +0.117 A 
ATOM      8  C   LIG    1       -1.138   0.411   6.959  0.00  0.00    +0.047 A 
ATOM      9  C   LIG    1       -1.137  -0.283   5.764  0.00  0.00    +0.032 A 
BRANCH   7  10
ATOM     10  O   LIG    1        0.064   1.471   8.717  0.00  0.00    -0.507 OA
ATOM     11  H   LIG    1        0.046   2.432   8.610  0.00  0.00    +0.292 HD
ENDBRANCH   7  10
ENDBRANCH   1   4
BRANCH   1  12
ATOM     12  N   LIG    1        0.030  -0.391   2.415  0.00  0.00    -0.183 N 
ATOM     13  H   LIG    1        0.019   0.571   2.627  0.00  0.00    +0.177 HD
BRANCH  12  20
ATOM     14  C   LIG    1       -0.018   1.503   0.010  0.00  0.00    +0.051 C 
ATOM     15  C   LIG    1        0.002  -0.004   0.002  0.00  0.00    +0.035 A 
ATOM     16  C   LIG    1        0.008  -0.821  -1.136  0.00  0.00    +0.085 A 
ATOM     17  C   LIG    1       -0.006  -0.344  -2.566  0.00  0.00    +0.069 C 
ATOM     18  N   LIG    1        0.028  -2.066  -0.745  0.00  0.00    -0.081 NA
ATOM     19  O   LIG    1        0.035  -2.083   0.671  0.00  0.00    -0.338 OA
ATOM     20  C   LIG    1        0.024  -0.808   1.097  0.00  0.00    +0.240 A 
ENDBRANCH  12  20
ENDBRANCH   1  12
TORSDOF 4
