REMARK  Name = ZINC13683136
REMARK                            x       y       z     vdW  Elec       q    Type
REMARK                         _______ _______ _______ _____ _____    ______ ____
ROOT
ATOM      1  N   LIG    1       -0.704   1.975   1.216  0.00  0.00    -0.227 N 
ATOM      2  C   LIG    1       -2.030   2.177   1.163  0.00  0.00    +0.254 C 
ATOM      3  C   LIG    1       -2.785   2.647   2.340  0.00  0.00    +0.048 A 
ATOM      4  C   LIG    1       -4.158   2.849   2.281  0.00  0.00    +0.014 A 
ATOM      5  C   LIG    1       -4.836   3.296   3.402  0.00  0.00    +0.001 A 
ATOM      6  C   LIG    1       -4.160   3.543   4.584  0.00  0.00    +0.001 A 
ATOM      7  C   LIG    1       -2.792   3.348   4.663  0.00  0.00    +0.012 A 
ATOM      8  C   LIG    1       -2.098   2.900   3.546  0.00  0.00    +0.039 A 
ATOM      9  C   LIG    1       -0.638   2.676   3.578  0.00  0.00    +0.249 C 
ATOM     10  O   LIG    1        0.004   2.877   4.587  0.00  0.00    -0.282 OA
ATOM     11  O   LIG    1       -2.622   1.963   0.123  0.00  0.00    -0.270 OA
ATOM     12  C   LIG    1        0.022   2.193   2.325  0.00  0.00    +0.294 C 
ATOM     13  O   LIG    1        1.220   1.997   2.310  0.00  0.00    -0.266 OA
ENDROOT
BRANCH   1  14
ATOM     14  C   LIG    1       -0.018   1.503   0.010  0.00  0.00    +0.152 C 
BRANCH  14  18
ATOM     15  C   LIG    1        0.040  -2.770  -0.013  0.00  0.00    +0.120 A 
ATOM     16  C   LIG    1       -1.015  -2.086  -0.600  0.00  0.00    +0.046 A 
ATOM     17  C   LIG    1       -1.032  -0.705  -0.591  0.00  0.00    +0.009 A 
ATOM     18  C   LIG    1        0.002  -0.004   0.002  0.00  0.00    -0.029 A 
ATOM     19  C   LIG    1        1.057  -0.683   0.582  0.00  0.00    +0.009 A 
ATOM     20  C   LIG    1        1.076  -2.064   0.581  0.00  0.00    +0.046 A 
BRANCH  15  22
ATOM     21  C   LIG    1        1.175  -4.766   0.602  0.00  0.00    +0.277 C 
ATOM     22  O   LIG    1        0.058  -4.129  -0.020  0.00  0.00    -0.495 OA
ENDBRANCH  15  22
ENDBRANCH  14  18
ENDBRANCH   1  14
TORSDOF 3
