REMARK  Name = ZINC13645999
REMARK                            x       y       z     vdW  Elec       q    Type
REMARK                         _______ _______ _______ _____ _____    ______ ____
ROOT
ATOM      1  C   LIG    1       -0.022  -0.200  -0.242  0.00  0.00    -0.050 A 
ATOM      2  C   LIG    1        1.179  -0.879  -0.178  0.00  0.00    +0.003 A 
ATOM      3  C   LIG    1        2.369  -0.178  -0.101  0.00  0.00    +0.000 A 
ATOM      4  C   LIG    1        2.361   1.205  -0.086  0.00  0.00    +0.001 A 
ATOM      5  C   LIG    1        1.164   1.891  -0.149  0.00  0.00    +0.015 A 
ATOM      6  C   LIG    1       -0.033   1.190  -0.228  0.00  0.00    +0.014 A 
ENDROOT
BRANCH   1   7
ATOM      7  C   LIG    1       -1.317  -0.964  -0.326  0.00  0.00    -0.043 C 
BRANCH   7   9
ATOM      8  C   LIG    1       -1.024  -1.891  -2.543  0.00  0.00    -0.096 C 
ATOM      9  N   LIG    1       -1.796  -0.933  -1.724  0.00  0.00    +0.379 N 
ATOM     10  H   LIG    1       -1.661   0.012  -2.102  0.00  0.00    -0.082 HD
ATOM     11  C   LIG    1       -3.234  -1.270  -1.774  0.00  0.00    -0.096 C 
ENDBRANCH   7   9
ENDBRANCH   1   7
BRANCH   6  12
ATOM     12  S   LIG    1       -1.562   2.061  -0.316  0.00  0.00    -0.087 S 
BRANCH  12  13
ATOM     13  C   LIG    1       -2.226   1.923   1.311  0.00  0.00    +0.033 A 
ATOM     14  C   LIG    1       -1.478   1.335   2.320  0.00  0.00    +0.017 A 
ATOM     15  C   LIG    1       -1.999   1.231   3.596  0.00  0.00    +0.001 A 
ATOM     16  C   LIG    1       -3.269   1.704   3.869  0.00  0.00    +0.002 A 
ATOM     17  C   LIG    1       -4.024   2.288   2.868  0.00  0.00    +0.024 A 
ATOM     18  C   LIG    1       -3.508   2.400   1.586  0.00  0.00    +0.038 A 
BRANCH  18  19
ATOM     19  N   LIG    1       -4.271   2.990   0.571  0.00  0.00    -0.357 N 
ATOM     20  H   LIG    1       -5.162   3.321   0.764  0.00  0.00    +0.142 HD
ATOM     21  H   LIG    1       -3.908   3.067  -0.325  0.00  0.00    +0.142 HD
ENDBRANCH  18  19
ENDBRANCH  12  13
ENDBRANCH   6  12
TORSDOF 5
