REMARK  Name = ZINC13686340
REMARK                            x       y       z     vdW  Elec       q    Type
REMARK                         _______ _______ _______ _____ _____    ______ ____
ROOT
ATOM      1  C   LIG    1       -0.016   1.343   0.009  0.00  0.00    +0.136 A 
ATOM      2  C   LIG    1        1.252   1.820  -0.000  0.00  0.00    +0.058 A 
ATOM      3  C   LIG    1        2.127   0.646  -0.015  0.00  0.00    +0.024 A 
ATOM      4  C   LIG    1        3.512   0.466  -0.029  0.00  0.00    +0.057 A 
ATOM      5  C   LIG    1        4.032  -0.814  -0.042  0.00  0.00    +0.118 A 
ATOM      6  C   LIG    1        3.180  -1.915  -0.039  0.00  0.00    +0.049 A 
ATOM      7  C   LIG    1        1.813  -1.746  -0.025  0.00  0.00    +0.050 A 
ATOM      8  C   LIG    1        1.270  -0.468  -0.013  0.00  0.00    +0.136 A 
ATOM      9  O   LIG    1        0.002  -0.004   0.002  0.00  0.00    -0.455 OA
ENDROOT
BRANCH   1  15
ATOM     10  C   LIG    1       -1.133   3.569   0.032  0.00  0.00    +0.013 A 
ATOM     11  C   LIG    1       -2.273   4.342   0.037  0.00  0.00    +0.023 A 
ATOM     12  C   LIG    1       -3.526   3.738   0.041  0.00  0.00    +0.025 A 
ATOM     13  C   LIG    1       -3.632   2.351   0.034  0.00  0.00    +0.023 A 
ATOM     14  C   LIG    1       -2.496   1.572   0.023  0.00  0.00    +0.013 A 
ATOM     15  C   LIG    1       -1.237   2.176   0.020  0.00  0.00    +0.017 A 
BRANCH  12  16
ATOM     16  N   LIG    1       -4.678   4.524   0.052  0.00  0.00    -0.358 N 
ATOM     17  H   LIG    1       -4.606   5.492   0.056  0.00  0.00    +0.142 HD
ATOM     18  H   LIG    1       -5.553   4.104   0.054  0.00  0.00    +0.142 HD
ENDBRANCH  12  16
ENDBRANCH   1  15
BRANCH   5  19
ATOM     19  O   LIG    1        5.379  -0.998  -0.056  0.00  0.00    -0.507 OA
ATOM     20  H   LIG    1        5.778  -1.056   0.823  0.00  0.00    +0.292 HD
ENDBRANCH   5  19
TORSDOF 3
