REMARK  Name = ZINC13612061
REMARK                            x       y       z     vdW  Elec       q    Type
REMARK                         _______ _______ _______ _____ _____    ______ ____
ROOT
ATOM      1  C   LIG    1       -2.905   7.299   0.056  0.00  0.00    +0.139 A 
ATOM      2  N   LIG    1       -1.538   7.213   0.049  0.00  0.00    -0.338 N 
ATOM      3  C   LIG    1       -1.211   5.875   0.040  0.00  0.00    +0.067 A 
ATOM      4  C   LIG    1       -0.007   5.180   0.030  0.00  0.00    +0.028 A 
ATOM      5  C   LIG    1       -0.002   3.815   0.023  0.00  0.00    +0.015 A 
ATOM      6  C   LIG    1       -1.207   3.100   0.025  0.00  0.00    +0.039 A 
ATOM      7  C   LIG    1       -2.423   3.777   0.028  0.00  0.00    +0.043 A 
ATOM      8  C   LIG    1       -2.432   5.173   0.042  0.00  0.00    +0.090 A 
ATOM      9  H   LIG    1       -0.897   7.980   0.050  0.00  0.00    +0.167 HD
ATOM     10  N   LIG    1       -3.425   6.096   0.052  0.00  0.00    -0.228 NA
ENDROOT
BRANCH   1  14
ATOM     11  C   LIG    1       -5.126  10.920   0.089  0.00  0.00    +0.000 A 
ATOM     12  C   LIG    1       -5.789   9.705   0.084  0.00  0.00    +0.001 A 
ATOM     13  C   LIG    1       -5.073   8.526   0.073  0.00  0.00    +0.011 A 
ATOM     14  C   LIG    1       -3.678   8.559   0.067  0.00  0.00    +0.017 A 
ATOM     15  C   LIG    1       -3.016   9.788   0.077  0.00  0.00    +0.011 A 
ATOM     16  C   LIG    1       -3.743  10.960   0.083  0.00  0.00    +0.001 A 
ENDBRANCH   1  14
BRANCH   6  17
ATOM     17  C   LIG    1       -1.187   1.624   0.017  0.00  0.00    +0.242 C 
ATOM     18  N   LIG    1       -0.011   0.966   0.007  0.00  0.00    -0.325 N 
ATOM     19  H   LIG    1        0.822   1.462   0.002  0.00  0.00    +0.145 HD
ATOM     20  H   LIG    1        0.002  -0.004   0.002  0.00  0.00    +0.145 HD
ATOM     21  O   LIG    1       -2.232   1.002   0.018  0.00  0.00    -0.270 OA
ENDBRANCH   6  17
TORSDOF 2
