REMARK  Name = ZINC13643074
REMARK                            x       y       z     vdW  Elec       q    Type
REMARK                         _______ _______ _______ _____ _____    ______ ____
ROOT
ATOM      1  C   LIG    1        0.523   1.426   0.048  0.00  0.00    +0.008 C 
ATOM      2  C   LIG    1       -0.081   0.626   1.204  0.00  0.00    +0.021 C 
ATOM      3  C   LIG    1        0.859  -0.058   0.211  0.00  0.00    +0.056 C 
ENDROOT
BRANCH   3   4
ATOM      4  C   LIG    1        2.243  -0.410   0.692  0.00  0.00    +0.309 C 
ATOM      5  O   LIG    1        3.040   0.466   0.933  0.00  0.00    -0.250 OA
BRANCH   4   6
ATOM      6  O   LIG    1        2.591  -1.696   0.852  0.00  0.00    -0.480 OA
ATOM      7  H   LIG    1        1.974  -2.376   0.664  0.00  0.00    +0.295 HD
ENDBRANCH   4   6
ENDBRANCH   3   4
BRANCH   1   8
ATOM      8  C   LIG    1       -0.406   1.818  -1.102  0.00  0.00    -0.007 C 
BRANCH   8  10
ATOM      9  C   LIG    1       -2.395   3.215  -1.681  0.00  0.00    +0.004 C 
ATOM     10  C   LIG    1       -1.639   2.529  -0.541  0.00  0.00    +0.000 C 
ENDBRANCH   8  10
BRANCH   8  11
ATOM     11  C   LIG    1        0.333   2.757  -2.057  0.00  0.00    +0.000 C 
ATOM     12  C   LIG    1        0.722   4.037  -1.315  0.00  0.00    +0.004 C 
ENDBRANCH   8  11
ENDBRANCH   1   8
BRANCH   3  13
ATOM     13  C   LIG    1        0.240  -1.036  -0.790  0.00  0.00    -0.068 C 
BRANCH  13  14
ATOM     14  N   LIG    1        0.599  -2.412  -0.402  0.00  0.00    +0.379 N 
ATOM     15  H   LIG    1        1.620  -2.516  -0.435  0.00  0.00    -0.090 HD
ATOM     16  H   LIG    1        0.175  -3.078  -1.046  0.00  0.00    -0.090 HD
ATOM     17  H   LIG    1        0.276  -2.603   0.545  0.00  0.00    -0.090 HD
ENDBRANCH  13  14
ENDBRANCH   3  13
TORSDOF 7
