REMARK  Name = ZINC13741026
REMARK                            x       y       z     vdW  Elec       q    Type
REMARK                         _______ _______ _______ _____ _____    ______ ____
ROOT
ATOM      1  C   LIG    1       -0.071   5.324   0.032  0.00  0.00    +0.138 A 
ATOM      2  N   LIG    1       -1.188   6.107   0.041  0.00  0.00    -0.344 N 
ATOM      3  C   LIG    1       -0.765   7.409   0.051  0.00  0.00    +0.107 A 
ATOM      4  C   LIG    1        0.584   7.386   0.037  0.00  0.00    +0.058 A 
ATOM      5  H   LIG    1       -2.137   5.790   0.042  0.00  0.00    +0.167 HD
ATOM      6  N   LIG    1        0.983   6.109   0.026  0.00  0.00    -0.233 NA
ENDROOT
BRANCH   1   9
ATOM      7  C   LIG    1       -1.221   1.748   0.017  0.00  0.00    +0.002 A 
ATOM      8  C   LIG    1       -1.247   3.128   0.031  0.00  0.00    +0.011 A 
ATOM      9  C   LIG    1       -0.050   3.845   0.023  0.00  0.00    +0.018 A 
ATOM     10  C   LIG    1        1.166   3.162   0.008  0.00  0.00    +0.026 A 
ATOM     11  C   LIG    1        1.179   1.782   0.000  0.00  0.00    +0.019 A 
ATOM     12 BR   LIG    1        2.826   0.853  -0.020  0.00  0.00    -0.050 Br
ATOM     13  C   LIG    1       -0.013   1.076   0.008  0.00  0.00    +0.015 A 
ENDBRANCH   1   9
BRANCH   4  14
ATOM     14  C   LIG    1        1.486   8.592   0.035  0.00  0.00    +0.037 C 
BRANCH  14  15
ATOM     15  C   LIG    1        2.466   8.498   1.207  0.00  0.00    -0.080 C 
BRANCH  15  16
ATOM     16  N   LIG    1        3.357   9.671   1.183  0.00  0.00    +0.378 N 
ATOM     17  H   LIG    1        3.895   9.668   0.309  0.00  0.00    -0.090 HD
ATOM     18  H   LIG    1        4.002   9.636   1.970  0.00  0.00    -0.090 HD
ATOM     19  H   LIG    1        2.808  10.528   1.232  0.00  0.00    -0.090 HD
ENDBRANCH  15  16
ENDBRANCH  14  15
ENDBRANCH   4  14
TORSDOF 4
