REMARK  Name = ZINC13579814
REMARK                            x       y       z     vdW  Elec       q    Type
REMARK                         _______ _______ _______ _____ _____    ______ ____
ROOT
ATOM      1  N   LIG    1        1.996  -2.148  -1.175  0.00  0.00    -0.106 NA
ATOM      2  C   LIG    1        2.327  -2.283  -2.427  0.00  0.00    +0.400 C 
ENDROOT
BRANCH   1   3
ATOM      3  C   LIG    1        2.196  -0.864  -0.498  0.00  0.00    +0.120 C 
ATOM      4  C   LIG    1        3.680  -0.494  -0.535  0.00  0.00    +0.055 C 
ATOM      5  C   LIG    1        1.383   0.219  -1.209  0.00  0.00    +0.055 C 
BRANCH   3   7
ATOM      6  C   LIG    1        1.944   0.364   1.663  0.00  0.00    +0.008 C 
ATOM      7  C   LIG    1        1.735  -0.977   0.956  0.00  0.00    +0.044 C 
ENDBRANCH   3   7
ENDBRANCH   1   3
BRANCH   2   8
ATOM      8  N   LIG    1        2.229  -3.513  -3.036  0.00  0.00    -0.241 N 
ATOM      9  H   LIG    1        2.559  -3.635  -3.940  0.00  0.00    +0.265 HD
BRANCH   8  10
ATOM     10  C   LIG    1        1.652  -4.589  -2.352  0.00  0.00    +0.118 A 
ATOM     11  C   LIG    1        2.114  -5.887  -2.557  0.00  0.00    +0.045 A 
ATOM     12  C   LIG    1        1.512  -6.918  -1.856  0.00  0.00    +0.023 A 
ATOM     13  C   LIG    1        0.480  -6.628  -0.982  0.00  0.00    +0.111 A 
ATOM     14  N   LIG    1        0.066  -5.389  -0.810  0.00  0.00    -0.260 NA
ATOM     15  C   LIG    1        0.615  -4.377  -1.453  0.00  0.00    +0.152 A 
ENDBRANCH   8  10
ENDBRANCH   2   8
BRANCH   2  16
ATOM     16  N   LIG    1        2.777  -1.193  -3.143  0.00  0.00    -0.177 N 
ATOM     17  H   LIG    1        2.945  -0.351  -2.691  0.00  0.00    +0.278 HD
BRANCH  16  18
ATOM     18  C   LIG    1        2.984  -1.298  -4.478  0.00  0.00    +0.255 C 
ATOM     19  N   LIG    1        3.158  -1.385  -5.597  0.00  0.00    -0.154 NA
ENDBRANCH  16  18
ENDBRANCH   2  16
TORSDOF 6
