REMARK  Name = ZINC13641418
REMARK                            x       y       z     vdW  Elec       q    Type
REMARK                         _______ _______ _______ _____ _____    ______ ____
ROOT
ATOM      1  C   LIG    1       -2.055   1.292   1.376  0.00  0.00    -0.018 C 
ENDROOT
BRANCH   1   2
ATOM      2  C   LIG    1       -0.792   2.121   1.137  0.00  0.00    +0.005 C 
BRANCH   2   3
ATOM      3  C   LIG    1        0.065   1.446   0.064  0.00  0.00    -0.011 C 
BRANCH   3   5
ATOM      4  C   LIG    1        2.202   2.070   1.200  0.00  0.00    +0.004 C 
ATOM      5  C   LIG    1        1.385   2.206  -0.086  0.00  0.00    -0.000 C 
ENDBRANCH   3   5
BRANCH   3   6
ATOM      6  C   LIG    1       -0.684   1.457  -1.270  0.00  0.00    -0.000 C 
ATOM      7  C   LIG    1        0.110   0.661  -2.307  0.00  0.00    +0.004 C 
ENDBRANCH   3   6
ENDBRANCH   2   3
ENDBRANCH   1   2
BRANCH   1   8
ATOM      8  C   LIG    1       -1.670  -0.068   1.962  0.00  0.00    -0.082 C 
BRANCH   8   9
ATOM      9  N   LIG    1       -2.887  -0.883   2.120  0.00  0.00    +0.378 N 
ATOM     10  H   LIG    1       -3.559  -0.376   2.707  0.00  0.00    -0.090 HD
ATOM     11  H   LIG    1       -2.658  -1.769   2.567  0.00  0.00    -0.090 HD
ATOM     12  H   LIG    1       -3.308  -1.062   1.210  0.00  0.00    -0.090 HD
ENDBRANCH   8   9
ENDBRANCH   1   8
BRANCH   1  13
ATOM     13  C   LIG    1       -2.971   2.029   2.355  0.00  0.00    +0.122 C 
BRANCH  13  14
ATOM     14  C   LIG    1       -3.478   3.295   1.714  0.00  0.00    +0.305 C 
ATOM     15  O   LIG    1       -3.233   3.524   0.554  0.00  0.00    -0.251 OA
BRANCH  14  16
ATOM     16  O   LIG    1       -4.201   4.168   2.433  0.00  0.00    -0.481 OA
ATOM     17  H   LIG    1       -4.391   3.990   3.333  0.00  0.00    +0.295 HD
ENDBRANCH  14  16
ENDBRANCH  13  14
ENDBRANCH   1  13
TORSDOF 9
