REMARK  Name = ZINC13704061
REMARK                            x       y       z     vdW  Elec       q    Type
REMARK                         _______ _______ _______ _____ _____    ______ ____
ROOT
ATOM      1  N   LIG    1        1.346   2.035   0.000  0.00  0.00    -0.331 N 
ATOM      2  C   LIG    1        0.057   1.352  -0.257  0.00  0.00    +0.103 C 
ATOM      3  C   LIG    1        0.193  -0.103  -0.252  0.00  0.00    -0.000 C 
ATOM      4  C   LIG    1        0.692  -0.629   1.109  0.00  0.00    -0.081 C 
ATOM      5  N   LIG    1        2.139  -0.440   1.179  0.00  0.00    +0.380 N 
ATOM      6  H   LIG    1        2.549  -1.216   1.712  0.00  0.00    -0.086 HD
ATOM      7  H   LIG    1        2.519  -0.441   0.226  0.00  0.00    -0.086 HD
ATOM      8  C   LIG    1        2.506   0.853   1.847  0.00  0.00    -0.063 C 
ATOM      9  C   LIG    1        1.627   2.040   1.415  0.00  0.00    +0.086 C 
ENDROOT
BRANCH   1  12
ATOM     10  C   LIG    1        0.218   5.392  -0.974  0.00  0.00    +0.021 A 
ATOM     11  C   LIG    1        0.179   4.109  -0.452  0.00  0.00    +0.026 A 
ATOM     12  C   LIG    1        1.335   3.334  -0.513  0.00  0.00    +0.048 A 
ATOM     13  C   LIG    1        2.479   3.875  -1.087  0.00  0.00    +0.133 A 
ATOM     14  N   LIG    1        2.471   5.098  -1.578  0.00  0.00    -0.261 NA
ATOM     15  C   LIG    1        1.393   5.857  -1.535  0.00  0.00    +0.111 A 
ENDBRANCH   1  12
TORSDOF 1
