REMARK  Name = ZINC13588112
REMARK                            x       y       z     vdW  Elec       q    Type
REMARK                         _______ _______ _______ _____ _____    ______ ____
ROOT
ATOM      1  C   LIG    1       -4.010  -3.338   6.717  0.00  0.00    +0.162 A 
ATOM      2  C   LIG    1       -4.720  -3.489   5.541  0.00  0.00    +0.053 A 
ATOM      3  C   LIG    1       -4.780  -2.456   4.613  0.00  0.00    -0.038 A 
ATOM      4  C   LIG    1       -4.135  -1.267   4.874  0.00  0.00    -0.023 A 
ATOM      5  C   LIG    1       -4.175  -0.101   3.919  0.00  0.00    +0.143 C 
ATOM      6  N   LIG    1       -4.734  -0.533   2.634  0.00  0.00    -0.296 N 
ATOM      7  C   LIG    1       -4.172  -0.164   1.465  0.00  0.00    +0.224 C 
ATOM      8  O   LIG    1       -4.654  -0.536   0.416  0.00  0.00    -0.275 OA
ATOM      9  C   LIG    1       -5.936  -1.382   2.671  0.00  0.00    +0.113 C 
ATOM     10  C   LIG    1       -3.417  -1.112   6.052  0.00  0.00    +0.054 A 
ATOM     11  C   LIG    1       -5.551  -2.705   3.343  0.00  0.00    +0.054 C 
ATOM     12  C   LIG    1       -3.350  -2.141   6.975  0.00  0.00    +0.162 A 
ENDROOT
BRANCH   1  14
ATOM     13  C   LIG    1       -4.659  -5.555   7.285  0.00  0.00    +0.277 C 
ATOM     14  O   LIG    1       -3.957  -4.356   7.618  0.00  0.00    -0.491 OA
ENDBRANCH   1  14
BRANCH  12  15
ATOM     15  O   LIG    1       -2.643  -1.982   8.126  0.00  0.00    -0.491 OA
ATOM     16  C   LIG    1       -1.993  -0.725   8.320  0.00  0.00    +0.277 C 
ENDBRANCH  12  15
BRANCH   7  17
ATOM     17  C   LIG    1       -2.945   0.711   1.462  0.00  0.00    +0.109 C 
BRANCH  17  18
ATOM     18  C   LIG    1       -3.258   2.017   2.145  0.00  0.00    -0.035 A 
ATOM     19  C   LIG    1       -4.250   2.839   1.643  0.00  0.00    +0.004 A 
ATOM     20  C   LIG    1       -4.540   4.036   2.271  0.00  0.00    +0.000 A 
ATOM     21  C   LIG    1       -3.833   4.415   3.396  0.00  0.00    +0.000 A 
ATOM     22  C   LIG    1       -2.837   3.595   3.896  0.00  0.00    +0.000 A 
ATOM     23  C   LIG    1       -2.550   2.397   3.270  0.00  0.00    +0.004 A 
ENDBRANCH  17  18
BRANCH  17  24
ATOM     24  C   LIG    1       -2.514   0.980   0.019  0.00  0.00    +0.052 C 
BRANCH  24  25
ATOM     25  C   LIG    1       -1.219   1.751   0.017  0.00  0.00    -0.046 A 
ATOM     26  C   LIG    1       -0.013   1.076   0.008  0.00  0.00    +0.003 A 
ATOM     27  C   LIG    1        1.175   1.783   0.000  0.00  0.00    +0.000 A 
ATOM     28  C   LIG    1        1.156   3.165   0.008  0.00  0.00    +0.000 A 
ATOM     29  C   LIG    1       -0.050   3.840   0.022  0.00  0.00    +0.000 A 
ATOM     30  C   LIG    1       -1.238   3.133   0.030  0.00  0.00    +0.003 A 
ENDBRANCH  24  25
ENDBRANCH  17  24
ENDBRANCH   7  17
TORSDOF 6
