REMARK  Name = ZINC13676501
REMARK                            x       y       z     vdW  Elec       q    Type
REMARK                         _______ _______ _______ _____ _____    ______ ____
ROOT
ATOM      1  N   LIG    1        1.620  -2.797   5.383  0.00  0.00    -0.260 N 
ATOM      2  C   LIG    1        1.345  -1.900   6.413  0.00  0.00    +0.048 A 
ATOM      3  C   LIG    1        1.857  -0.640   6.694  0.00  0.00    +0.026 A 
ATOM      4  C   LIG    1        1.411   0.061   7.799  0.00  0.00    +0.030 A 
ATOM      5  C   LIG    1        0.453  -0.480   8.640  0.00  0.00    +0.106 A 
ATOM      6  C   LIG    1       -0.069  -1.731   8.380  0.00  0.00    +0.042 A 
ATOM      7  C   LIG    1        0.373  -2.446   7.267  0.00  0.00    +0.050 A 
ATOM      8  C   LIG    1        0.029  -3.772   6.720  0.00  0.00    +0.250 C 
ATOM      9  O   LIG    1       -0.771  -4.570   7.162  0.00  0.00    -0.282 OA
ATOM     10  C   LIG    1        0.882  -3.914   5.495  0.00  0.00    +0.292 C 
ATOM     11  O   LIG    1        0.903  -4.866   4.743  0.00  0.00    -0.266 OA
ENDROOT
BRANCH   5  12
ATOM     12  S   LIG    1       -0.101   0.430  10.044  0.00  0.00    +0.061 S 
ATOM     13  O   LIG    1        0.938   1.342  10.372  0.00  0.00    -0.153 OA
ATOM     14  O   LIG    1       -0.601  -0.522  10.973  0.00  0.00    -0.153 OA
BRANCH  12  15
ATOM     15  N   LIG    1       -1.395   1.341   9.558  0.00  0.00    -0.170 NA
ATOM     16  C   LIG    1       -1.326   2.708   9.010  0.00  0.00    +0.110 C 
ATOM     17  C   LIG    1       -2.719   3.321   9.298  0.00  0.00    +0.019 C 
ATOM     18  C   LIG    1       -3.649   2.100   9.074  0.00  0.00    +0.025 C 
ATOM     19  C   LIG    1       -2.803   0.919   9.594  0.00  0.00    +0.117 C 
BRANCH  19  20
ATOM     20  C   LIG    1       -3.003  -0.304   8.696  0.00  0.00    +0.249 C 
BRANCH  20  21
ATOM     21  O   LIG    1       -2.757   0.059   7.336  0.00  0.00    -0.489 OA
BRANCH  21  22
ATOM     22  C   LIG    1       -2.893  -0.919   6.402  0.00  0.00    +0.139 A 
ATOM     23  C   LIG    1       -2.665  -0.646   5.057  0.00  0.00    +0.048 A 
ATOM     24  C   LIG    1       -2.816  -1.676   4.142  0.00  0.00    +0.023 A 
ATOM     25  C   LIG    1       -3.184  -2.930   4.592  0.00  0.00    +0.111 A 
ATOM     26  N   LIG    1       -3.392  -3.155   5.874  0.00  0.00    -0.260 NA
ATOM     27  C   LIG    1       -3.254  -2.204   6.777  0.00  0.00    +0.156 A 
ENDBRANCH  21  22
ENDBRANCH  20  21
ENDBRANCH  19  20
ENDBRANCH  12  15
ENDBRANCH   5  12
BRANCH   1  28
ATOM     28  C   LIG    1        2.587  -2.550   4.310  0.00  0.00    +0.149 C 
BRANCH  28  32
ATOM     29  C   LIG    1        0.626  -0.618   1.042  0.00  0.00    +0.120 A 
ATOM     30  C   LIG    1        1.202   0.138   2.051  0.00  0.00    +0.046 A 
ATOM     31  C   LIG    1        1.835  -0.488   3.107  0.00  0.00    +0.009 A 
ATOM     32  C   LIG    1        1.895  -1.869   3.158  0.00  0.00    -0.029 A 
ATOM     33  C   LIG    1        1.322  -2.625   2.152  0.00  0.00    +0.009 A 
ATOM     34  C   LIG    1        0.682  -2.003   1.098  0.00  0.00    +0.046 A 
BRANCH  29  36
ATOM     35  C   LIG    1       -0.017   1.425   0.010  0.00  0.00    +0.277 C 
ATOM     36  O   LIG    1        0.002  -0.004   0.002  0.00  0.00    -0.495 OA
ENDBRANCH  29  36
ENDBRANCH  28  32
ENDBRANCH   1  28
TORSDOF 8
