REMARK  Name = ZINC13742907
REMARK                            x       y       z     vdW  Elec       q    Type
REMARK                         _______ _______ _______ _____ _____    ______ ____
ROOT
ATOM      1  C   LIG    1        2.671   4.094  -0.002  0.00  0.00    -0.007 C 
ENDROOT
BRANCH   1   3
ATOM      2  C   LIG    1        3.912   6.259  -0.127  0.00  0.00    -0.014 C 
ATOM      3  C   LIG    1        2.530   5.617   0.008  0.00  0.00    -0.078 C 
BRANCH   3   4
ATOM      4  N   LIG    1        1.914   6.044   1.272  0.00  0.00    +0.380 N 
ATOM      5  H   LIG    1        2.548   5.729   2.113  0.00  0.00    -0.090 HD
ATOM      6  H   LIG    1        1.812   7.139   1.278  0.00  0.00    -0.090 HD
ATOM      7  H   LIG    1        0.920   5.583   1.369  0.00  0.00    -0.090 HD
ENDBRANCH   3   4
ENDBRANCH   1   3
BRANCH   1   8
ATOM      8  C   LIG    1        1.282   3.453   0.008  0.00  0.00    +0.092 C 
BRANCH   8   9
ATOM      9  P   LIG    1        1.451   1.638  -0.003  0.00  0.00    +0.191 P 
ATOM     10  O   LIG    1        2.203   1.204   1.196  0.00  0.00    -0.294 OA
ATOM     11  H   LIG    1        2.032   1.169  -0.811  0.00  0.00    +0.128 HD
BRANCH   9  12
ATOM     12  O   LIG    1       -0.011   0.963   0.007  0.00  0.00    -0.346 OA
ATOM     13  H   LIG    1       -0.504   1.247  -0.779  0.00  0.00    +0.217 HD
ENDBRANCH   9  12
ENDBRANCH   8   9
ENDBRANCH   1   8
TORSDOF 5
