REMARK  Name = ZINC13674486
REMARK                            x       y       z     vdW  Elec       q    Type
REMARK                         _______ _______ _______ _____ _____    ______ ____
ROOT
ATOM      1  C   LIG    1        5.816  -1.892  -0.062  0.00  0.00    +0.001 A 
ATOM      2  C   LIG    1        6.785  -0.890  -0.066  0.00  0.00    +0.002 A 
ATOM      3  C   LIG    1        6.436   0.425  -0.056  0.00  0.00    +0.028 A 
ATOM      4  C   LIG    1        5.077   0.787  -0.041  0.00  0.00    +0.071 A 
ATOM      5  C   LIG    1        4.093  -0.233  -0.037  0.00  0.00    +0.002 A 
ATOM      6  C   LIG    1        2.734   0.128  -0.022  0.00  0.00    +0.037 A 
ATOM      7  C   LIG    1        2.420   1.473  -0.013  0.00  0.00    +0.066 A 
ATOM      8  C   LIG    1        3.447   2.423  -0.023  0.00  0.00    +0.137 A 
ATOM      9  N   LIG    1        4.709   2.072  -0.031  0.00  0.00    -0.253 NA
ATOM     10  C   LIG    1        4.490  -1.581  -0.048  0.00  0.00    +0.010 A 
ENDROOT
BRANCH   7  11
ATOM     11  N   LIG    1        1.079   1.884   0.002  0.00  0.00    -0.304 N 
ATOM     12  C   LIG    1        0.623   3.176   0.013  0.00  0.00    +0.112 A 
ATOM     13  C   LIG    1       -0.722   3.115   0.026  0.00  0.00    +0.130 A 
ATOM     14  N   LIG    1       -1.083   1.823   0.017  0.00  0.00    -0.244 NA
ATOM     15  C   LIG    1       -0.013   1.076   0.008  0.00  0.00    +0.204 A 
ENDBRANCH   7  11
TORSDOF 1
