REMARK  Name = ZINC13732787
REMARK                            x       y       z     vdW  Elec       q    Type
REMARK                         _______ _______ _______ _____ _____    ______ ____
ROOT
ATOM      1  C   LIG    1        4.393  -7.611  -2.826  0.00  0.00    +0.138 C 
ATOM      2  N   LIG    1        4.623  -6.582  -1.809  0.00  0.00    -0.271 N 
ATOM      3  C   LIG    1        5.905  -6.465  -1.297  0.00  0.00    +0.045 A 
ATOM      4  C   LIG    1        6.968  -6.589  -2.194  0.00  0.00    +0.024 A 
ATOM      5  C   LIG    1        8.271  -6.490  -1.758  0.00  0.00    +0.002 A 
ATOM      6  C   LIG    1        8.540  -6.265  -0.418  0.00  0.00    +0.001 A 
ATOM      7  C   LIG    1        7.506  -6.140   0.480  0.00  0.00    +0.012 A 
ATOM      8  C   LIG    1        6.173  -6.237   0.051  0.00  0.00    +0.022 A 
ATOM      9  C   LIG    1        5.118  -6.091   1.066  0.00  0.00    +0.077 C 
ATOM     10  N   LIG    1        4.016  -5.449   0.894  0.00  0.00    -0.251 NA
ATOM     11  C   LIG    1        3.696  -4.790  -0.371  0.00  0.00    +0.280 C 
ATOM     12  C   LIG    1        3.584  -5.831  -1.451  0.00  0.00    +0.262 C 
ATOM     13  O   LIG    1        2.518  -5.992  -2.008  0.00  0.00    -0.271 OA
ENDROOT
BRANCH   9  14
ATOM     14  C   LIG    1        5.340  -6.729   2.384  0.00  0.00    +0.001 A 
ATOM     15  C   LIG    1        6.191  -7.830   2.494  0.00  0.00    +0.010 A 
ATOM     16  C   LIG    1        6.397  -8.418   3.725  0.00  0.00    +0.001 A 
ATOM     17  C   LIG    1        5.755  -7.925   4.847  0.00  0.00    +0.000 A 
ATOM     18  C   LIG    1        4.907  -6.837   4.743  0.00  0.00    +0.001 A 
ATOM     19  C   LIG    1        4.696  -6.237   3.518  0.00  0.00    +0.010 A 
ENDBRANCH   9  14
BRANCH  11  20
ATOM     20  N   LIG    1        2.424  -4.075  -0.244  0.00  0.00    -0.270 N 
ATOM     21  H   LIG    1        1.589  -4.569  -0.237  0.00  0.00    +0.153 HD
ATOM     22  C   LIG    1        2.413  -2.732  -0.136  0.00  0.00    +0.306 C 
ATOM     23  N   LIG    1        1.242  -2.075  -0.019  0.00  0.00    -0.269 N 
ATOM     24  H   LIG    1        0.412  -2.572   0.055  0.00  0.00    +0.156 HD
ATOM     25  O   LIG    1        3.459  -2.113  -0.144  0.00  0.00    -0.252 OA
BRANCH  23  26
ATOM     26  C   LIG    1        1.223  -0.675  -0.003  0.00  0.00    +0.036 A 
ATOM     27  C   LIG    1        0.170   0.013  -0.591  0.00  0.00    +0.023 A 
ATOM     28  C   LIG    1        0.153   1.394  -0.574  0.00  0.00    +0.003 A 
ATOM     29  C   LIG    1        1.185   2.092   0.027  0.00  0.00    +0.020 A 
ATOM     30  C   LIG    1        2.236   1.409   0.614  0.00  0.00    +0.043 A 
ATOM     31 CL   LIG    1        3.528   2.290   1.367  0.00  0.00    -0.083 Cl
ATOM     32  C   LIG    1        2.257   0.027   0.600  0.00  0.00    +0.043 A 
ENDBRANCH  23  26
ENDBRANCH  11  20
TORSDOF 3
