REMARK  Name = ZINC13657906
REMARK                            x       y       z     vdW  Elec       q    Type
REMARK                         _______ _______ _______ _____ _____    ______ ____
ROOT
ATOM      1  C   LIG    1        0.051   1.504   0.005  0.00  0.00    +0.070 C 
ATOM      2  C   LIG    1        0.042  -0.003  -0.001  0.00  0.00    +0.088 C 
ATOM      3  N   LIG    1       -0.046  -0.764  -1.048  0.00  0.00    -0.182 NA
ATOM      4  N   LIG    1       -0.026  -2.114  -0.700  0.00  0.00    -0.201 N 
ATOM      5  H   LIG    1       -0.081  -2.850  -1.328  0.00  0.00    +0.178 HD
ATOM      6  C   LIG    1        0.080  -2.246   0.638  0.00  0.00    +0.285 C 
ATOM      7  O   LIG    1        0.125  -3.287   1.271  0.00  0.00    -0.267 OA
ATOM      8  C   LIG    1        0.136  -0.877   1.178  0.00  0.00    +0.167 C 
ATOM      9  N   LIG    1        0.246  -0.514   2.443  0.00  0.00    -0.175 NA
ENDROOT
BRANCH   9  10
ATOM     10  N   LIG    1        0.162   0.732   2.766  0.00  0.00    -0.236 N 
ATOM     11  H   LIG    1       -0.060   1.394   2.092  0.00  0.00    +0.174 HD
BRANCH  10  12
ATOM     12  C   LIG    1        0.389   1.128   4.084  0.00  0.00    +0.067 A 
ATOM     13  C   LIG    1        0.712   0.182   5.050  0.00  0.00    +0.026 A 
ATOM     14  C   LIG    1        0.936   0.577   6.354  0.00  0.00    +0.002 A 
ATOM     15  C   LIG    1        0.839   1.913   6.700  0.00  0.00    +0.002 A 
ATOM     16  C   LIG    1        0.518   2.858   5.743  0.00  0.00    +0.022 A 
ATOM     17  C   LIG    1        0.298   2.471   4.435  0.00  0.00    +0.063 A 
ATOM     18 CL   LIG    1       -0.098   3.659   3.232  0.00  0.00    -0.082 Cl
ENDBRANCH  10  12
ENDBRANCH   9  10
TORSDOF 2
