REMARK  Name = ZINC13671925
REMARK                            x       y       z     vdW  Elec       q    Type
REMARK                         _______ _______ _______ _____ _____    ______ ____
ROOT
ATOM      1  C   LIG    1        2.016   6.111   1.692  0.00  0.00    +0.122 A 
ATOM      2  C   LIG    1        3.221   5.414   1.520  0.00  0.00    +0.047 A 
ATOM      3  C   LIG    1        3.203   4.065   1.337  0.00  0.00    -0.038 A 
ATOM      4  C   LIG    1        4.485   3.294   1.150  0.00  0.00    +0.044 C 
ATOM      5  C   LIG    1        1.956   3.407   1.326  0.00  0.00    +0.005 A 
ATOM      6  C   LIG    1        1.868   2.019   1.142  0.00  0.00    +0.033 A 
ATOM      7  C   LIG    1        0.631   1.412   1.137  0.00  0.00    +0.034 A 
ATOM      8  C   LIG    1       -0.533   2.170   1.309  0.00  0.00    +0.025 A 
ATOM      9  C   LIG    1       -0.471   3.515   1.494  0.00  0.00    +0.030 A 
ATOM     10  C   LIG    1        0.774   4.167   1.504  0.00  0.00    +0.073 A 
ATOM     11  N   LIG    1        0.854   5.492   1.681  0.00  0.00    -0.232 NA
ENDROOT
BRANCH   1  16
ATOM     12  N   LIG    1        1.612   9.908   3.309  0.00  0.00    +0.382 N 
ATOM     13  H   LIG    1        1.170   9.457   4.210  0.00  0.00    -0.082 HD
ATOM     14  C   LIG    1        0.767   9.552   2.161  0.00  0.00    -0.060 C 
ATOM     15  C   LIG    1        0.692   8.028   2.038  0.00  0.00    +0.088 C 
ATOM     16  N   LIG    1        2.049   7.486   1.878  0.00  0.00    -0.319 N 
ATOM     17  C   LIG    1        2.894   7.842   3.026  0.00  0.00    +0.088 C 
ATOM     18  C   LIG    1        2.968   9.365   3.149  0.00  0.00    -0.060 C 
BRANCH  12  20
ATOM     19  C   LIG    1        2.322  11.681   4.842  0.00  0.00    -0.017 C 
ATOM     20  C   LIG    1        1.647  11.363   3.506  0.00  0.00    -0.082 C 
ENDBRANCH  12  20
ENDBRANCH   1  16
BRANCH   7  21
ATOM     21  N   LIG    1        0.537   0.029   0.954  0.00  0.00    -0.282 N 
ATOM     22  H   LIG    1        1.228  -0.483   0.268  0.00  0.00    +0.155 HD
ATOM     23  C   LIG    1       -0.399  -0.677   1.619  0.00  0.00    +0.241 C 
ATOM     24  O   LIG    1       -1.219  -0.102   2.310  0.00  0.00    -0.270 OA
BRANCH  23  25
ATOM     25  C   LIG    1       -0.429  -2.135   1.509  0.00  0.00    +0.068 C 
ATOM     26  C   LIG    1       -1.367  -2.842   2.175  0.00  0.00    +0.013 C 
BRANCH  26  27
ATOM     27  C   LIG    1       -1.398  -4.308   2.064  0.00  0.00    -0.025 A 
ATOM     28  C   LIG    1       -0.460  -4.972   1.265  0.00  0.00    +0.011 A 
ATOM     29  C   LIG    1       -0.489  -6.345   1.170  0.00  0.00    +0.046 A 
ATOM     30  C   LIG    1       -1.456  -7.071   1.857  0.00  0.00    +0.121 A 
ATOM     31  C   LIG    1       -2.393  -6.416   2.647  0.00  0.00    +0.046 A 
ATOM     32  C   LIG    1       -2.369  -5.044   2.753  0.00  0.00    +0.011 A 
BRANCH  30  33
ATOM     33  O   LIG    1       -1.484  -8.425   1.755  0.00  0.00    -0.489 OA
BRANCH  33  34
ATOM     34  C   LIG    1       -2.571  -9.100   2.391  0.00  0.00    +0.167 C 
ATOM     35  C   LIG    1       -2.231  -9.341   3.863  0.00  0.00    +0.051 C 
ATOM     36  C   LIG    1       -2.813 -10.442   1.697  0.00  0.00    +0.051 C 
ENDBRANCH  33  34
ENDBRANCH  30  33
ENDBRANCH  26  27
ENDBRANCH  23  25
ENDBRANCH   7  21
TORSDOF 7
