REMARK  Name = ZINC13589385
REMARK                            x       y       z     vdW  Elec       q    Type
REMARK                         _______ _______ _______ _____ _____    ______ ____
ROOT
ATOM      1  C   LIG    1        0.212   0.065  -1.015  0.00  0.00    +0.105 A 
ATOM      2  C   LIG    1       -0.027  -0.836  -0.052  0.00  0.00    +0.053 A 
ATOM      3  C   LIG    1        0.145  -2.155  -0.675  0.00  0.00    +0.021 A 
ATOM      4  C   LIG    1        0.040  -3.466  -0.219  0.00  0.00    +0.020 A 
ATOM      5  C   LIG    1        0.277  -4.514  -1.101  0.00  0.00    -0.017 A 
ATOM      6  C   LIG    1        0.616  -4.247  -2.431  0.00  0.00    +0.012 A 
ATOM      7  C   LIG    1        0.719  -2.961  -2.879  0.00  0.00    +0.047 A 
ATOM      8  C   LIG    1        0.487  -1.897  -2.014  0.00  0.00    +0.135 A 
ATOM      9  O   LIG    1        0.509  -0.557  -2.169  0.00  0.00    -0.460 OA
ENDROOT
BRANCH   5  10
ATOM     10  C   LIG    1        0.169  -5.917  -0.631  0.00  0.00    -0.018 A 
ATOM     11  C   LIG    1       -0.164  -6.183   0.698  0.00  0.00    +0.010 A 
ATOM     12  C   LIG    1       -0.269  -7.484   1.134  0.00  0.00    +0.019 A 
ATOM     13  C   LIG    1       -0.031  -8.539   0.248  0.00  0.00    +0.052 A 
ATOM     14  C   LIG    1        0.307  -8.271  -1.081  0.00  0.00    +0.019 A 
ATOM     15  C   LIG    1        0.406  -6.968  -1.516  0.00  0.00    +0.010 A 
BRANCH  13  16
ATOM     16  C   LIG    1       -0.134  -9.893   0.702  0.00  0.00    +0.099 C 
ATOM     17  N   LIG    1       -0.215 -10.967   1.062  0.00  0.00    -0.191 NA
ENDBRANCH  13  16
ENDBRANCH   5  10
BRANCH   1  18
ATOM     18  C   LIG    1        0.152   1.559  -0.832  0.00  0.00    +0.056 C 
BRANCH  18  19
ATOM     19  C   LIG    1        1.529   2.077  -0.410  0.00  0.00    -0.071 C 
BRANCH  19  22
ATOM     20  C   LIG    1        3.731   2.905   0.504  0.00  0.00    -0.013 C 
ATOM     21  C   LIG    1        2.723   4.046   0.354  0.00  0.00    -0.072 C 
ATOM     22  N   LIG    1        1.461   3.550  -0.226  0.00  0.00    +0.382 N 
ATOM     23  H   LIG    1        0.685   3.774   0.407  0.00  0.00    -0.081 HD
ATOM     24  C   LIG    1        1.240   4.218  -1.522  0.00  0.00    -0.078 C 
ATOM     25  C   LIG    1        2.019   5.552  -1.408  0.00  0.00    -0.020 C 
ATOM     26  C   LIG    1        3.277   5.113  -0.613  0.00  0.00    -0.017 C 
ENDBRANCH  19  22
ENDBRANCH  18  19
ENDBRANCH   1  18
TORSDOF 5
