REMARK  Name = ZINC13580323
REMARK                            x       y       z     vdW  Elec       q    Type
REMARK                         _______ _______ _______ _____ _____    ______ ____
ROOT
ATOM      1  C   LIG    1        2.209   4.279  -2.900  0.00  0.00    +0.124 A 
ATOM      2  C   LIG    1        2.865   3.833  -4.036  0.00  0.00    +0.046 A 
ATOM      3  C   LIG    1        2.475   2.647  -4.627  0.00  0.00    +0.004 A 
ATOM      4  C   LIG    1        1.433   1.919  -4.091  0.00  0.00    +0.004 A 
ATOM      5  C   LIG    1        0.766   2.365  -2.956  0.00  0.00    -0.042 A 
ATOM      6  C   LIG    1       -0.372   1.528  -2.438  0.00  0.00    +0.023 C 
ATOM      7  C   LIG    1       -0.848   1.981  -1.069  0.00  0.00    -0.031 C 
ATOM      8  N   LIG    1       -0.035   1.464   0.052  0.00  0.00    +0.384 N 
ATOM      9  H   LIG    1       -0.469   1.755   0.935  0.00  0.00    -0.081 HD
ATOM     10  C   LIG    1        1.344   2.009   0.000  0.00  0.00    -0.077 C 
ATOM     11  C   LIG    1        1.280   3.537   0.102  0.00  0.00    -0.004 C 
ATOM     12  C   LIG    1        0.492   4.057  -1.111  0.00  0.00    +0.032 C 
ATOM     13  C   LIG    1        0.487   5.583  -1.098  0.00  0.00    +0.088 C 
ATOM     14  C   LIG    1       -0.444   6.083  -2.179  0.00  0.00    +0.134 C 
ATOM     15  O   LIG    1       -0.081   6.913  -2.978  0.00  0.00    -0.297 OA
ATOM     16  C   LIG    1       -1.845   5.513  -2.230  0.00  0.00    +0.077 C 
ATOM     17  C   LIG    1       -1.742   3.985  -2.243  0.00  0.00    +0.042 C 
ATOM     18  C   LIG    1       -0.934   3.511  -1.032  0.00  0.00    +0.068 C 
ATOM     19  C   LIG    1        1.163   3.540  -2.357  0.00  0.00    +0.007 A 
ENDROOT
BRANCH   1  21
ATOM     20  C   LIG    1        3.671   6.154  -2.921  0.00  0.00    +0.277 C 
ATOM     21  O   LIG    1        2.590   5.444  -2.313  0.00  0.00    -0.495 OA
ENDBRANCH   1  21
BRANCH  18  22
ATOM     22  O   LIG    1       -1.554   3.936   0.183  0.00  0.00    -0.377 OA
ATOM     23  C   LIG    1       -2.896   3.471   0.345  0.00  0.00    +0.194 C 
ENDBRANCH  18  22
BRANCH   8  24
ATOM     24  C   LIG    1        0.002  -0.004   0.002  0.00  0.00    -0.075 C 
BRANCH  24  25
ATOM     25  C   LIG    1        0.607  -0.513   1.312  0.00  0.00    -0.028 C 
ATOM     26  C   LIG    1        1.919  -1.296   1.227  0.00  0.00    +0.002 C 
ATOM     27  C   LIG    1        0.611  -2.025   1.548  0.00  0.00    +0.002 C 
ENDBRANCH  24  25
ENDBRANCH   8  24
TORSDOF 4
