REMARK  Name = ZINC13738853
REMARK                            x       y       z     vdW  Elec       q    Type
REMARK                         _______ _______ _______ _____ _____    ______ ____
ROOT
ATOM      1  C   LIG    1        3.944   0.310   1.651  0.00  0.00    -0.095 C 
ATOM      2  N   LIG    1        4.629   1.408   0.920  0.00  0.00    +0.383 N 
ATOM      3  H   LIG    1        5.014   2.074   1.599  0.00  0.00    -0.081 HD
ATOM      4  C   LIG    1        3.675   2.105   0.042  0.00  0.00    -0.031 C 
ATOM      5  C   LIG    1        4.241   2.032  -1.392  0.00  0.00    +0.003 C 
ATOM      6  C   LIG    1        5.753   1.774  -1.158  0.00  0.00    -0.014 C 
ATOM      7  C   LIG    1        5.725   0.863   0.094  0.00  0.00    -0.078 C 
ENDROOT
BRANCH   4   8
ATOM      8  C   LIG    1        2.324   1.441   0.094  0.00  0.00    -0.042 A 
ATOM      9  C   LIG    1        2.153   0.157  -0.402  0.00  0.00    +0.005 A 
ATOM     10  C   LIG    1        0.891  -0.414  -0.333  0.00  0.00    +0.020 A 
ATOM     11  C   LIG    1       -0.146   0.310   0.223  0.00  0.00    +0.111 A 
ATOM     12  N   LIG    1        0.052   1.529   0.683  0.00  0.00    -0.263 NA
ATOM     13  C   LIG    1        1.238   2.104   0.634  0.00  0.00    +0.112 A 
ENDBRANCH   4   8
BRANCH   5  14
ATOM     14  C   LIG    1        4.026   3.356  -2.127  0.00  0.00    +0.158 C 
BRANCH  14  15
ATOM     15  O   LIG    1        4.453   3.223  -3.484  0.00  0.00    -0.395 OA
ATOM     16  H   LIG    1        4.345   4.026  -4.011  0.00  0.00    +0.209 HD
ENDBRANCH  14  15
ENDBRANCH   5  14
TORSDOF 3
