REMARK  Name = ZINC13738330
REMARK                            x       y       z     vdW  Elec       q    Type
REMARK                         _______ _______ _______ _____ _____    ______ ____
ROOT
ATOM      1  C   LIG    1       -1.152   2.875  -0.955  0.00  0.00    +0.134 C 
ATOM      2  C   LIG    1       -1.287   1.698   0.017  0.00  0.00    +0.118 C 
ATOM      3  N   LIG    1       -0.011   0.966   0.007  0.00  0.00    -0.336 N 
ATOM      4  H   LIG    1        0.002  -0.004   0.002  0.00  0.00    +0.147 HD
ATOM      5  C   LIG    1        1.158   1.679   0.000  0.00  0.00    +0.151 C 
ATOM      6  N   LIG    1        1.283   2.981  -0.229  0.00  0.00    -0.378 N 
ATOM      7  H   LIG    1        2.200   3.442  -0.225  0.00  0.00    +0.160 HD
ATOM      8  C   LIG    1        0.013   3.753  -0.494  0.00  0.00    +0.129 C 
ENDROOT
BRANCH   1   9
ATOM      9  C   LIG    1       -2.425   3.681  -0.959  0.00  0.00    +0.313 C 
ATOM     10  O   LIG    1       -3.357   3.342  -0.268  0.00  0.00    -0.250 OA
BRANCH   9  12
ATOM     11  C   LIG    1       -3.779   5.504  -1.683  0.00  0.00    +0.280 C 
ATOM     12  O   LIG    1       -2.524   4.776  -1.729  0.00  0.00    -0.468 OA
ENDBRANCH   9  12
ENDBRANCH   1   9
TORSDOF 2
