REMARK  Name = ZINC13588931
REMARK                            x       y       z     vdW  Elec       q    Type
REMARK                         _______ _______ _______ _____ _____    ______ ____
ROOT
ATOM      1  O   LIG    1        3.529   5.248   2.207  0.00  0.00    -0.283 OA
ENDROOT
BRANCH   1   2
ATOM      2  P   LIG    1        3.026   6.362   3.255  0.00  0.00    +0.483 P 
ATOM      3  O   LIG    1        4.223   7.235   3.694  0.00  0.00    -0.227 OA
BRANCH   2   4
ATOM      4  O   LIG    1        1.957   7.254   2.585  0.00  0.00    -0.302 OA
ATOM      5  H   LIG    1        2.341   7.691   1.808  0.00  0.00    +0.222 HD
ENDBRANCH   2   4
BRANCH   2   6
ATOM      6  O   LIG    1        2.389   5.638   4.544  0.00  0.00    -0.186 OA
BRANCH   6   7
ATOM      7  P   LIG    1        2.002   6.131   6.027  0.00  0.00    +0.492 P 
ATOM      8  O   LIG    1        3.091   7.094   6.550  0.00  0.00    -0.226 OA
BRANCH   7   9
ATOM      9  O   LIG    1        0.642   6.864   5.987  0.00  0.00    -0.302 OA
ATOM     10  H   LIG    1        0.706   7.631   5.397  0.00  0.00    +0.222 HD
ENDBRANCH   7   9
BRANCH   7  11
ATOM     11  O   LIG    1        1.896   4.857   7.005  0.00  0.00    -0.186 OA
BRANCH  11  12
ATOM     12  P   LIG    1        1.854   4.676   8.605  0.00  0.00    +0.481 P 
ATOM     13  O   LIG    1        2.862   5.673   9.270  0.00  0.00    -0.227 OA
BRANCH  12  14
ATOM     14  O   LIG    1        2.253   3.206   8.974  0.00  0.00    -0.302 OA
ATOM     15  H   LIG    1        3.149   3.024   8.652  0.00  0.00    +0.222 HD
ENDBRANCH  12  14
BRANCH  12  16
ATOM     16  O   LIG    1        0.406   4.971   9.126  0.00  0.00    -0.302 OA
ATOM     17  H   LIG    1        0.160   5.880   8.897  0.00  0.00    +0.222 HD
ENDBRANCH  12  16
ENDBRANCH  11  12
ENDBRANCH   7  11
ENDBRANCH   6   7
ENDBRANCH   2   6
ENDBRANCH   1   2
BRANCH   1  18
ATOM     18  C   LIG    1        4.235   5.571   1.007  0.00  0.00    +0.215 C 
BRANCH  18  22
ATOM     19  C   LIG    1        3.606   2.091  -0.022  0.00  0.00    +0.235 C 
ATOM     20  C   LIG    1        4.437   1.693   1.237  0.00  0.00    +0.126 C 
ATOM     21  S   LIG    1        5.574   3.148   1.284  0.00  0.00    -0.123 S 
ATOM     22  C   LIG    1        4.562   4.285   0.246  0.00  0.00    +0.204 C 
ATOM     23  O   LIG    1        3.367   3.505   0.013  0.00  0.00    -0.340 OA
BRANCH  19  26
ATOM     24  C   LIG    1       -0.017   1.406   0.010  0.00  0.00    +0.061 A 
ATOM     25  C   LIG    1        1.159   2.078   0.002  0.00  0.00    +0.096 A 
ATOM     26  N   LIG    1        2.327   1.377  -0.013  0.00  0.00    -0.272 N 
ATOM     27  C   LIG    1        2.312   0.031  -0.020  0.00  0.00    +0.352 A 
ATOM     28  N   LIG    1        1.164  -0.644  -0.013  0.00  0.00    -0.178 NA
ATOM     29  O   LIG    1        3.368  -0.580  -0.033  0.00  0.00    -0.244 OA
ATOM     30  C   LIG    1        0.002  -0.004   0.002  0.00  0.00    +0.123 A 
BRANCH  30  31
ATOM     31  N   LIG    1       -1.177  -0.712   0.009  0.00  0.00    -0.343 N 
ATOM     32  H   LIG    1       -1.161  -1.682   0.004  0.00  0.00    +0.144 HD
ATOM     33  H   LIG    1       -2.026  -0.241   0.020  0.00  0.00    +0.144 HD
ENDBRANCH  30  31
ENDBRANCH  19  26
ENDBRANCH  18  22
ENDBRANCH   1  18
TORSDOF 13
