REMARK  Name = ZINC13643092
REMARK                            x       y       z     vdW  Elec       q    Type
REMARK                         _______ _______ _______ _____ _____    ______ ____
ROOT
ATOM      1  C   LIG    1        5.246   4.854  -0.419  0.00  0.00    +0.000 C 
ATOM      2  C   LIG    1        5.062   3.615   0.459  0.00  0.00    +0.001 C 
ATOM      3  C   LIG    1        3.840   2.826  -0.022  0.00  0.00    +0.008 C 
ATOM      4  C   LIG    1        2.617   3.747  -0.002  0.00  0.00    -0.014 C 
ATOM      5  C   LIG    1        1.769   3.774   1.269  0.00  0.00    +0.024 C 
ATOM      6  C   LIG    1        2.781   5.058  -0.776  0.00  0.00    +0.008 C 
ATOM      7  C   LIG    1        1.235   3.094   0.007  0.00  0.00    +0.058 C 
ATOM      8  C   LIG    1        4.036   5.777  -0.273  0.00  0.00    +0.001 C 
ENDROOT
BRANCH   7   9
ATOM      9  C   LIG    1        1.177   1.588  -0.001  0.00  0.00    +0.310 C 
ATOM     10  O   LIG    1        2.199   0.944  -0.014  0.00  0.00    -0.250 OA
BRANCH   9  11
ATOM     11  O   LIG    1       -0.011   0.963   0.007  0.00  0.00    -0.480 OA
ATOM     12  H   LIG    1       -0.804   1.462   0.018  0.00  0.00    +0.295 HD
ENDBRANCH   9  11
ENDBRANCH   7   9
BRANCH   7  13
ATOM     13  C   LIG    1        0.114   3.802  -0.756  0.00  0.00    -0.068 C 
BRANCH  13  14
ATOM     14  N   LIG    1       -1.122   3.008  -0.640  0.00  0.00    +0.379 N 
ATOM     15  H   LIG    1       -0.972   2.085  -1.065  0.00  0.00    -0.090 HD
ATOM     16  H   LIG    1       -1.886   3.477  -1.125  0.00  0.00    -0.090 HD
ATOM     17  H   LIG    1       -1.368   2.886   0.341  0.00  0.00    -0.090 HD
ENDBRANCH  13  14
ENDBRANCH   7  13
TORSDOF 4
