REMARK  Name = ZINC13588397
REMARK                            x       y       z     vdW  Elec       q    Type
REMARK                         _______ _______ _______ _____ _____    ______ ____
ROOT
ATOM      1  N   LIG    1       -0.017   1.396   0.010  0.00  0.00    -0.299 N 
ATOM      2  H   LIG    1       -0.770   1.967  -0.209  0.00  0.00    +0.154 HD
ENDROOT
BRANCH   1   8
ATOM      3  C   LIG    1        0.397   5.572   0.643  0.00  0.00    +0.121 A 
ATOM      4  C   LIG    1        1.559   6.048   1.254  0.00  0.00    +0.048 A 
ATOM      5  C   LIG    1        2.547   5.194   1.643  0.00  0.00    +0.032 A 
ATOM      6  C   LIG    1        2.401   3.817   1.430  0.00  0.00    +0.076 A 
ATOM      7  C   LIG    1        1.226   3.329   0.806  0.00  0.00    +0.044 A 
ATOM      8  C   LIG    1        1.105   1.932   0.608  0.00  0.00    +0.134 A 
ATOM      9  N   LIG    1        2.101   1.153   1.009  0.00  0.00    -0.220 NA
ATOM     10  C   LIG    1        3.182   1.655   1.584  0.00  0.00    +0.223 A 
ATOM     11  N   LIG    1        3.347   2.939   1.796  0.00  0.00    -0.235 NA
ATOM     12  C   LIG    1        0.223   4.223   0.419  0.00  0.00    +0.059 A 
BRANCH   3  14
ATOM     13  C   LIG    1       -0.332   7.832   0.524  0.00  0.00    +0.277 C 
ATOM     14  O   LIG    1       -0.572   6.448   0.265  0.00  0.00    -0.495 OA
ENDBRANCH   3  14
ENDBRANCH   1   8
BRANCH   1  15
ATOM     15  C   LIG    1       -0.067   0.028  -0.287  0.00  0.00    +0.033 A 
ATOM     16  C   LIG    1        1.087  -0.641  -0.675  0.00  0.00    +0.027 A 
ATOM     17  C   LIG    1        1.038  -1.990  -0.962  0.00  0.00    +0.047 A 
ATOM     18  C   LIG    1       -0.165  -2.676  -0.873  0.00  0.00    +0.121 A 
ATOM     19  C   LIG    1       -1.318  -2.007  -0.491  0.00  0.00    +0.047 A 
ATOM     20  C   LIG    1       -1.270  -0.658  -0.198  0.00  0.00    +0.027 A 
BRANCH  18  21
ATOM     21  O   LIG    1       -0.213  -4.004  -1.161  0.00  0.00    -0.487 OA
BRANCH  21  22
ATOM     22  C   LIG    1        1.013  -4.629  -1.547  0.00  0.00    +0.264 C 
BRANCH  22  23
ATOM     23  C   LIG    1        0.766  -6.090  -1.824  0.00  0.00    -0.010 A 
ATOM     24  C   LIG    1        0.890  -7.017  -0.806  0.00  0.00    +0.007 A 
ATOM     25  C   LIG    1        0.659  -8.356  -1.059  0.00  0.00    +0.000 A 
ATOM     26  C   LIG    1        0.315  -8.769  -2.333  0.00  0.00    +0.000 A 
ATOM     27  C   LIG    1        0.197  -7.843  -3.352  0.00  0.00    +0.000 A 
ATOM     28  C   LIG    1        0.422  -6.503  -3.098  0.00  0.00    +0.007 A 
ENDBRANCH  22  23
ENDBRANCH  21  22
ENDBRANCH  18  21
ENDBRANCH   1  15
TORSDOF 6
