REMARK  Name = ZINC13741956
REMARK                            x       y       z     vdW  Elec       q    Type
REMARK                         _______ _______ _______ _____ _____    ______ ____
ROOT
ATOM      1  C   LIG    1        5.950  -2.630   1.857  0.00  0.00    +0.263 C 
ENDROOT
BRANCH   1   2
ATOM      2  C   LIG    1        4.893  -1.815   1.109  0.00  0.00    +0.189 C 
BRANCH   2   3
ATOM      3  O   LIG    1        5.518  -1.067   0.065  0.00  0.00    -0.385 OA
ATOM      4  H   LIG    1        5.974  -1.613  -0.591  0.00  0.00    +0.210 HD
ENDBRANCH   2   3
BRANCH   2   5
ATOM      5  C   LIG    1        3.852  -2.760   0.506  0.00  0.00    +0.263 C 
BRANCH   5   6
ATOM      6  O   LIG    1        2.803  -1.996  -0.092  0.00  0.00    -0.489 OA
BRANCH   6   8
ATOM      7  C   LIG    1        0.744  -2.004  -1.275  0.00  0.00    +0.036 A 
ATOM      8  C   LIG    1        1.793  -2.688  -0.676  0.00  0.00    +0.127 A 
ATOM      9  C   LIG    1        1.813  -4.080  -0.672  0.00  0.00    +0.047 A 
ATOM     10  C   LIG    1        0.804  -4.787  -1.257  0.00  0.00    +0.018 A 
ATOM     11  C   LIG    1       -0.263  -4.114  -1.867  0.00  0.00    +0.059 A 
ATOM     12  C   LIG    1       -0.290  -2.708  -1.867  0.00  0.00    +0.134 A 
BRANCH  11  13
ATOM     13  C   LIG    1       -1.348  -4.871  -2.496  0.00  0.00    +0.164 C 
ATOM     14  C   LIG    1       -1.260  -6.372  -2.597  0.00  0.00    +0.092 C 
ATOM     15  O   LIG    1       -2.318  -4.290  -2.936  0.00  0.00    -0.292 OA
ENDBRANCH  11  13
BRANCH  12  16
ATOM     16  O   LIG    1       -1.321  -2.045  -2.449  0.00  0.00    -0.506 OA
ATOM     17  H   LIG    1       -1.183  -1.848  -3.385  0.00  0.00    +0.292 HD
ENDBRANCH  12  16
BRANCH   7  18
ATOM     18  C   LIG    1        0.728  -0.497  -1.274  0.00  0.00    +0.042 C 
BRANCH  18  20
ATOM     19  C   LIG    1       -0.006   1.535  -0.020  0.00  0.00    +0.004 C 
ATOM     20  C   LIG    1        0.010   0.005  -0.020  0.00  0.00    +0.001 C 
ENDBRANCH  18  20
ENDBRANCH   7  18
ENDBRANCH   6   8
ENDBRANCH   5   6
ENDBRANCH   2   5
ENDBRANCH   1   2
BRANCH   1  21
ATOM     21  O   LIG    1        6.856  -1.743   2.517  0.00  0.00    -0.489 OA
BRANCH  21  22
ATOM     22  C   LIG    1        7.861  -2.309   3.231  0.00  0.00    +0.127 A 
ATOM     23  C   LIG    1        7.971  -3.698   3.286  0.00  0.00    +0.047 A 
ATOM     24  C   LIG    1        8.976  -4.282   4.004  0.00  0.00    +0.019 A 
ATOM     25  C   LIG    1        9.894  -3.481   4.684  0.00  0.00    +0.064 A 
ATOM     26  C   LIG    1       10.985  -4.069   5.483  0.00  0.00    +0.193 A 
ATOM     27  C   LIG    1       11.704  -3.142   6.378  0.00  0.00    +0.105 A 
ATOM     28  C   LIG    1       11.504  -1.812   6.218  0.00  0.00    +0.215 A 
ATOM     29  O   LIG    1       10.694  -1.309   5.275  0.00  0.00    -0.448 OA
ATOM     30  O   LIG    1       11.275  -5.250   5.409  0.00  0.00    -0.287 OA
ATOM     31  C   LIG    1        9.797  -2.078   4.629  0.00  0.00    +0.146 A 
ATOM     32  C   LIG    1        8.770  -1.502   3.893  0.00  0.00    +0.037 A 
BRANCH  28  33
ATOM     33  C   LIG    1       12.209  -0.874   7.121  0.00  0.00    +0.373 C 
ATOM     34  O   LIG    1       12.953  -1.306   7.990  0.00  0.00    -0.242 OA
BRANCH  33  35
ATOM     35  O   LIG    1       12.047   0.331   6.999  0.00  0.00    -0.475 OA
ATOM     36  H   LIG    1       11.476   0.662   6.333  0.00  0.00    +0.296 HD
ENDBRANCH  33  35
ENDBRANCH  28  33
BRANCH  32  37
ATOM     37  C   LIG    1        8.643  -0.002   3.818  0.00  0.00    +0.042 C 
BRANCH  37  38
ATOM     38  C   LIG    1        7.759   0.492   4.965  0.00  0.00    +0.001 C 
ATOM     39  C   LIG    1        7.629   2.015   4.890  0.00  0.00    +0.004 C 
ENDBRANCH  37  38
ENDBRANCH  32  37
ENDBRANCH  21  22
ENDBRANCH   1  21
TORSDOF 15
