REMARK  Name = ZINC13556347
REMARK                            x       y       z     vdW  Elec       q    Type
REMARK                         _______ _______ _______ _____ _____    ______ ____
ROOT
ATOM      1  C   LIG    1       -0.081  -1.968  -1.322  0.00  0.00    +0.162 A 
ATOM      2  C   LIG    1       -0.084  -2.836  -0.237  0.00  0.00    +0.050 A 
ATOM      3  C   LIG    1        0.300  -4.149  -0.400  0.00  0.00    +0.012 A 
ATOM      4  C   LIG    1        0.695  -4.611  -1.662  0.00  0.00    -0.020 A 
ATOM      5  C   LIG    1        0.698  -3.734  -2.755  0.00  0.00    +0.057 A 
ATOM      6  C   LIG    1        0.306  -2.422  -2.583  0.00  0.00    +0.162 A 
ENDROOT
BRANCH   4   7
ATOM      7  C   LIG    1        1.105  -6.008  -1.839  0.00  0.00    +0.028 C 
ATOM      8  C   LIG    1        1.272  -6.812  -0.751  0.00  0.00    +0.074 C 
ATOM      9  C   LIG    1        1.504  -8.220  -0.684  0.00  0.00    +0.217 C 
ATOM     10  N   LIG    1        1.632  -8.767   0.483  0.00  0.00    -0.165 NA
ATOM     11  C   LIG    1        1.552  -8.046   1.615  0.00  0.00    +0.139 C 
ATOM     12  S   LIG    1        1.692  -8.572   3.238  0.00  0.00    -0.026 S 
ATOM     13  S   LIG    1        1.268  -6.396   0.989  0.00  0.00    -0.060 S 
BRANCH   9  14
ATOM     14  O   LIG    1        1.589  -8.963  -1.810  0.00  0.00    -0.493 OA
ATOM     15  H   LIG    1        1.494  -8.555  -2.649  0.00  0.00    +0.294 HD
ENDBRANCH   9  14
ENDBRANCH   4   7
BRANCH   6  16
ATOM     16  O   LIG    1        0.302  -1.569  -3.642  0.00  0.00    -0.491 OA
ATOM     17  C   LIG    1        0.709  -2.101  -4.905  0.00  0.00    +0.277 C 
ENDBRANCH   6  16
BRANCH   1  18
ATOM     18  O   LIG    1       -0.460  -0.675  -1.155  0.00  0.00    -0.489 OA
BRANCH  18  20
ATOM     19  C   LIG    1       -1.236   1.202   0.155  0.00  0.00    +0.048 C 
ATOM     20  C   LIG    1       -0.844  -0.277   0.163  0.00  0.00    +0.226 C 
ENDBRANCH  18  20
ENDBRANCH   1  18
TORSDOF 5
