REMARK  Name = ZINC13675247
REMARK                            x       y       z     vdW  Elec       q    Type
REMARK                         _______ _______ _______ _____ _____    ______ ____
ROOT
ATOM      1  C   LIG    1        1.472   1.900  -0.002  0.00  0.00    +0.142 C 
ATOM      2  C   LIG    1       -0.018   1.508   0.010  0.00  0.00    +0.088 C 
ATOM      3  C   LIG    1        0.002  -0.004   0.002  0.00  0.00    +0.075 C 
ATOM      4  N   LIG    1        1.225  -0.418  -0.012  0.00  0.00    -0.181 NA
ATOM      5  N   LIG    1        2.171   0.605  -0.015  0.00  0.00    -0.196 N 
ENDROOT
BRANCH   1   8
ATOM      6  C   LIG    1        2.246   4.547  -2.630  0.00  0.00    +0.008 A 
ATOM      7  C   LIG    1        1.935   4.034  -1.384  0.00  0.00    +0.013 A 
ATOM      8  C   LIG    1        1.802   2.693  -1.240  0.00  0.00    +0.012 A 
ATOM      9  S   LIG    1        2.125   2.110  -2.896  0.00  0.00    -0.100 S 
ATOM     10  C   LIG    1        2.407   3.693  -3.670  0.00  0.00    +0.045 A 
ENDBRANCH   1   8
BRANCH   3  11
ATOM     11  C   LIG    1       -1.184  -0.867   0.009  0.00  0.00    +0.035 A 
ATOM     12  C   LIG    1       -1.258  -2.249  -0.004  0.00  0.00    +0.017 A 
ATOM     13  C   LIG    1       -2.501  -2.837   0.010  0.00  0.00    +0.008 A 
ATOM     14  C   LIG    1       -3.609  -2.051   0.025  0.00  0.00    +0.046 A 
ATOM     15  S   LIG    1       -2.909  -0.409   0.027  0.00  0.00    -0.095 S 
ENDBRANCH   3  11
BRANCH   5  16
ATOM     16  C   LIG    1        3.508   0.436  -0.029  0.00  0.00    +0.151 C 
ATOM     17  S   LIG    1        4.543   1.800  -0.033  0.00  0.00    -0.017 S 
BRANCH  16  18
ATOM     18  N   LIG    1        4.030  -0.806  -0.041  0.00  0.00    -0.339 N 
ATOM     19  H   LIG    1        4.992  -0.928  -0.051  0.00  0.00    +0.144 HD
ATOM     20  H   LIG    1        3.443  -1.579  -0.039  0.00  0.00    +0.144 HD
ENDBRANCH  16  18
ENDBRANCH   5  16
TORSDOF 4
