REMARK  Name = ZINC13683133
REMARK                            x       y       z     vdW  Elec       q    Type
REMARK                         _______ _______ _______ _____ _____    ______ ____
ROOT
ATOM      1  N   LIG    1        1.220   3.342   0.008  0.00  0.00    -0.231 N 
ATOM      2  C   LIG    1        0.074   4.040   0.023  0.00  0.00    +0.254 C 
ATOM      3  C   LIG    1       -1.238   3.364   0.033  0.00  0.00    +0.048 A 
ATOM      4  C   LIG    1       -2.422   4.091   0.049  0.00  0.00    +0.014 A 
ATOM      5  C   LIG    1       -3.637   3.425   0.058  0.00  0.00    +0.001 A 
ATOM      6  C   LIG    1       -3.685   2.043   0.051  0.00  0.00    +0.001 A 
ATOM      7  C   LIG    1       -2.516   1.301   0.035  0.00  0.00    +0.012 A 
ATOM      8  C   LIG    1       -1.289   1.954   0.019  0.00  0.00    +0.039 A 
ATOM      9  C   LIG    1       -0.014   1.209   0.009  0.00  0.00    +0.249 C 
ATOM     10  O   LIG    1        0.002  -0.004   0.002  0.00  0.00    -0.282 OA
ATOM     11  O   LIG    1        0.117   5.254   0.029  0.00  0.00    -0.270 OA
ATOM     12  C   LIG    1        1.257   1.999   0.001  0.00  0.00    +0.293 C 
ATOM     13  O   LIG    1        2.325   1.424  -0.013  0.00  0.00    -0.266 OA
ENDROOT
BRANCH   1  14
ATOM     14  C   LIG    1        2.487   4.078  -0.001  0.00  0.00    +0.122 C 
BRANCH  14  15
ATOM     15  C   LIG    1        2.914   4.341  -1.446  0.00  0.00    +0.054 C 
BRANCH  15  19
ATOM     16  C   LIG    1        6.609   6.485  -1.472  0.00  0.00    +0.000 A 
ATOM     17  C   LIG    1        6.612   5.103  -1.479  0.00  0.00    +0.000 A 
ATOM     18  C   LIG    1        5.416   4.409  -1.470  0.00  0.00    +0.004 A 
ATOM     19  C   LIG    1        4.218   5.097  -1.455  0.00  0.00    -0.046 A 
ATOM     20  C   LIG    1        4.215   6.480  -1.454  0.00  0.00    +0.004 A 
ATOM     21  C   LIG    1        5.410   7.173  -1.456  0.00  0.00    +0.000 A 
ENDBRANCH  15  19
ENDBRANCH  14  15
ENDBRANCH   1  14
TORSDOF 3
