REMARK  Name = ZINC13559595
REMARK                            x       y       z     vdW  Elec       q    Type
REMARK                         _______ _______ _______ _____ _____    ______ ____
ROOT
ATOM      1  C   LIG    1       -0.018   1.461   0.010  0.00  0.00    +0.175 C 
ATOM      2  N   LIG    1        0.002  -0.004   0.002  0.00  0.00    -0.244 N 
ATOM      3  C   LIG    1       -1.151  -0.714   0.004  0.00  0.00    +0.185 A 
ATOM      4  S   LIG    1       -0.610  -2.306  -0.008  0.00  0.00    -0.011 S 
ATOM      5  C   LIG    1        1.145  -1.996  -0.015  0.00  0.00    +0.254 A 
ATOM      6  N   LIG    1       -2.405  -0.262   0.013  0.00  0.00    -0.151 NA
ATOM      7  N   LIG    1        1.195  -0.695  -0.014  0.00  0.00    -0.142 NA
ENDROOT
BRANCH   5   8
ATOM      8  S   LIG    1        2.473  -3.154  -0.029  0.00  0.00    +0.081 S 
ATOM      9  O   LIG    1        3.672  -2.397  -0.122  0.00  0.00    -0.151 OA
ATOM     10  O   LIG    1        2.129  -4.155  -0.977  0.00  0.00    -0.151 OA
BRANCH   8  11
ATOM     11  N   LIG    1        2.494  -3.893   1.453  0.00  0.00    -0.202 NA
ATOM     12  H   LIG    1        2.189  -3.412   2.238  0.00  0.00    +0.144 HD
ATOM     13  H   LIG    1        2.811  -4.806   1.535  0.00  0.00    +0.144 HD
ENDBRANCH   8  11
ENDBRANCH   5   8
BRANCH   6  14
ATOM     14  C   LIG    1       -3.424  -1.123   0.013  0.00  0.00    +0.269 C 
ATOM     15  O   LIG    1       -3.208  -2.323   0.006  0.00  0.00    -0.268 OA
BRANCH  14  16
ATOM     16  C   LIG    1       -4.818  -0.621   0.023  0.00  0.00    +0.039 A 
ATOM     17  C   LIG    1       -5.068   0.751   0.026  0.00  0.00    +0.013 A 
ATOM     18  C   LIG    1       -6.368   1.213   0.035  0.00  0.00    +0.001 A 
ATOM     19  C   LIG    1       -7.423   0.318   0.041  0.00  0.00    +0.000 A 
ATOM     20  C   LIG    1       -7.181  -1.044   0.038  0.00  0.00    +0.001 A 
ATOM     21  C   LIG    1       -5.885  -1.518   0.024  0.00  0.00    +0.013 A 
ENDBRANCH  14  16
ENDBRANCH   6  14
TORSDOF 4
