REMARK  Name = ZINC13732753
REMARK                            x       y       z     vdW  Elec       q    Type
REMARK                         _______ _______ _______ _____ _____    ______ ____
ROOT
ATOM      1  C   LIG    1       -0.095   5.610  -0.070  0.00  0.00    +0.280 C 
ATOM      2  C   LIG    1        0.389   6.135   1.254  0.00  0.00    +0.262 C 
ATOM      3  N   LIG    1        1.651   5.983   1.648  0.00  0.00    -0.271 N 
ATOM      4  C   LIG    1        2.005   6.473   2.983  0.00  0.00    +0.138 C 
ATOM      5  C   LIG    1        2.657   5.397   0.895  0.00  0.00    +0.045 A 
ATOM      6  C   LIG    1        3.919   5.994   0.936  0.00  0.00    +0.024 A 
ATOM      7  C   LIG    1        4.968   5.467   0.217  0.00  0.00    +0.002 A 
ATOM      8  C   LIG    1        4.780   4.334  -0.558  0.00  0.00    +0.001 A 
ATOM      9  C   LIG    1        3.544   3.734  -0.612  0.00  0.00    +0.012 A 
ATOM     10  C   LIG    1        2.464   4.260   0.121  0.00  0.00    +0.022 A 
ATOM     11  C   LIG    1        1.170   3.568   0.010  0.00  0.00    +0.077 C 
ATOM     12  O   LIG    1       -0.393   6.710   1.982  0.00  0.00    -0.271 OA
ATOM     13  N   LIG    1        0.029   4.153  -0.076  0.00  0.00    -0.251 NA
ENDROOT
BRANCH   1  17
ATOM     14  N   LIG    1        0.872   7.162  -3.260  0.00  0.00    -0.295 N 
ATOM     15  H   LIG    1        1.837   7.201  -3.172  0.00  0.00    +0.151 HD
ATOM     16  C   LIG    1        0.124   6.642  -2.267  0.00  0.00    +0.302 C 
ATOM     17  N   LIG    1        0.718   6.176  -1.150  0.00  0.00    -0.270 N 
ATOM     18  H   LIG    1        1.683   6.214  -1.062  0.00  0.00    +0.153 HD
ATOM     19  O   LIG    1       -1.085   6.594  -2.378  0.00  0.00    -0.253 OA
BRANCH  14  21
ATOM     20  C   LIG    1       -0.736   8.800  -4.106  0.00  0.00    +0.031 C 
ATOM     21  C   LIG    1        0.227   7.669  -4.474  0.00  0.00    +0.028 C 
ATOM     22  C   LIG    1       -0.550   6.537  -5.150  0.00  0.00    +0.031 C 
ATOM     23  C   LIG    1        1.293   8.200  -5.434  0.00  0.00    +0.031 C 
ENDBRANCH  14  21
ENDBRANCH   1  17
BRANCH  11  24
ATOM     24  C   LIG    1        1.183   2.087   0.002  0.00  0.00    +0.001 A 
ATOM     25  C   LIG    1        0.125   1.380  -0.569  0.00  0.00    +0.010 A 
ATOM     26  C   LIG    1        0.143   0.000  -0.574  0.00  0.00    +0.001 A 
ATOM     27  C   LIG    1        1.208  -0.682  -0.013  0.00  0.00    +0.000 A 
ATOM     28  C   LIG    1        2.261   0.013   0.555  0.00  0.00    +0.001 A 
ATOM     29  C   LIG    1        2.254   1.393   0.566  0.00  0.00    +0.010 A 
ENDBRANCH  11  24
TORSDOF 3
