REMARK  Name = ZINC13732834
REMARK                            x       y       z     vdW  Elec       q    Type
REMARK                         _______ _______ _______ _____ _____    ______ ____
ROOT
ATOM      1  C   LIG    1        2.417   6.755   2.917  0.00  0.00    +0.138 C 
ATOM      2  N   LIG    1        1.880   6.230   1.658  0.00  0.00    -0.271 N 
ATOM      3  C   LIG    1        2.719   5.443   0.885  0.00  0.00    +0.045 A 
ATOM      4  C   LIG    1        4.055   5.837   0.782  0.00  0.00    +0.024 A 
ATOM      5  C   LIG    1        4.948   5.103   0.034  0.00  0.00    +0.002 A 
ATOM      6  C   LIG    1        4.527   3.960  -0.626  0.00  0.00    +0.001 A 
ATOM      7  C   LIG    1        3.215   3.557  -0.538  0.00  0.00    +0.012 A 
ATOM      8  C   LIG    1        2.292   4.295   0.226  0.00  0.00    +0.022 A 
ATOM      9  C   LIG    1        0.904   3.808   0.268  0.00  0.00    +0.077 C 
ATOM     10  N   LIG    1       -0.140   4.557   0.217  0.00  0.00    -0.251 NA
ATOM     11  C   LIG    1       -0.042   6.012   0.110  0.00  0.00    +0.280 C 
ATOM     12  C   LIG    1        0.626   6.548   1.347  0.00  0.00    +0.262 C 
ATOM     13  O   LIG    1        0.005   7.289   2.079  0.00  0.00    -0.271 OA
ENDROOT
BRANCH   9  14
ATOM     14  C   LIG    1        0.694   2.346   0.383  0.00  0.00    +0.001 A 
ATOM     15  C   LIG    1        1.693   1.536   0.922  0.00  0.00    +0.010 A 
ATOM     16  C   LIG    1        1.491   0.175   1.027  0.00  0.00    +0.001 A 
ATOM     17  C   LIG    1        0.301  -0.386   0.600  0.00  0.00    +0.000 A 
ATOM     18  C   LIG    1       -0.694   0.413   0.065  0.00  0.00    +0.001 A 
ATOM     19  C   LIG    1       -0.504   1.775  -0.046  0.00  0.00    +0.010 A 
ENDBRANCH   9  14
BRANCH  11  20
ATOM     20  N   LIG    1        0.751   6.364  -1.071  0.00  0.00    -0.270 N 
ATOM     21  H   LIG    1        1.716   6.258  -1.056  0.00  0.00    +0.153 HD
ATOM     22  C   LIG    1        0.142   6.837  -2.176  0.00  0.00    +0.306 C 
ATOM     23  N   LIG    1        0.872   7.161  -3.262  0.00  0.00    -0.269 N 
ATOM     24  H   LIG    1        1.827   6.993  -3.272  0.00  0.00    +0.156 HD
ATOM     25  O   LIG    1       -1.067   6.970  -2.194  0.00  0.00    -0.252 OA
BRANCH  23  26
ATOM     26  C   LIG    1        0.251   7.740  -4.375  0.00  0.00    +0.035 A 
ATOM     27  C   LIG    1       -1.030   7.348  -4.739  0.00  0.00    +0.025 A 
ATOM     28  C   LIG    1       -1.642   7.925  -5.835  0.00  0.00    +0.034 A 
ATOM     29  C   LIG    1       -0.975   8.883  -6.575  0.00  0.00    +0.122 A 
ATOM     30  C   LIG    1        0.303   9.272  -6.218  0.00  0.00    +0.034 A 
ATOM     31  C   LIG    1        0.918   8.703  -5.120  0.00  0.00    +0.025 A 
BRANCH  29  32
ATOM     32  N   LIG    1       -1.631   9.496  -7.752  0.00  0.00    +0.006 N 
ATOM     33  O   LIG    1       -1.046  10.341  -8.405  0.00  0.00    -0.130 OA
BRANCH  32  34
ATOM     34  O   LIG    1       -2.757   9.155  -8.068  0.00  0.00    -0.396 OA
ATOM     35  H   LIG    1       -3.208   8.505  -7.565  0.00  0.00    +0.329 HD
ENDBRANCH  32  34
ENDBRANCH  29  32
ENDBRANCH  23  26
ENDBRANCH  11  20
TORSDOF 5
