REMARK  Name = ZINC13641436
REMARK                            x       y       z     vdW  Elec       q    Type
REMARK                         _______ _______ _______ _____ _____    ______ ____
ROOT
ATOM      1  C   LIG    1       -2.042   0.521  -0.076  0.00  0.00    -0.037 C 
ATOM      2  C   LIG    1       -1.573   0.014   1.290  0.00  0.00    +0.010 C 
ENDROOT
BRANCH   1   3
ATOM      3  C   LIG    1       -3.544   0.808  -0.024  0.00  0.00    +0.008 C 
BRANCH   3   5
ATOM      4  C   LIG    1       -5.198   2.490   0.799  0.00  0.00    +0.007 C 
ATOM      5  C   LIG    1       -3.825   1.862   1.049  0.00  0.00    -0.017 C 
ATOM      6  C   LIG    1       -3.810   1.201   2.429  0.00  0.00    +0.007 C 
ENDBRANCH   3   5
ENDBRANCH   1   3
BRANCH   1   7
ATOM      7  C   LIG    1       -1.763  -0.544  -1.138  0.00  0.00    -0.079 C 
BRANCH   7   8
ATOM      8  N   LIG    1       -2.068   0.013  -2.468  0.00  0.00    +0.378 N 
ATOM      9  H   LIG    1       -1.455   0.818  -2.645  0.00  0.00    -0.090 HD
ATOM     10  H   LIG    1       -3.038   0.320  -2.504  0.00  0.00    -0.090 HD
ATOM     11  H   LIG    1       -1.908  -0.691  -3.187  0.00  0.00    -0.090 HD
ENDBRANCH   7   8
ENDBRANCH   1   7
BRANCH   1  12
ATOM     12  C   LIG    1       -1.289   1.805  -0.430  0.00  0.00    +0.125 C 
BRANCH  12  13
ATOM     13  C   LIG    1        0.190   1.522  -0.480  0.00  0.00    +0.305 C 
ATOM     14  O   LIG    1        0.600   0.407  -0.256  0.00  0.00    -0.251 OA
BRANCH  13  15
ATOM     15  O   LIG    1        1.052   2.506  -0.780  0.00  0.00    -0.481 OA
ATOM     16  H   LIG    1        0.734   3.370  -0.954  0.00  0.00    +0.295 HD
ENDBRANCH  13  15
ENDBRANCH  12  13
ENDBRANCH   1  12
TORSDOF 7
