REMARK  Name = ZINC13657906
REMARK                            x       y       z     vdW  Elec       q    Type
REMARK                         _______ _______ _______ _____ _____    ______ ____
ROOT
ATOM      1  C   LIG    1       -0.018   1.503   0.010  0.00  0.00    +0.070 C 
ATOM      2  C   LIG    1        0.002  -0.004   0.002  0.00  0.00    +0.088 C 
ATOM      3  N   LIG    1        0.008  -0.764  -1.049  0.00  0.00    -0.182 NA
ATOM      4  N   LIG    1        0.029  -2.115  -0.701  0.00  0.00    -0.201 N 
ATOM      5  H   LIG    1        0.036  -2.851  -1.333  0.00  0.00    +0.178 HD
ATOM      6  C   LIG    1        0.036  -2.248   0.641  0.00  0.00    +0.285 C 
ATOM      7  O   LIG    1        0.054  -3.289   1.275  0.00  0.00    -0.267 OA
ATOM      8  C   LIG    1        0.025  -0.879   1.184  0.00  0.00    +0.167 C 
ATOM      9  N   LIG    1        0.032  -0.517   2.454  0.00  0.00    -0.175 NA
ENDROOT
BRANCH   9  10
ATOM     10  N   LIG    1        0.053  -1.414   3.381  0.00  0.00    -0.236 N 
ATOM     11  H   LIG    1        0.064  -2.355   3.145  0.00  0.00    +0.174 HD
BRANCH  10  12
ATOM     12  C   LIG    1        0.060  -1.031   4.723  0.00  0.00    +0.067 A 
ATOM     13  C   LIG    1        0.039   0.316   5.063  0.00  0.00    +0.026 A 
ATOM     14  C   LIG    1        0.046   0.692   6.391  0.00  0.00    +0.002 A 
ATOM     15  C   LIG    1        0.075  -0.271   7.384  0.00  0.00    +0.002 A 
ATOM     16  C   LIG    1        0.096  -1.613   7.051  0.00  0.00    +0.022 A 
ATOM     17  C   LIG    1        0.083  -1.997   5.723  0.00  0.00    +0.063 A 
ATOM     18 CL   LIG    1        0.102  -3.682   5.305  0.00  0.00    -0.082 Cl
ENDBRANCH  10  12
ENDBRANCH   9  10
TORSDOF 2
