REMARK  Name = ZINC13742643
REMARK                            x       y       z     vdW  Elec       q    Type
REMARK                         _______ _______ _______ _____ _____    ______ ____
ROOT
ATOM      1  C   LIG    1        0.233   1.519   2.349  0.00  0.00    -0.063 C 
ATOM      2  C   LIG    1       -0.429   2.138   3.584  0.00  0.00    -0.009 C 
ATOM      3  C   LIG    1        0.426   1.876   4.825  0.00  0.00    +0.055 C 
ATOM      4  C   LIG    1        1.851   2.341   4.546  0.00  0.00    +0.054 A 
ATOM      5  C   LIG    1        2.273   2.524   3.269  0.00  0.00    +0.013 A 
ATOM      6  S   LIG    1        3.951   3.052   3.485  0.00  0.00    -0.057 S 
ATOM      7  C   LIG    1        3.972   2.991   5.223  0.00  0.00    +0.156 A 
ATOM      8  N   LIG    1        2.748   2.590   5.499  0.00  0.00    -0.230 NA
ATOM      9  C   LIG    1        1.498   2.324   2.011  0.00  0.00    +0.029 C 
ENDROOT
BRANCH   7  10
ATOM     10  N   LIG    1        5.009   3.288   6.093  0.00  0.00    -0.338 N 
ATOM     11  H   LIG    1        4.876   3.209   7.050  0.00  0.00    +0.144 HD
ATOM     12  H   LIG    1        5.867   3.576   5.744  0.00  0.00    +0.144 HD
ENDBRANCH   7  10
BRANCH   1  13
ATOM     13  N   LIG    1       -0.707   1.596   1.210  0.00  0.00    +0.382 N 
ATOM     14  H   LIG    1       -0.973   2.576   1.063  0.00  0.00    -0.081 HD
BRANCH  13  15
ATOM     15  C   LIG    1       -0.058   1.085  -0.015  0.00  0.00    -0.079 C 
BRANCH  15  17
ATOM     16  C   LIG    1       -0.117   1.173  -2.511  0.00  0.00    +0.002 C 
ATOM     17  C   LIG    1       -0.853   1.569  -1.230  0.00  0.00    -0.022 C 
ENDBRANCH  15  17
ENDBRANCH  13  15
BRANCH  13  18
ATOM     18  C   LIG    1       -1.922   0.807   1.505  0.00  0.00    -0.079 C 
BRANCH  18  19
ATOM     19  C   LIG    1       -1.556  -0.642   1.831  0.00  0.00    -0.022 C 
ATOM     20  C   LIG    1       -2.834  -1.462   2.014  0.00  0.00    +0.002 C 
ENDBRANCH  18  19
ENDBRANCH  13  18
ENDBRANCH   1  13
TORSDOF 6
