REMARK  Name = ZINC13641835
REMARK                            x       y       z     vdW  Elec       q    Type
REMARK                         _______ _______ _______ _____ _____    ______ ____
ROOT
ATOM      1  C   LIG    1        3.716   2.763  -2.876  0.00  0.00    +0.008 A 
ATOM      2  C   LIG    1        3.562   1.539  -2.237  0.00  0.00    +0.015 A 
ATOM      3  C   LIG    1        2.303   0.989  -2.096  0.00  0.00    +0.004 A 
ATOM      4  C   LIG    1        1.197   1.655  -2.591  0.00  0.00    -0.049 A 
ATOM      5  C   LIG    1        1.347   2.871  -3.232  0.00  0.00    +0.004 A 
ATOM      6  C   LIG    1        2.602   3.429  -3.372  0.00  0.00    +0.015 A 
ENDROOT
BRANCH   1   7
ATOM      7  S   LIG    1        5.321   3.468  -3.058  0.00  0.00    -0.125 S 
BRANCH   7   9
ATOM      8  C   LIG    1        6.347   5.752  -4.160  0.00  0.00    +0.015 C 
ATOM      9  C   LIG    1        5.018   5.027  -3.933  0.00  0.00    +0.071 C 
ENDBRANCH   7   9
ENDBRANCH   1   7
BRANCH   4  10
ATOM     10  C   LIG    1       -0.175   1.052  -2.435  0.00  0.00    +0.018 C 
BRANCH  10  11
ATOM     11  C   LIG    1       -0.795   1.527  -1.120  0.00  0.00    -0.074 C 
ATOM     12  C   LIG    1       -2.234   1.016  -1.020  0.00  0.00    -0.014 C 
BRANCH  11  13
ATOM     13  N   LIG    1       -0.025   1.014   0.027  0.00  0.00    +0.380 N 
ATOM     14  H   LIG    1       -0.476   1.316   0.899  0.00  0.00    -0.090 HD
ATOM     15  H   LIG    1        0.925   1.379   0.001  0.00  0.00    -0.090 HD
ATOM     16  H   LIG    1        0.002  -0.004   0.002  0.00  0.00    -0.090 HD
ENDBRANCH  11  13
ENDBRANCH  10  11
ENDBRANCH   4  10
TORSDOF 5
