REMARK  Name = ZINC13674168
REMARK                            x       y       z     vdW  Elec       q    Type
REMARK                         _______ _______ _______ _____ _____    ______ ____
ROOT
ATOM      1  C   LIG    1        1.319   2.013  -2.492  0.00  0.00    +0.012 C 
ATOM      2  C   LIG    1        2.107   1.550  -1.265  0.00  0.00    -0.022 C 
ATOM      3  C   LIG    1        3.543   2.067  -1.357  0.00  0.00    +0.011 C 
ATOM      4  C   LIG    1        4.105   1.672  -2.726  0.00  0.00    +0.027 C 
ATOM      5  C   LIG    1        3.808   0.234  -3.030  0.00  0.00    -0.031 C 
ATOM      6  C   LIG    1        2.947  -0.493  -2.387  0.00  0.00    -0.027 C 
ATOM      7  C   LIG    1        1.416   2.054  -0.000  0.00  0.00    -0.001 C 
ATOM      8  C   LIG    1        1.448   3.577   0.048  0.00  0.00    +0.005 C 
ATOM      9  C   LIG    1        0.662   4.115   1.256  0.00  0.00    +0.015 C 
ATOM     10  C   LIG    1       -0.754   3.586   1.146  0.00  0.00    +0.029 C 
ATOM     11  C   LIG    1       -1.338   3.961  -0.217  0.00  0.00    +0.019 C 
ATOM     12  C   LIG    1       -0.687   2.040   1.276  0.00  0.00    +0.006 C 
ATOM     13  C   LIG    1       -2.170   1.688   1.426  0.00  0.00    +0.012 C 
ATOM     14  C   LIG    1       -2.674   2.802   2.384  0.00  0.00    +0.075 C 
ATOM     15  C   LIG    1       -1.713   3.977   2.230  0.00  0.00    +0.139 C 
ATOM     16  O   LIG    1       -1.724   5.011   2.854  0.00  0.00    -0.297 OA
ATOM     17  C   LIG    1       -0.026   1.520   0.013  0.00  0.00    -0.003 C 
ATOM     18  C   LIG    1       -0.011  -0.008   0.006  0.00  0.00    +0.005 C 
ATOM     19  C   LIG    1        0.720  -0.520  -1.240  0.00  0.00    +0.008 C 
ATOM     20  C   LIG    1        2.147   0.021  -1.231  0.00  0.00    +0.018 C 
ENDROOT
TORSDOF 0
