REMARK  Name = ZINC13645654
REMARK                            x       y       z     vdW  Elec       q    Type
REMARK                         _______ _______ _______ _____ _____    ______ ____
ROOT
ATOM      1  C   LIG    1        2.852  -3.845  -0.559  0.00  0.00    +0.008 C 
ATOM      2  C   LIG    1        2.751  -2.623  -0.011  0.00  0.00    +0.009 C 
ENDROOT
BRANCH   1   6
ATOM      3  C   LIG    1       -0.536  -5.641  -2.380  0.00  0.00    +0.150 A 
ATOM      4  C   LIG    1       -0.330  -4.272  -2.499  0.00  0.00    +0.048 A 
ATOM      5  C   LIG    1        0.768  -3.685  -1.910  0.00  0.00    +0.011 A 
ATOM      6  C   LIG    1        1.675  -4.468  -1.190  0.00  0.00    -0.023 A 
ATOM      7  C   LIG    1        1.466  -5.845  -1.077  0.00  0.00    +0.044 A 
ATOM      8  C   LIG    1        0.362  -6.423  -1.666  0.00  0.00    +0.164 A 
BRANCH   3  10
ATOM      9  C   LIG    1       -2.556  -5.341  -3.597  0.00  0.00    +0.277 C 
ATOM     10  O   LIG    1       -1.620  -6.216  -2.962  0.00  0.00    -0.493 OA
ENDBRANCH   3  10
BRANCH   8  11
ATOM     11  N   LIG    1        0.137  -7.881  -1.542  0.00  0.00    +0.010 N 
ATOM     12  O   LIG    1        0.924  -8.568  -0.917  0.00  0.00    -0.130 OA
BRANCH  11  13
ATOM     13  O   LIG    1       -0.836  -8.393  -2.066  0.00  0.00    -0.396 OA
ATOM     14  H   LIG    1       -1.442  -7.865  -2.548  0.00  0.00    +0.329 HD
ENDBRANCH  11  13
ENDBRANCH   8  11
ENDBRANCH   1   6
BRANCH   2  15
ATOM     15  C   LIG    1        1.429  -1.992   0.146  0.00  0.00    -0.018 A 
ATOM     16  C   LIG    1        0.318  -2.770   0.485  0.00  0.00    +0.057 A 
ATOM     17  C   LIG    1       -0.922  -2.175   0.632  0.00  0.00    +0.166 A 
ATOM     18  C   LIG    1       -1.063  -0.803   0.447  0.00  0.00    +0.204 A 
ATOM     19  C   LIG    1        0.040  -0.027   0.104  0.00  0.00    +0.166 A 
ATOM     20  C   LIG    1        1.282  -0.616  -0.044  0.00  0.00    +0.057 A 
BRANCH  17  21
ATOM     21  O   LIG    1       -2.003  -2.930   0.962  0.00  0.00    -0.491 OA
ATOM     22  C   LIG    1       -1.770  -4.314   1.232  0.00  0.00    +0.277 C 
ENDBRANCH  17  21
BRANCH  18  23
ATOM     23  O   LIG    1       -2.283  -0.220   0.598  0.00  0.00    -0.488 OA
ATOM     24  C   LIG    1       -3.111  -0.138  -0.564  0.00  0.00    +0.277 C 
ENDBRANCH  18  23
BRANCH  19  25
ATOM     25  O   LIG    1       -0.104   1.313  -0.081  0.00  0.00    -0.491 OA
ATOM     26  C   LIG    1        1.071   2.050  -0.426  0.00  0.00    +0.277 C 
ENDBRANCH  19  25
ENDBRANCH   2  15
TORSDOF 8
