REMARK  Name = ZINC13686757
REMARK                            x       y       z     vdW  Elec       q    Type
REMARK                         _______ _______ _______ _____ _____    ______ ____
ROOT
ATOM      1  C   LIG    1       -3.347   2.083   0.030  0.00  0.00    +0.230 A 
ATOM      2  N   LIG    1       -2.733   3.236   0.033  0.00  0.00    -0.202 NA
ATOM      3  C   LIG    1       -1.391   3.013   0.031  0.00  0.00    +0.186 A 
ATOM      4  C   LIG    1       -1.212   1.637   0.017  0.00  0.00    +0.217 A 
ATOM      5  O   LIG    1       -2.439   1.088   0.020  0.00  0.00    -0.421 OA
ENDROOT
BRANCH   1   9
ATOM      6  C   LIG    1       -7.561   1.552   0.046  0.00  0.00    -0.042 A 
ATOM      7  C   LIG    1       -6.728   0.448   0.037  0.00  0.00    +0.005 A 
ATOM      8  C   LIG    1       -5.359   0.613   0.031  0.00  0.00    +0.013 A 
ATOM      9  C   LIG    1       -4.814   1.898   0.036  0.00  0.00    +0.037 A 
ATOM     10  C   LIG    1       -5.660   3.008   0.051  0.00  0.00    +0.013 A 
ATOM     11  C   LIG    1       -7.028   2.829   0.051  0.00  0.00    +0.005 A 
BRANCH   6  13
ATOM     12  C   LIG    1       -9.467   0.578   1.299  0.00  0.00    +0.015 C 
ATOM     13  C   LIG    1       -9.056   1.364   0.052  0.00  0.00    -0.013 C 
ATOM     14  C   LIG    1       -9.478   0.592  -1.199  0.00  0.00    +0.015 C 
ATOM     15  C   LIG    1       -9.742   2.732   0.063  0.00  0.00    +0.015 C 
ENDBRANCH   6  13
ENDBRANCH   1   9
BRANCH   3  16
ATOM     16  C   LIG    1       -0.337   4.031   0.038  0.00  0.00    +0.265 C 
ATOM     17  N   LIG    1       -0.663   5.339   0.052  0.00  0.00    -0.324 N 
ATOM     18  H   LIG    1        0.035   6.013   0.057  0.00  0.00    +0.145 HD
ATOM     19  H   LIG    1       -1.595   5.606   0.057  0.00  0.00    +0.145 HD
ATOM     20  O   LIG    1        0.834   3.696   0.033  0.00  0.00    -0.269 OA
ENDBRANCH   3  16
BRANCH   4  21
ATOM     21  N   LIG    1       -0.011   0.966   0.007  0.00  0.00    -0.327 N 
ATOM     22  H   LIG    1        0.822   1.462   0.002  0.00  0.00    +0.145 HD
ATOM     23  H   LIG    1        0.002  -0.004   0.002  0.00  0.00    +0.145 HD
ENDBRANCH   4  21
TORSDOF 4
