REMARK  Name = ZINC13679474
REMARK                            x       y       z     vdW  Elec       q    Type
REMARK                         _______ _______ _______ _____ _____    ______ ____
ROOT
ATOM      1  C   LIG    1       -0.018   1.503   0.010  0.00  0.00    +0.044 C 
ATOM      2  C   LIG    1        0.002  -0.004   0.002  0.00  0.00    -0.048 A 
ATOM      3  C   LIG    1        0.006  -0.686  -1.206  0.00  0.00    +0.005 A 
ATOM      4  C   LIG    1        0.025  -2.052  -1.235  0.00  0.00    +0.030 A 
ATOM      5  C   LIG    1        0.041  -2.774  -0.037  0.00  0.00    +0.090 A 
ATOM      6  C   LIG    1        0.037  -2.083   1.187  0.00  0.00    +0.067 A 
ATOM      7  N   LIG    1        0.055  -3.048   2.176  0.00  0.00    -0.337 N 
ATOM      8  C   LIG    1        0.068  -4.267   1.552  0.00  0.00    +0.158 A 
ATOM      9  H   LIG    1        0.057  -2.892   3.133  0.00  0.00    +0.167 HD
ATOM     10  N   LIG    1        0.060  -4.099   0.251  0.00  0.00    -0.226 NA
ATOM     11  C   LIG    1        0.023  -0.695   1.196  0.00  0.00    +0.031 A 
ENDROOT
BRANCH   8  12
ATOM     12  C   LIG    1        0.090  -5.574   2.239  0.00  0.00    +0.113 A 
ATOM     13  C   LIG    1        0.108  -6.758   1.544  0.00  0.00    +0.078 A 
ATOM     14  S   LIG    1        0.129  -7.929   2.891  0.00  0.00    -0.083 S 
ATOM     15  C   LIG    1        0.113  -6.828   4.163  0.00  0.00    +0.156 A 
ATOM     16  N   LIG    1        0.098  -5.668   3.563  0.00  0.00    -0.244 NA
ENDBRANCH   8  12
TORSDOF 1
