REMARK  Name = ZINC13742899
REMARK                            x       y       z     vdW  Elec       q    Type
REMARK                         _______ _______ _______ _____ _____    ______ ____
ROOT
ATOM      1  C   LIG    1       -1.584   5.017  -2.303  0.00  0.00    +0.017 C 
ATOM      2  C   LIG    1       -1.671   3.490  -2.253  0.00  0.00    +0.068 C 
ENDROOT
BRANCH   2   3
ATOM      3  P   LIG    1       -1.004   2.793  -3.800  0.00  0.00    +0.193 P 
ATOM      4  O   LIG    1       -0.767   1.343  -3.626  0.00  0.00    -0.294 OA
ATOM      5  H   LIG    1       -0.019   3.139  -4.149  0.00  0.00    +0.128 HD
BRANCH   3   6
ATOM      6  O   LIG    1       -2.060   3.025  -4.993  0.00  0.00    -0.345 OA
ATOM      7  H   LIG    1       -2.215   3.976  -5.107  0.00  0.00    +0.217 HD
ENDBRANCH   3   6
ENDBRANCH   2   3
BRANCH   2   8
ATOM      8  C   LIG    1       -0.857   2.971  -1.067  0.00  0.00    -0.007 C 
BRANCH   8   9
ATOM      9  C   LIG    1       -1.500   3.443   0.239  0.00  0.00    -0.086 C 
BRANCH   9  10
ATOM     10  N   LIG    1       -0.792   2.843   1.378  0.00  0.00    +0.378 N 
ATOM     11  H   LIG    1       -0.857   1.747   1.313  0.00  0.00    -0.090 HD
ATOM     12  H   LIG    1        0.264   3.150   1.357  0.00  0.00    -0.090 HD
ATOM     13  H   LIG    1       -1.255   3.183   2.317  0.00  0.00    -0.090 HD
ENDBRANCH   9  10
ENDBRANCH   8   9
ENDBRANCH   2   8
TORSDOF 5
