REMARK  Name = ZINC13737665
REMARK                            x       y       z     vdW  Elec       q    Type
REMARK                         _______ _______ _______ _____ _____    ______ ____
ROOT
ATOM      1  N   LIG    1        5.057  -0.309   3.688  0.00  0.00    -0.324 N 
ATOM      2  H   LIG    1        4.214  -0.061   4.097  0.00  0.00    +0.148 HD
ENDROOT
BRANCH   1   9
ATOM      3  C   LIG    1        3.769   1.067   8.511  0.00  0.00    +0.044 C 
ATOM      4  C   LIG    1        5.040   0.671   7.804  0.00  0.00    -0.050 A 
ATOM      5  C   LIG    1        6.236   0.625   8.516  0.00  0.00    +0.005 A 
ATOM      6  C   LIG    1        7.403   0.272   7.907  0.00  0.00    +0.029 A 
ATOM      7  C   LIG    1        7.401  -0.052   6.543  0.00  0.00    +0.076 A 
ATOM      8  C   LIG    1        6.185   0.000   5.819  0.00  0.00    +0.040 A 
ATOM      9  C   LIG    1        6.209  -0.336   4.444  0.00  0.00    +0.130 A 
ATOM     10  N   LIG    1        7.372  -0.673   3.903  0.00  0.00    -0.220 NA
ATOM     11  C   LIG    1        8.485  -0.703   4.618  0.00  0.00    +0.223 A 
ATOM     12  N   LIG    1        8.521  -0.406   5.895  0.00  0.00    -0.235 NA
ATOM     13  C   LIG    1        5.003   0.362   6.476  0.00  0.00    +0.016 A 
ENDBRANCH   1   9
BRANCH   1  14
ATOM     14  C   LIG    1        5.107  -0.655   2.265  0.00  0.00    +0.138 C 
BRANCH  14  15
ATOM     15  C   LIG    1        3.725  -0.548   1.673  0.00  0.00    -0.027 A 
ATOM     16  C   LIG    1        2.886  -1.647   1.675  0.00  0.00    +0.009 A 
ATOM     17  C   LIG    1        1.617  -1.553   1.135  0.00  0.00    +0.050 A 
ATOM     18  C   LIG    1        1.183  -0.356   0.589  0.00  0.00    +0.166 A 
ATOM     19  C   LIG    1        2.028   0.751   0.586  0.00  0.00    +0.167 A 
ATOM     20  O   LIG    1        1.376   1.797  -0.001  0.00  0.00    -0.453 OA
ATOM     21  C   LIG    1       -0.018   1.436   0.010  0.00  0.00    +0.466 C 
ATOM     22  O   LIG    1        0.002  -0.004   0.002  0.00  0.00    -0.453 OA
ATOM     23  C   LIG    1        3.299   0.650   1.130  0.00  0.00    +0.054 A 
ENDBRANCH  14  15
ENDBRANCH   1  14
TORSDOF 3
