REMARK  Name = ZINC13741431
REMARK                            x       y       z     vdW  Elec       q    Type
REMARK                         _______ _______ _______ _____ _____    ______ ____
ROOT
ATOM      1  C   LIG    1       -0.108  -2.122  -1.108  0.00  0.00    +0.086 A 
ATOM      2  C   LIG    1        0.510  -0.883  -1.170  0.00  0.00    +0.134 A 
ATOM      3  C   LIG    1        0.614  -0.130   0.012  0.00  0.00    +0.033 A 
ATOM      4  C   LIG    1        0.128  -0.610   1.178  0.00  0.00    +0.116 A 
ATOM      5  C   LIG    1        0.286   0.231   2.418  0.00  0.00    +0.075 C 
ATOM      6  C   LIG    1        1.409  -0.351   3.272  0.00  0.00    +0.008 C 
ATOM      7  C   LIG    1        2.710  -0.389   2.426  0.00  0.00    +0.000 C 
ATOM      8  C   LIG    1        2.994   1.043   1.940  0.00  0.00    +0.000 C 
ATOM      9  C   LIG    1        2.695   1.171   0.461  0.00  0.00    +0.005 C 
ATOM     10  O   LIG    1       -0.470  -1.807   1.226  0.00  0.00    -0.427 OA
ATOM     11  C   LIG    1        1.260   1.229   0.037  0.00  0.00    +0.042 C 
ATOM     12  C   LIG    1       -0.599  -2.568   0.125  0.00  0.00    +0.344 A 
ATOM     13  O   LIG    1       -1.147  -3.655   0.201  0.00  0.00    -0.245 OA
ENDROOT
BRANCH   2  14
ATOM     14  O   LIG    1        1.000  -0.410  -2.340  0.00  0.00    -0.506 OA
ATOM     15  H   LIG    1        1.921  -0.652  -2.507  0.00  0.00    +0.292 HD
ENDBRANCH   2  14
BRANCH   1  16
ATOM     16  C   LIG    1       -0.249  -2.972  -2.344  0.00  0.00    +0.059 C 
BRANCH  16  17
ATOM     17  C   LIG    1       -1.656  -2.862  -2.872  0.00  0.00    -0.040 A 
ATOM     18  C   LIG    1       -2.728  -3.156  -2.050  0.00  0.00    +0.004 A 
ATOM     19  C   LIG    1       -4.019  -3.051  -2.533  0.00  0.00    +0.000 A 
ATOM     20  C   LIG    1       -4.238  -2.660  -3.841  0.00  0.00    +0.000 A 
ATOM     21  C   LIG    1       -3.166  -2.370  -4.664  0.00  0.00    +0.000 A 
ATOM     22  C   LIG    1       -1.875  -2.471  -4.180  0.00  0.00    +0.004 A 
ENDBRANCH  16  17
BRANCH  16  24
ATOM     23  C   LIG    1        0.032  -5.275  -3.272  0.00  0.00    +0.005 C 
ATOM     24  C   LIG    1        0.052  -4.431  -1.996  0.00  0.00    +0.010 C 
ENDBRANCH  16  24
ENDBRANCH   1  16
TORSDOF 4
