REMARK  Name = ZINC13686917
REMARK                            x       y       z     vdW  Elec       q    Type
REMARK                         _______ _______ _______ _____ _____    ______ ____
ROOT
ATOM      1  C   LIG    1       -0.017   1.377   0.010  0.00  0.00    +0.033 A 
ATOM      2  C   LIG    1        0.002  -0.004   0.002  0.00  0.00    +0.006 A 
ATOM      3  C   LIG    1        1.208  -0.688  -0.012  0.00  0.00    -0.041 A 
ATOM      4  C   LIG    1        2.395   0.013  -0.017  0.00  0.00    -0.028 A 
ATOM      5  C   LIG    1        3.730  -0.684  -0.026  0.00  0.00    +0.117 C 
ATOM      6  N   LIG    1        3.576  -2.082  -0.441  0.00  0.00    -0.304 NA
ATOM      7  H   LIG    1        3.275  -2.119  -1.498  0.00  0.00    +0.123 HD
ATOM      8  C   LIG    1        2.548  -2.746   0.376  0.00  0.00    +0.125 C 
ATOM      9  C   LIG    1        2.374   1.400  -0.012  0.00  0.00    +0.037 A 
ATOM     10  C   LIG    1        1.179  -2.195  -0.024  0.00  0.00    +0.059 C 
ATOM     11  C   LIG    1        1.173   2.080   0.002  0.00  0.00    +0.122 A 
ENDROOT
BRANCH   8  12
ATOM     12  C   LIG    1        2.588  -4.255   0.126  0.00  0.00    +0.358 C 
ATOM     13  F   LIG    1        2.364  -4.509  -1.231  0.00  0.00    -0.208 F 
ATOM     14  F   LIG    1        1.595  -4.880   0.887  0.00  0.00    -0.208 F 
ENDBRANCH   8  12
BRANCH  11  15
ATOM     15  N   LIG    1        1.159   3.560   0.009  0.00  0.00    +0.006 N 
ATOM     16  O   LIG    1        0.099   4.159   0.021  0.00  0.00    -0.130 OA
BRANCH  15  17
ATOM     17  O   LIG    1        2.208   4.179   0.002  0.00  0.00    -0.396 OA
ATOM     18  H   LIG    1        3.024   3.718  -0.007  0.00  0.00    +0.329 HD
ENDBRANCH  15  17
ENDBRANCH  11  15
TORSDOF 3
