REMARK  Name = ZINC13732790
REMARK                            x       y       z     vdW  Elec       q    Type
REMARK                         _______ _______ _______ _____ _____    ______ ____
ROOT
ATOM      1  C   LIG    1       -6.350   0.203  -1.786  0.00  0.00    +0.138 C 
ATOM      2  N   LIG    1       -5.625   1.171  -0.959  0.00  0.00    -0.271 N 
ATOM      3  C   LIG    1       -6.327   2.279  -0.509  0.00  0.00    +0.045 A 
ATOM      4  C   LIG    1       -7.212   2.885  -1.404  0.00  0.00    +0.024 A 
ATOM      5  C   LIG    1       -7.945   3.988  -1.027  0.00  0.00    +0.002 A 
ATOM      6  C   LIG    1       -7.812   4.509   0.250  0.00  0.00    +0.001 A 
ATOM      7  C   LIG    1       -6.944   3.926   1.144  0.00  0.00    +0.012 A 
ATOM      8  C   LIG    1       -6.189   2.802   0.775  0.00  0.00    +0.022 A 
ATOM      9  C   LIG    1       -5.278   2.232   1.780  0.00  0.00    +0.077 C 
ATOM     10  N   LIG    1       -4.094   1.795   1.536  0.00  0.00    -0.251 NA
ATOM     11  C   LIG    1       -3.526   1.816   0.188  0.00  0.00    +0.280 C 
ATOM     12  C   LIG    1       -4.344   0.919  -0.700  0.00  0.00    +0.262 C 
ATOM     13  O   LIG    1       -3.823  -0.059  -1.192  0.00  0.00    -0.271 OA
ENDROOT
BRANCH   9  14
ATOM     14  C   LIG    1       -5.761   2.158   3.179  0.00  0.00    +0.001 A 
ATOM     15  C   LIG    1       -4.850   2.128   4.234  0.00  0.00    +0.010 A 
ATOM     16  C   LIG    1       -5.306   2.065   5.535  0.00  0.00    +0.001 A 
ATOM     17  C   LIG    1       -6.664   2.019   5.793  0.00  0.00    +0.000 A 
ATOM     18  C   LIG    1       -7.574   2.041   4.750  0.00  0.00    +0.001 A 
ATOM     19  C   LIG    1       -7.130   2.110   3.446  0.00  0.00    +0.010 A 
ENDBRANCH   9  14
BRANCH  11  20
ATOM     20  N   LIG    1       -2.143   1.335   0.231  0.00  0.00    -0.270 N 
ATOM     21  H   LIG    1       -1.962   0.389   0.347  0.00  0.00    +0.153 HD
ATOM     22  C   LIG    1       -1.122   2.207   0.109  0.00  0.00    +0.306 C 
ATOM     23  N   LIG    1        0.150   1.764   0.149  0.00  0.00    -0.269 N 
ATOM     24  H   LIG    1        0.332   0.812   0.190  0.00  0.00    +0.156 HD
ATOM     25  O   LIG    1       -1.349   3.392  -0.036  0.00  0.00    -0.252 OA
BRANCH  23  26
ATOM     26  C   LIG    1        1.210   2.678   0.124  0.00  0.00    +0.036 A 
ATOM     27  C   LIG    1        2.368   2.420   0.847  0.00  0.00    +0.023 A 
ATOM     28  C   LIG    1        3.413   3.323   0.821  0.00  0.00    +0.003 A 
ATOM     29  C   LIG    1        3.307   4.483   0.077  0.00  0.00    +0.020 A 
ATOM     30  C   LIG    1        2.155   4.744  -0.644  0.00  0.00    +0.043 A 
ATOM     31 CL   LIG    1        2.027   6.202  -1.577  0.00  0.00    -0.083 Cl
ATOM     32  C   LIG    1        1.108   3.841  -0.627  0.00  0.00    +0.043 A 
ENDBRANCH  23  26
ENDBRANCH  11  20
TORSDOF 3
