REMARK  Name = ZINC13686921
REMARK                            x       y       z     vdW  Elec       q    Type
REMARK                         _______ _______ _______ _____ _____    ______ ____
ROOT
ATOM      1  C   LIG    1        1.172   2.081   0.002  0.00  0.00    +0.033 A 
ATOM      2  C   LIG    1        2.374   1.401  -0.015  0.00  0.00    +0.006 A 
ATOM      3  C   LIG    1        2.394   0.015  -0.025  0.00  0.00    -0.041 A 
ATOM      4  C   LIG    1        1.208  -0.689  -0.013  0.00  0.00    -0.028 A 
ATOM      5  C   LIG    1        1.177  -2.195  -0.009  0.00  0.00    +0.117 C 
ATOM      6  N   LIG    1        2.471  -2.736  -0.438  0.00  0.00    -0.304 NA
ATOM      7  H   LIG    1        2.476  -3.827  -0.302  0.00  0.00    +0.123 HD
ATOM      8  C   LIG    1        3.559  -2.148   0.360  0.00  0.00    +0.125 C 
ATOM      9  C   LIG    1        0.002  -0.004   0.002  0.00  0.00    +0.037 A 
ATOM     10  C   LIG    1        3.728  -0.685  -0.053  0.00  0.00    +0.059 C 
ATOM     11  C   LIG    1       -0.017   1.376   0.010  0.00  0.00    +0.122 A 
ENDROOT
BRANCH   8  12
ATOM     12  C   LIG    1        4.860  -2.910   0.097  0.00  0.00    +0.358 C 
ATOM     13  F   LIG    1        5.870  -2.408   0.924  0.00  0.00    -0.208 F 
ATOM     14  F   LIG    1        5.231  -2.749  -1.243  0.00  0.00    -0.208 F 
ENDBRANCH   8  12
BRANCH  11  15
ATOM     15  N   LIG    1       -1.308   2.100   0.020  0.00  0.00    +0.006 N 
ATOM     16  O   LIG    1       -2.355   1.478   0.021  0.00  0.00    -0.130 OA
BRANCH  15  17
ATOM     17  O   LIG    1       -1.323   3.318   0.026  0.00  0.00    -0.396 OA
ATOM     18  H   LIG    1       -0.517   3.797   0.025  0.00  0.00    +0.329 HD
ENDBRANCH  15  17
ENDBRANCH  11  15
TORSDOF 3
