REMARK  Name = ZINC13675946
REMARK                            x       y       z     vdW  Elec       q    Type
REMARK                         _______ _______ _______ _____ _____    ______ ____
ROOT
ATOM      1  C   LIG    1        0.019   1.211  -2.468  0.00  0.00    +0.202 C 
ATOM      2  N   LIG    1        1.087   1.941  -2.849  0.00  0.00    -0.291 N 
ATOM      3  C   LIG    1        1.602   3.135  -2.154  0.00  0.00    +0.108 C 
ATOM      4  C   LIG    1        3.096   3.215  -2.564  0.00  0.00    +0.021 C 
ATOM      5  C   LIG    1        3.035   2.754  -4.045  0.00  0.00    +0.033 C 
ATOM      6  C   LIG    1        1.925   1.683  -4.028  0.00  0.00    +0.162 C 
ATOM      7  O   LIG    1       -0.320   0.247  -3.122  0.00  0.00    -0.277 OA
ENDROOT
BRANCH   6   8
ATOM      8  C   LIG    1        2.540   0.310  -3.929  0.00  0.00    +0.231 C 
ATOM      9  N   LIG    1        3.351  -0.138  -4.908  0.00  0.00    -0.328 N 
ATOM     10  H   LIG    1        3.746  -1.021  -4.844  0.00  0.00    +0.145 HD
ATOM     11  H   LIG    1        3.539   0.423  -5.676  0.00  0.00    +0.145 HD
ATOM     12  O   LIG    1        2.305  -0.392  -2.968  0.00  0.00    -0.274 OA
ENDBRANCH   6   8
BRANCH   1  13
ATOM     13  C   LIG    1       -0.753   1.593  -1.232  0.00  0.00    +0.013 C 
BRANCH  13  14
ATOM     14  N   LIG    1       -2.099   0.999  -1.306  0.00  0.00    +0.386 N 
ATOM     15  H   LIG    1       -2.566   1.325  -2.160  0.00  0.00    -0.089 HD
ATOM     16  H   LIG    1       -2.651   1.282  -0.497  0.00  0.00    -0.089 HD
ATOM     17  H   LIG    1       -2.032  -0.017  -1.331  0.00  0.00    -0.089 HD
ENDBRANCH  13  14
BRANCH  13  19
ATOM     18  C   LIG    1       -0.729   1.579   1.267  0.00  0.00    +0.002 C 
ATOM     19  C   LIG    1       -0.013   1.086   0.008  0.00  0.00    -0.011 C 
ENDBRANCH  13  19
ENDBRANCH   1  13
TORSDOF 4
