REMARK  Name = ZINC13686602
REMARK                            x       y       z     vdW  Elec       q    Type
REMARK                         _______ _______ _______ _____ _____    ______ ____
ROOT
ATOM      1  C   LIG    1        0.252   3.250  -4.111  0.00  0.00    +0.001 A 
ATOM      2  C   LIG    1        0.612   2.618  -2.933  0.00  0.00    +0.004 A 
ATOM      3  C   LIG    1        1.890   2.766  -2.424  0.00  0.00    -0.046 A 
ATOM      4  C   LIG    1        2.815   3.546  -3.088  0.00  0.00    +0.018 A 
ATOM      5  C   LIG    1        2.457   4.190  -4.273  0.00  0.00    +0.059 A 
ATOM      6  C   LIG    1        1.167   4.032  -4.784  0.00  0.00    +0.015 A 
ENDROOT
BRANCH   5   7
ATOM      7  C   LIG    1        3.440   5.031  -4.987  0.00  0.00    +0.337 C 
ATOM      8  O   LIG    1        4.562   5.163  -4.542  0.00  0.00    -0.245 OA
BRANCH   7   9
ATOM      9  O   LIG    1        3.091   5.652  -6.130  0.00  0.00    -0.477 OA
ATOM     10  H   LIG    1        2.225   5.551  -6.473  0.00  0.00    +0.295 HD
ENDBRANCH   7   9
ENDBRANCH   5   7
BRANCH   3  11
ATOM     11  C   LIG    1        2.273   2.075  -1.141  0.00  0.00    +0.050 C 
BRANCH  11  12
ATOM     12  C   LIG    1        2.857   0.697  -1.459  0.00  0.00    +0.111 C 
BRANCH  12  13
ATOM     13  C   LIG    1        1.784  -0.178  -2.054  0.00  0.00    +0.309 C 
ATOM     14  O   LIG    1        0.780  -0.416  -1.425  0.00  0.00    -0.251 OA
BRANCH  13  15
ATOM     15  O   LIG    1        1.944  -0.695  -3.282  0.00  0.00    -0.480 OA
ATOM     16  H   LIG    1        2.723  -0.511  -3.770  0.00  0.00    +0.295 HD
ENDBRANCH  13  15
ENDBRANCH  12  13
BRANCH  12  17
ATOM     17  C   LIG    1        3.383   0.057  -0.172  0.00  0.00    +0.080 C 
BRANCH  17  18
ATOM     18  S   LIG    1        4.207  -1.510  -0.570  0.00  0.00    -0.177 S 
ATOM     19  H   LIG    1        4.621  -1.972   0.624  0.00  0.00    +0.102 HD
ENDBRANCH  17  18
ENDBRANCH  12  17
ENDBRANCH  11  12
ENDBRANCH   3  11
TORSDOF 8
