REMARK  Name = ZINC13608047
REMARK                            x       y       z     vdW  Elec       q    Type
REMARK                         _______ _______ _______ _____ _____    ______ ____
ROOT
ATOM      1  C   LIG    1       -0.013   1.076   0.008  0.00  0.00    +0.001 A 
ATOM      2  C   LIG    1       -1.230   1.744   0.017  0.00  0.00    +0.001 A 
ATOM      3  C   LIG    1       -1.280   3.111   0.031  0.00  0.00    +0.012 A 
ATOM      4  C   LIG    1       -0.092   3.842   0.023  0.00  0.00    +0.025 A 
ATOM      5  C   LIG    1        1.147   3.162   0.008  0.00  0.00    -0.013 A 
ATOM      6  C   LIG    1        2.377   3.955  -0.000  0.00  0.00    +0.027 A 
ATOM      7  C   LIG    1        2.304   5.293   0.007  0.00  0.00    +0.097 A 
ATOM      8  N   LIG    1        1.111   5.970   0.021  0.00  0.00    -0.268 N 
ATOM      9  C   LIG    1        1.129   7.322   0.027  0.00  0.00    +0.260 A 
ATOM     10  O   LIG    1        2.192   7.925   0.019  0.00  0.00    -0.267 OA
ATOM     11  C   LIG    1       -0.078   8.021   0.041  0.00  0.00    +0.114 A 
ATOM     12  C   LIG    1       -1.267   7.302   0.049  0.00  0.00    +0.129 A 
ATOM     13  N   LIG    1       -1.232   5.969   0.043  0.00  0.00    -0.214 NA
ATOM     14  C   LIG    1       -0.085   5.310   0.030  0.00  0.00    +0.150 A 
ATOM     15  C   LIG    1        1.167   1.766   0.000  0.00  0.00    +0.008 A 
ENDROOT
BRANCH  12  16
ATOM     16  N   LIG    1       -2.480   7.965   0.063  0.00  0.00    -0.311 N 
ATOM     17  C   LIG    1       -2.616   8.790   1.272  0.00  0.00    +0.134 C 
ATOM     18  C   LIG    1       -3.943   9.551   1.218  0.00  0.00    +0.178 C 
ATOM     19  O   LIG    1       -5.017   8.616   1.077  0.00  0.00    -0.377 OA
ATOM     20  C   LIG    1       -4.917   7.797  -0.091  0.00  0.00    +0.178 C 
ATOM     21  C   LIG    1       -3.599   7.019  -0.050  0.00  0.00    +0.134 C 
ENDBRANCH  12  16
TORSDOF 1
