REMARK  Name = ZINC13671721
REMARK                            x       y       z     vdW  Elec       q    Type
REMARK                         _______ _______ _______ _____ _____    ______ ____
ROOT
ATOM      1  C   LIG    1       -5.023   5.210   0.096  0.00  0.00    +0.225 C 
ATOM      2  N   LIG    1       -5.100   3.991  -0.475  0.00  0.00    -0.285 N 
ATOM      3  H   LIG    1       -5.950   3.666  -0.812  0.00  0.00    +0.155 HD
ATOM      4  O   LIG    1       -3.950   5.641   0.461  0.00  0.00    -0.275 OA
ENDROOT
BRANCH   2   5
ATOM      5  C   LIG    1       -3.958   3.198  -0.583  0.00  0.00    +0.033 A 
ATOM      6  C   LIG    1       -2.978   3.255   0.403  0.00  0.00    +0.024 A 
ATOM      7  C   LIG    1       -1.850   2.473   0.300  0.00  0.00    +0.015 A 
ATOM      8  C   LIG    1       -1.690   1.621  -0.796  0.00  0.00    +0.039 A 
ATOM      9  C   LIG    1       -2.674   1.571  -1.787  0.00  0.00    +0.015 A 
ATOM     10  C   LIG    1       -3.802   2.351  -1.675  0.00  0.00    +0.024 A 
BRANCH   8  11
ATOM     11  C   LIG    1       -0.481   0.782  -0.910  0.00  0.00    +0.267 C 
ATOM     12  N   LIG    1       -0.331  -0.043  -1.965  0.00  0.00    -0.193 N 
ATOM     13  H   LIG    1       -1.015  -0.082  -2.651  0.00  0.00    +0.183 HD
ATOM     14  O   LIG    1        0.376   0.831  -0.049  0.00  0.00    -0.268 OA
BRANCH  12  15
ATOM     15  O   LIG    1        0.826  -0.853  -2.071  0.00  0.00    -0.295 OA
ATOM     16  H   LIG    1        0.845  -1.411  -2.861  0.00  0.00    +0.241 HD
ENDBRANCH  12  15
ENDBRANCH   8  11
ENDBRANCH   2   5
BRANCH   1  17
ATOM     17  C   LIG    1       -6.270   6.035   0.282  0.00  0.00    +0.108 C 
BRANCH  17  18
ATOM     18  C   LIG    1       -5.904   7.496   0.321  0.00  0.00    -0.035 A 
ATOM     19  C   LIG    1       -5.048   7.969   1.298  0.00  0.00    +0.004 A 
ATOM     20  C   LIG    1       -4.709   9.308   1.331  0.00  0.00    +0.000 A 
ATOM     21  C   LIG    1       -5.234  10.177   0.393  0.00  0.00    +0.000 A 
ATOM     22  C   LIG    1       -6.094   9.706  -0.582  0.00  0.00    +0.000 A 
ATOM     23  C   LIG    1       -6.429   8.365  -0.617  0.00  0.00    +0.004 A 
ENDBRANCH  17  18
BRANCH  17  25
ATOM     24  C   LIG    1       -8.222   6.473   1.779  0.00  0.00    +0.008 C 
ATOM     25  C   LIG    1       -6.949   5.644   1.596  0.00  0.00    -0.001 C 
ATOM     26  C   LIG    1       -7.310   4.157   1.562  0.00  0.00    +0.008 C 
ENDBRANCH  17  25
ENDBRANCH   1  17
TORSDOF 6
