REMARK  Name = ZINC13649924
REMARK                            x       y       z     vdW  Elec       q    Type
REMARK                         _______ _______ _______ _____ _____    ______ ____
ROOT
ATOM      1  C   LIG    1       -1.935   4.915  -1.967  0.00  0.00    +0.046 C 
ATOM      2  C   LIG    1       -3.397   5.415  -1.770  0.00  0.00    +0.126 C 
ATOM      3  C   LIG    1       -4.195   4.843  -2.980  0.00  0.00    +0.035 C 
ATOM      4  C   LIG    1       -4.300   3.334  -2.639  0.00  0.00    +0.034 C 
ATOM      5  C   LIG    1       -3.549   3.236  -1.277  0.00  0.00    +0.123 C 
ATOM      6  O   LIG    1       -3.855   4.541  -0.686  0.00  0.00    -0.372 OA
ATOM      7  C   LIG    1       -2.040   3.407  -1.626  0.00  0.00    +0.031 C 
ENDROOT
BRANCH   1   9
ATOM      8  C   LIG    1       -0.460   5.871  -3.661  0.00  0.00    +0.003 C 
ATOM      9  C   LIG    1       -1.492   5.110  -3.394  0.00  0.00    -0.022 C 
BRANCH   8  10
ATOM     10  C   LIG    1       -0.016   6.066  -5.088  0.00  0.00    +0.174 C 
BRANCH  10  11
ATOM     11  O   LIG    1       -0.940   5.421  -5.966  0.00  0.00    -0.384 OA
ATOM     12  H   LIG    1       -1.845   5.756  -5.901  0.00  0.00    +0.210 HD
ENDBRANCH  10  11
BRANCH  10  13
ATOM     13  C   LIG    1        0.031   7.562  -5.407  0.00  0.00    +0.264 C 
BRANCH  13  14
ATOM     14  O   LIG    1        0.562   7.752  -6.721  0.00  0.00    -0.489 OA
BRANCH  14  21
ATOM     15  C   LIG    1        0.272  10.084  -6.351  0.00  0.00    +0.046 A 
ATOM     16  C   LIG    1        0.390  11.386  -6.799  0.00  0.00    +0.018 A 
ATOM     17  C   LIG    1        0.896  11.640  -8.061  0.00  0.00    +0.014 A 
ATOM     18  I   LIG    1        1.067  13.614  -8.741  0.00  0.00    -0.044 I 
ATOM     19  C   LIG    1        1.290  10.593  -8.874  0.00  0.00    +0.018 A 
ATOM     20  C   LIG    1        1.179   9.290  -8.428  0.00  0.00    +0.046 A 
ATOM     21  C   LIG    1        0.672   9.033  -7.162  0.00  0.00    +0.121 A 
ENDBRANCH  14  21
ENDBRANCH  13  14
ENDBRANCH  10  13
ENDBRANCH   8  10
ENDBRANCH   1   9
BRANCH   7  22
ATOM     22  C   LIG    1       -1.162   3.061  -0.421  0.00  0.00    +0.033 C 
BRANCH  22  23
ATOM     23  C   LIG    1       -1.189   1.572  -0.191  0.00  0.00    -0.031 C 
ATOM     24  C   LIG    1       -0.067   0.900  -0.118  0.00  0.00    -0.031 C 
BRANCH  24  25
ATOM     25  C   LIG    1        1.250   1.633  -0.101  0.00  0.00    +0.027 C 
BRANCH  25  26
ATOM     26  C   LIG    1        2.079   1.163   1.096  0.00  0.00    +0.015 C 
BRANCH  26  27
ATOM     27  C   LIG    1        3.416   1.907   1.114  0.00  0.00    +0.121 C 
BRANCH  27  28
ATOM     28  C   LIG    1        4.233   1.444   2.293  0.00  0.00    +0.305 C 
ATOM     29  O   LIG    1        3.791   0.605   3.042  0.00  0.00    -0.251 OA
BRANCH  28  30
ATOM     30  O   LIG    1        5.451   1.963   2.511  0.00  0.00    -0.481 OA
ATOM     31  H   LIG    1        5.794   2.613   1.930  0.00  0.00    +0.295 HD
ENDBRANCH  28  30
ENDBRANCH  27  28
ENDBRANCH  26  27
ENDBRANCH  25  26
ENDBRANCH  24  25
ENDBRANCH  22  23
ENDBRANCH   7  22
TORSDOF 13
