REMARK  Name = ZINC13674480
REMARK                            x       y       z     vdW  Elec       q    Type
REMARK                         _______ _______ _______ _____ _____    ______ ____
ROOT
ATOM      1  C   LIG    1       -0.013   1.076   0.008  0.00  0.00    +0.001 A 
ATOM      2  C   LIG    1       -1.235   1.746   0.017  0.00  0.00    +0.001 A 
ATOM      3  C   LIG    1       -1.288   3.105   0.030  0.00  0.00    +0.008 A 
ATOM      4  C   LIG    1       -0.095   3.849   0.023  0.00  0.00    -0.016 A 
ATOM      5  C   LIG    1       -0.112   5.253   0.029  0.00  0.00    +0.034 A 
ATOM      6  C   LIG    1        1.068   5.942   0.021  0.00  0.00    +0.048 A 
ATOM      7  C   LIG    1        2.293   5.267   0.006  0.00  0.00    +0.027 A 
ATOM      8  C   LIG    1        2.343   3.909  -0.000  0.00  0.00    +0.010 A 
ATOM      9  C   LIG    1        1.148   3.167   0.008  0.00  0.00    -0.018 A 
ATOM     10  C   LIG    1        1.163   1.762   0.000  0.00  0.00    +0.008 A 
ENDROOT
BRANCH   6  11
ATOM     11  N   LIG    1        1.050   7.344   0.028  0.00  0.00    -0.306 N 
ATOM     12  C   LIG    1        2.142   8.173   0.026  0.00  0.00    +0.112 A 
ATOM     13  C   LIG    1        1.674   9.435   0.032  0.00  0.00    +0.130 A 
ATOM     14  N   LIG    1        0.333   9.385   0.044  0.00  0.00    -0.244 NA
ATOM     15  C   LIG    1       -0.052   8.138   0.042  0.00  0.00    +0.204 A 
ENDBRANCH   6  11
TORSDOF 1
