REMARK  Name = ZINC13686369
REMARK                            x       y       z     vdW  Elec       q    Type
REMARK                         _______ _______ _______ _____ _____    ______ ____
ROOT
ATOM      1  C   LIG    1       -1.136  -2.159   0.001  0.00  0.00    +0.081 C 
ATOM      2  C   LIG    1       -1.120  -2.699  -1.444  0.00  0.00    +0.058 C 
ATOM      3  C   LIG    1       -1.950  -3.964  -1.403  0.00  0.00    -0.042 A 
ATOM      4  C   LIG    1       -2.025  -5.017  -2.300  0.00  0.00    +0.006 A 
ATOM      5  C   LIG    1       -2.867  -6.083  -2.050  0.00  0.00    +0.029 A 
ATOM      6  C   LIG    1       -3.638  -6.100  -0.902  0.00  0.00    +0.105 A 
ATOM      7  C   LIG    1       -3.563  -5.051  -0.007  0.00  0.00    +0.032 A 
ATOM      8  C   LIG    1       -2.720  -3.981  -0.256  0.00  0.00    -0.041 A 
ATOM      9  C   LIG    1       -2.458  -2.728   0.558  0.00  0.00    +0.058 C 
ENDROOT
BRANCH   1  12
ATOM     10  C   LIG    1       -0.018   1.503   0.010  0.00  0.00    +0.109 C 
ATOM     11  C   LIG    1        0.002  -0.004   0.002  0.00  0.00    +0.210 C 
ATOM     12  N   LIG    1       -1.156  -0.694   0.009  0.00  0.00    -0.312 N 
ATOM     13  H   LIG    1       -2.002  -0.220   0.020  0.00  0.00    +0.149 HD
ATOM     14  O   LIG    1        1.060  -0.596  -0.011  0.00  0.00    -0.276 OA
ENDBRANCH   1  12
BRANCH   6  15
ATOM     15  S   LIG    1       -4.713  -7.459  -0.581  0.00  0.00    +0.056 S 
ATOM     16  O   LIG    1       -5.005  -8.052  -1.839  0.00  0.00    -0.153 OA
ATOM     17  O   LIG    1       -5.729  -6.976   0.287  0.00  0.00    -0.153 OA
BRANCH  15  18
ATOM     18  N   LIG    1       -3.846  -8.577   0.279  0.00  0.00    -0.204 NA
ATOM     19  H   LIG    1       -2.887  -8.651   0.151  0.00  0.00    +0.144 HD
ATOM     20  H   LIG    1       -4.297  -9.158   0.911  0.00  0.00    +0.144 HD
ENDBRANCH  15  18
ENDBRANCH   6  15
TORSDOF 3
