REMARK  Name = ZINC13704014
REMARK                            x       y       z     vdW  Elec       q    Type
REMARK                         _______ _______ _______ _____ _____    ______ ____
ROOT
ATOM      1  C   LIG    1       -1.058  -2.130  -0.110  0.00  0.00    +0.157 C 
ATOM      2  C   LIG    1       -2.245  -2.661  -0.917  0.00  0.00    +0.041 C 
ATOM      3  C   LIG    1       -2.160  -4.189  -0.989  0.00  0.00    -0.016 C 
ATOM      4  C   LIG    1       -2.140  -4.761   0.430  0.00  0.00    -0.082 C 
ATOM      5  N   LIG    1       -0.977  -4.230   1.165  0.00  0.00    +0.381 N 
ATOM      6  H   LIG    1       -0.952  -4.644   2.104  0.00  0.00    -0.086 HD
ATOM      7  H   LIG    1       -0.117  -4.475   0.660  0.00  0.00    -0.086 HD
ATOM      8  C   LIG    1       -1.069  -2.762   1.284  0.00  0.00    -0.038 C 
ENDROOT
BRANCH   1   9
ATOM      9  O   LIG    1       -1.160  -0.709   0.010  0.00  0.00    -0.489 OA
BRANCH   9  12
ATOM     10  C   LIG    1        2.349   0.046   0.586  0.00  0.00    +0.023 A 
ATOM     11  C   LIG    1        1.197  -0.699   0.391  0.00  0.00    +0.049 A 
ATOM     12  C   LIG    1       -0.004  -0.021   0.204  0.00  0.00    +0.139 A 
ATOM     13  C   LIG    1       -0.004   1.366   0.219  0.00  0.00    +0.156 A 
ATOM     14  N   LIG    1        1.115   2.037   0.407  0.00  0.00    -0.260 NA
ATOM     15  C   LIG    1        2.269   1.426   0.587  0.00  0.00    +0.111 A 
ENDBRANCH   9  12
ENDBRANCH   1   9
TORSDOF 2
