REMARK  Name = ZINC13741563
REMARK                            x       y       z     vdW  Elec       q    Type
REMARK                         _______ _______ _______ _____ _____    ______ ____
ROOT
ATOM      1  C   LIG    1        1.160   3.172   0.007  0.00  0.00    -0.001 A 
ATOM      2  C   LIG    1       -0.045   3.847   0.022  0.00  0.00    +0.053 A 
ATOM      3  C   LIG    1       -1.237   3.137   0.030  0.00  0.00    +0.121 A 
ATOM      4  C   LIG    1       -1.218   1.750   0.017  0.00  0.00    +0.049 A 
ATOM      5  C   LIG    1       -0.013   1.076   0.008  0.00  0.00    +0.049 A 
ATOM      6  C   LIG    1        1.179   1.786   0.000  0.00  0.00    +0.124 A 
ENDROOT
BRANCH   3   7
ATOM      7  O   LIG    1       -2.423   3.801   0.044  0.00  0.00    -0.495 OA
ATOM      8  C   LIG    1       -3.611   3.006   0.052  0.00  0.00    +0.277 C 
ENDBRANCH   3   7
BRANCH   6   9
ATOM      9  O   LIG    1        2.366   1.122  -0.014  0.00  0.00    -0.495 OA
ATOM     10  C   LIG    1        2.311  -0.306  -0.021  0.00  0.00    +0.277 C 
ENDBRANCH   6   9
BRANCH   1  11
ATOM     11  C   LIG    1        2.455   3.943  -0.002  0.00  0.00    +0.057 C 
BRANCH  11  12
ATOM     12  C   LIG    1        2.943   4.103  -1.443  0.00  0.00    +0.109 C 
BRANCH  12  15
ATOM     13  C   LIG    1        6.116   5.887  -2.629  0.00  0.00    +0.109 C 
ATOM     14  C   LIG    1        4.821   5.116  -2.620  0.00  0.00    +0.210 C 
ATOM     15  N   LIG    1        4.202   4.853  -1.452  0.00  0.00    -0.315 N 
ATOM     16  H   LIG    1        4.589   5.160  -0.618  0.00  0.00    +0.149 HD
ATOM     17  O   LIG    1        4.337   4.732  -3.663  0.00  0.00    -0.276 OA
ENDBRANCH  12  15
ENDBRANCH  11  12
ENDBRANCH   1  11
TORSDOF 5
