REMARK  Name = ZINC13555902
REMARK                            x       y       z     vdW  Elec       q    Type
REMARK                         _______ _______ _______ _____ _____    ______ ____
ROOT
ATOM      1  C   LIG    1        0.550   1.411  -0.544  0.00  0.00    +0.044 C 
ATOM      2  C   LIG    1        0.410  -0.048  -0.193  0.00  0.00    -0.035 A 
ATOM      3  C   LIG    1        0.463  -1.004  -1.184  0.00  0.00    +0.032 A 
ATOM      4  C   LIG    1        0.333  -2.350  -0.861  0.00  0.00    +0.071 A 
ATOM      5  C   LIG    1        0.149  -2.736   0.462  0.00  0.00    +0.112 A 
ATOM      6  C   LIG    1        0.096  -1.785   1.457  0.00  0.00    +0.044 A 
ATOM      7  C   LIG    1        0.232  -0.433   1.137  0.00  0.00    +0.061 A 
ENDROOT
BRANCH   4   8
ATOM      8  N   LIG    1        0.387  -3.317  -1.870  0.00  0.00    -0.321 N 
ATOM      9  C   LIG    1       -0.488  -3.431  -2.913  0.00  0.00    +0.091 A 
ATOM     10  C   LIG    1       -0.108  -4.481  -3.669  0.00  0.00    +0.019 A 
ATOM     11  C   LIG    1        1.042  -5.037  -3.073  0.00  0.00    +0.019 A 
ATOM     12  C   LIG    1        1.327  -4.303  -1.978  0.00  0.00    +0.091 A 
ENDBRANCH   4   8
BRANCH   5  13
ATOM     13  S   LIG    1       -0.016  -4.443   0.866  0.00  0.00    -0.004 S 
ATOM     14  C   LIG    1       -1.526  -4.979   0.016  0.00  0.00    +0.200 C 
ATOM     15  O   LIG    1       -0.212  -4.465   2.273  0.00  0.00    -0.170 OA
ATOM     16  O   LIG    1        1.121  -5.065   0.282  0.00  0.00    -0.170 OA
ENDBRANCH   5  13
BRANCH   7  17
ATOM     17  C   LIG    1        0.181   0.591   2.204  0.00  0.00    +0.341 C 
ATOM     18  O   LIG    1        0.438   1.753   1.946  0.00  0.00    -0.248 OA
BRANCH  17  19
ATOM     19  N   LIG    1       -0.147   0.238   3.455  0.00  0.00    -0.000 NA
ATOM     20  C   LIG    1        0.646   0.564   4.464  0.00  0.00    +0.375 C 
BRANCH  20  21
ATOM     21  N   LIG    1        0.347   0.150   5.728  0.00  0.00    -0.291 N 
ATOM     22  H   LIG    1        0.928   0.388   6.467  0.00  0.00    +0.254 HD
ATOM     23  H   LIG    1       -0.447  -0.384   5.888  0.00  0.00    +0.254 HD
ENDBRANCH  20  21
BRANCH  20  24
ATOM     24  N   LIG    1        1.763   1.315   4.239  0.00  0.00    -0.291 N 
ATOM     25  H   LIG    1        2.379   1.497   4.965  0.00  0.00    +0.254 HD
ATOM     26  H   LIG    1        1.941   1.666   3.352  0.00  0.00    +0.254 HD
ENDBRANCH  20  24
ENDBRANCH  17  19
ENDBRANCH   7  17
TORSDOF 6
