REMARK  Name = ZINC13641346
REMARK                            x       y       z     vdW  Elec       q    Type
REMARK                         _______ _______ _______ _____ _____    ______ ____
ROOT
ATOM      1  C   LIG    1       -2.511   1.040  -0.150  0.00  0.00    +0.007 A 
ATOM      2  C   LIG    1       -1.240   1.776  -0.146  0.00  0.00    +0.008 A 
ATOM      3  C   LIG    1       -0.028   1.103  -0.341  0.00  0.00    +0.030 A 
ATOM      4  C   LIG    1        1.153   1.809  -0.328  0.00  0.00    +0.042 A 
ATOM      5 CL   LIG    1        2.658   0.979  -0.575  0.00  0.00    -0.084 Cl
ATOM      6  C   LIG    1        1.148   3.183  -0.117  0.00  0.00    +0.022 A 
ATOM      7  C   LIG    1       -0.036   3.858   0.082  0.00  0.00    +0.028 A 
ATOM      8  C   LIG    1       -1.244   3.165   0.074  0.00  0.00    +0.050 A 
ATOM      9  N   LIG    1       -2.431   3.841   0.274  0.00  0.00    -0.321 N 
ATOM     10  C   LIG    1       -3.616   3.207   0.272  0.00  0.00    +0.261 A 
ATOM     11  O   LIG    1       -4.638   3.844   0.452  0.00  0.00    -0.267 OA
ATOM     12  H   LIG    1       -2.409   4.799   0.420  0.00  0.00    +0.169 HD
ATOM     13  C   LIG    1       -3.694   1.761   0.056  0.00  0.00    +0.094 A 
ENDROOT
BRANCH   1  17
ATOM     14  C   LIG    1       -2.596  -3.157  -0.789  0.00  0.00    +0.000 A 
ATOM     15  C   LIG    1       -3.175  -2.307  -1.716  0.00  0.00    +0.001 A 
ATOM     16  C   LIG    1       -3.151  -0.943  -1.515  0.00  0.00    +0.008 A 
ATOM     17  C   LIG    1       -2.541  -0.419  -0.372  0.00  0.00    -0.016 A 
ATOM     18  C   LIG    1       -1.954  -1.283   0.557  0.00  0.00    +0.008 A 
ATOM     19  C   LIG    1       -1.990  -2.645   0.345  0.00  0.00    +0.001 A 
ENDBRANCH   1  17
BRANCH  13  20
ATOM     20  C   LIG    1       -4.994   1.076   0.056  0.00  0.00    +0.192 C 
ATOM     21  O   LIG    1       -5.044  -0.137  -0.051  0.00  0.00    -0.287 OA
BRANCH  20  22
ATOM     22  C   LIG    1       -6.232   1.853   0.183  0.00  0.00    +0.055 C 
ATOM     23  C   LIG    1       -7.419   1.218   0.292  0.00  0.00    +0.050 C 
BRANCH  23  24
ATOM     24  C   LIG    1       -8.657   1.995   0.419  0.00  0.00    +0.132 A 
ATOM     25  N   LIG    1       -9.917   1.462   0.531  0.00  0.00    -0.338 N 
ATOM     26  C   LIG    1      -10.796   2.520   0.630  0.00  0.00    +0.066 A 
ATOM     27  C   LIG    1      -12.174   2.618   0.763  0.00  0.00    +0.028 A 
ATOM     28  C   LIG    1      -12.767   3.861   0.831  0.00  0.00    +0.002 A 
ATOM     29  C   LIG    1      -11.997   5.015   0.767  0.00  0.00    +0.002 A 
ATOM     30  C   LIG    1      -10.640   4.941   0.636  0.00  0.00    +0.030 A 
ATOM     31  C   LIG    1      -10.013   3.690   0.565  0.00  0.00    +0.089 A 
ATOM     32  H   LIG    1      -10.153   0.491   0.539  0.00  0.00    +0.167 HD
ATOM     33  N   LIG    1       -8.730   3.307   0.438  0.00  0.00    -0.228 NA
ENDBRANCH  23  24
ENDBRANCH  20  22
ENDBRANCH  13  20
TORSDOF 4
