REMARK  Name = ZINC13641820
REMARK                            x       y       z     vdW  Elec       q    Type
REMARK                         _______ _______ _______ _____ _____    ______ ____
ROOT
ATOM      1  C   LIG    1       -0.710   6.191   1.149  0.00  0.00    +0.034 A 
ATOM      2  C   LIG    1       -1.323   5.601   2.244  0.00  0.00    +0.128 A 
ATOM      3  C   LIG    1       -1.370   4.220   2.353  0.00  0.00    +0.060 A 
ATOM      4  C   LIG    1       -0.803   3.426   1.364  0.00  0.00    +0.015 A 
ATOM      5  C   LIG    1       -0.185   4.018   0.270  0.00  0.00    +0.060 A 
ATOM      6  C   LIG    1       -0.143   5.399   0.161  0.00  0.00    +0.128 A 
ENDROOT
BRANCH   2   7
ATOM      7  O   LIG    1       -1.877   6.378   3.212  0.00  0.00    -0.495 OA
ATOM      8  C   LIG    1       -2.491   5.704   4.313  0.00  0.00    +0.277 C 
ENDBRANCH   2   7
BRANCH   4   9
ATOM      9  S   LIG    1       -0.862   1.671   1.500  0.00  0.00    -0.128 S 
ATOM     10  C   LIG    1       -0.013   1.086   0.008  0.00  0.00    +0.090 C 
ENDBRANCH   4   9
BRANCH   6  11
ATOM     11  O   LIG    1        0.457   5.979  -0.912  0.00  0.00    -0.495 OA
ATOM     12  C   LIG    1        1.020   5.103  -1.891  0.00  0.00    +0.277 C 
ENDBRANCH   6  11
BRANCH   1  13
ATOM     13  C   LIG    1       -0.660   7.692   1.032  0.00  0.00    +0.026 C 
BRANCH  13  15
ATOM     14  C   LIG    1        0.604   9.744   1.693  0.00  0.00    -0.014 C 
ATOM     15  C   LIG    1        0.613   8.214   1.702  0.00  0.00    -0.074 C 
BRANCH  15  16
ATOM     16  N   LIG    1        1.785   7.702   0.969  0.00  0.00    +0.380 N 
ATOM     17  H   LIG    1        1.790   6.677   1.015  0.00  0.00    -0.090 HD
ATOM     18  H   LIG    1        2.642   8.058   1.389  0.00  0.00    -0.090 HD
ATOM     19  H   LIG    1        1.740   7.991  -0.007  0.00  0.00    -0.090 HD
ENDBRANCH  15  16
ENDBRANCH  13  15
ENDBRANCH   1  13
TORSDOF 6
