REMARK  Name = ZINC13581280
REMARK                            x       y       z     vdW  Elec       q    Type
REMARK                         _______ _______ _______ _____ _____    ______ ____
ROOT
ATOM      1  C   LIG    1        3.541  -2.987  -2.782  0.00  0.00    +0.124 C 
ATOM      2  C   LIG    1        3.383  -4.377  -2.881  0.00  0.00    +0.038 C 
ATOM      3  C   LIG    1        4.449  -5.160  -3.206  0.00  0.00    -0.007 C 
ATOM      4  C   LIG    1        4.304  -6.655  -3.318  0.00  0.00    +0.008 C 
ATOM      5  C   LIG    1        5.693  -4.535  -3.433  0.00  0.00    +0.011 C 
ATOM      6  C   LIG    1        6.830  -5.283  -3.771  0.00  0.00    +0.027 C 
ATOM      7  C   LIG    1        8.028  -4.637  -3.986  0.00  0.00    +0.073 C 
ATOM      8  C   LIG    1        8.116  -3.246  -3.870  0.00  0.00    +0.024 C 
ATOM      9  C   LIG    1        7.027  -2.501  -3.543  0.00  0.00    +0.021 C 
ATOM     10  C   LIG    1        5.789  -3.127  -3.317  0.00  0.00    +0.059 C 
ATOM     11  N   LIG    1        4.704  -2.409  -3.001  0.00  0.00    -0.298 NA
ATOM     12  H   LIG    1        4.777  -1.444  -2.928  0.00  0.00    +0.124 HD
ENDROOT
BRANCH   1  17
ATOM     13  N   LIG    1        0.530  -0.886  -0.899  0.00  0.00    +0.381 N 
ATOM     14  H   LIG    1        0.056  -0.489  -1.697  0.00  0.00    -0.082 HD
ATOM     15  C   LIG    1        1.921  -0.416  -0.878  0.00  0.00    -0.063 C 
ATOM     16  C   LIG    1        2.595  -0.758  -2.211  0.00  0.00    +0.067 C 
ATOM     17  N   LIG    1        2.446  -2.202  -2.451  0.00  0.00    -0.291 NA
ATOM     18  C   LIG    1        1.103  -2.790  -2.331  0.00  0.00    +0.067 C 
ATOM     19  C   LIG    1        0.499  -2.351  -0.993  0.00  0.00    -0.063 C 
BRANCH  13  21
ATOM     20  C   LIG    1       -0.227   1.067   0.370  0.00  0.00    -0.017 C 
ATOM     21  C   LIG    1       -0.148  -0.461   0.333  0.00  0.00    -0.082 C 
ENDBRANCH  13  21
ENDBRANCH   1  17
BRANCH   7  22
ATOM     22  N   LIG    1        9.166  -5.379  -4.324  0.00  0.00    -0.309 N 
ATOM     23  H   LIG    1       10.040  -5.096  -4.012  0.00  0.00    +0.149 HD
ATOM     24  C   LIG    1        9.048  -6.486  -5.083  0.00  0.00    +0.254 C 
ATOM     25  O   LIG    1        7.971  -6.789  -5.551  0.00  0.00    -0.272 OA
BRANCH  24  26
ATOM     26  C   LIG    1       10.255  -7.349  -5.350  0.00  0.00    +0.256 C 
ATOM     27  C   LIG    1       10.740  -7.968  -4.038  0.00  0.00    +0.062 C 
BRANCH  26  28
ATOM     28  O   LIG    1        9.904  -8.388  -6.266  0.00  0.00    -0.478 OA
BRANCH  28  29
ATOM     29  C   LIG    1       10.872  -8.810  -7.122  0.00  0.00    +0.140 A 
ATOM     30  C   LIG    1       12.168  -8.333  -6.993  0.00  0.00    +0.048 A 
ATOM     31  C   LIG    1       13.152  -8.763  -7.863  0.00  0.00    +0.023 A 
ATOM     32  C   LIG    1       12.844  -9.668  -8.864  0.00  0.00    +0.043 A 
ATOM     33 CL   LIG    1       14.082 -10.206  -9.956  0.00  0.00    -0.083 Cl
ATOM     34  C   LIG    1       11.552 -10.145  -8.995  0.00  0.00    +0.043 A 
ATOM     35  C   LIG    1       10.567  -9.722  -8.122  0.00  0.00    +0.084 A 
ATOM     36 CL   LIG    1        8.947 -10.326  -8.282  0.00  0.00    -0.080 Cl
ENDBRANCH  28  29
ENDBRANCH  26  28
ENDBRANCH  24  26
ENDBRANCH   7  22
TORSDOF 6
