REMARK  Name = ZINC13657906
REMARK                            x       y       z     vdW  Elec       q    Type
REMARK                         _______ _______ _______ _____ _____    ______ ____
ROOT
ATOM      1  C   LIG    1       -0.751   0.657   2.562  0.00  0.00    +0.067 C 
ATOM      2  C   LIG    1       -0.307  -0.293   1.480  0.00  0.00    +0.062 A 
ATOM      3  C   LIG    1       -1.109  -0.818   0.487  0.00  0.00    +0.172 A 
ATOM      4  C   LIG    1       -0.248  -1.687  -0.333  0.00  0.00    +0.292 A 
ATOM      5  N   LIG    1        0.987  -1.629   0.208  0.00  0.00    -0.264 N 
ATOM      6  H   LIG    1        1.769  -2.101  -0.117  0.00  0.00    +0.190 HD
ATOM      7  O   LIG    1       -0.585  -2.332  -1.308  0.00  0.00    -0.264 OA
ATOM      8  N   LIG    1        0.950  -0.773   1.313  0.00  0.00    -0.299 N 
ATOM      9  H   LIG    1        1.710  -0.557   1.876  0.00  0.00    +0.186 HD
ENDROOT
BRANCH   3  10
ATOM     10  N   LIG    1       -2.435  -0.580   0.302  0.00  0.00    -0.142 NA
ATOM     11  N   LIG    1       -2.844   0.613   0.032  0.00  0.00    -0.148 NA
BRANCH  11  12
ATOM     12  C   LIG    1       -1.939   1.604  -0.230  0.00  0.00    +0.104 A 
ATOM     13  C   LIG    1       -0.749   1.309  -0.901  0.00  0.00    +0.031 A 
ATOM     14  C   LIG    1        0.159   2.313  -1.161  0.00  0.00    +0.002 A 
ATOM     15  C   LIG    1       -0.104   3.611  -0.760  0.00  0.00    +0.002 A 
ATOM     16  C   LIG    1       -1.279   3.912  -0.096  0.00  0.00    +0.022 A 
ATOM     17  C   LIG    1       -2.201   2.919   0.167  0.00  0.00    +0.068 A 
ATOM     18 CL   LIG    1       -3.679   3.299   0.995  0.00  0.00    -0.081 Cl
ENDBRANCH  11  12
ENDBRANCH   3  10
TORSDOF 2
