REMARK  Name = ZINC13641424
REMARK                            x       y       z     vdW  Elec       q    Type
REMARK                         _______ _______ _______ _____ _____    ______ ____
ROOT
ATOM      1  C   LIG    1        0.013   1.613  -0.213  0.00  0.00    -0.015 C 
ENDROOT
BRANCH   1   2
ATOM      2  C   LIG    1       -1.059   1.303  -1.260  0.00  0.00    -0.010 C 
BRANCH   2   4
ATOM      3  C   LIG    1        0.532  -0.224  -2.435  0.00  0.00    +0.004 C 
ATOM      4  C   LIG    1       -0.388   0.988  -2.599  0.00  0.00    +0.000 C 
ENDBRANCH   2   4
BRANCH   2   5
ATOM      5  C   LIG    1       -1.882   0.097  -0.805  0.00  0.00    +0.000 C 
ATOM      6  C   LIG    1       -3.017  -0.150  -1.801  0.00  0.00    +0.004 C 
ENDBRANCH   2   5
ENDBRANCH   1   2
BRANCH   1   7
ATOM      7  C   LIG    1        0.837   2.819  -0.668  0.00  0.00    -0.082 C 
BRANCH   7   8
ATOM      8  N   LIG    1       -0.043   3.999  -0.745  0.00  0.00    +0.378 N 
ATOM      9  H   LIG    1       -0.460   4.170   0.177  0.00  0.00    -0.090 HD
ATOM     10  H   LIG    1       -0.788   3.835  -1.421  0.00  0.00    -0.090 HD
ATOM     11  H   LIG    1        0.494   4.818  -1.025  0.00  0.00    -0.090 HD
ENDBRANCH   7   8
ENDBRANCH   1   7
BRANCH   1  12
ATOM     12  C   LIG    1       -0.657   1.928   1.125  0.00  0.00    +0.122 C 
BRANCH  12  13
ATOM     13  C   LIG    1        0.398   2.115   2.185  0.00  0.00    +0.305 C 
ATOM     14  O   LIG    1        1.557   1.889   1.929  0.00  0.00    -0.251 OA
BRANCH  13  15
ATOM     15  O   LIG    1        0.051   2.533   3.412  0.00  0.00    -0.481 OA
ATOM     16  H   LIG    1       -0.848   2.708   3.611  0.00  0.00    +0.295 HD
ENDBRANCH  13  15
ENDBRANCH  12  13
ENDBRANCH   1  12
TORSDOF 8
