REMARK  Name = ZINC13585233
REMARK                            x       y       z     vdW  Elec       q    Type
REMARK                         _______ _______ _______ _____ _____    ______ ____
ROOT
ATOM      1  C   LIG    1        0.763  -2.041   1.233  0.00  0.00    +0.119 C 
ATOM      2  C   LIG    1        1.488  -2.558   2.485  0.00  0.00    +0.127 C 
ATOM      3  N   LIG    1        0.711  -2.153   3.666  0.00  0.00    -0.327 N 
ATOM      4  H   LIG    1        1.156  -1.774   4.440  0.00  0.00    +0.148 HD
ATOM      5  C   LIG    1       -0.659  -2.320   3.659  0.00  0.00    +0.125 A 
ATOM      6  C   LIG    1       -1.325  -2.516   2.483  0.00  0.00    +0.133 A 
ATOM      7  C   LIG    1       -2.725  -2.678   2.506  0.00  0.00    +0.297 A 
ATOM      8  N   LIG    1       -3.373  -2.639   3.682  0.00  0.00    -0.176 NA
ATOM      9  C   LIG    1       -2.722  -2.452   4.810  0.00  0.00    +0.195 A 
ATOM     10  O   LIG    1       -3.344  -2.852   1.466  0.00  0.00    -0.264 OA
ATOM     11  N   LIG    1       -1.371  -2.291   4.830  0.00  0.00    -0.315 N 
ATOM     12  H   LIG    1       -0.911  -2.155   5.674  0.00  0.00    +0.170 HD
ATOM     13  N   LIG    1       -0.615  -2.558   1.262  0.00  0.00    -0.330 N 
ATOM     14  H   LIG    1       -1.026  -2.919   0.460  0.00  0.00    +0.147 HD
ENDROOT
BRANCH   9  15
ATOM     15  N   LIG    1       -3.419  -2.420   5.990  0.00  0.00    -0.329 N 
ATOM     16  H   LIG    1       -2.950  -2.283   6.828  0.00  0.00    +0.145 HD
ATOM     17  H   LIG    1       -4.383  -2.533   5.987  0.00  0.00    +0.145 HD
ENDBRANCH   9  15
BRANCH   1  18
ATOM     18  C   LIG    1        0.742  -0.511   1.242  0.00  0.00    +0.164 C 
BRANCH  18  20
ATOM     19  C   LIG    1       -0.019   1.526   0.010  0.00  0.00    +0.040 C 
ATOM     20  C   LIG    1        0.002  -0.004   0.002  0.00  0.00    +0.142 C 
BRANCH  20  21
ATOM     21  O   LIG    1       -1.339  -0.499   0.012  0.00  0.00    -0.389 OA
ATOM     22  H   LIG    1       -1.853  -0.225   0.784  0.00  0.00    +0.210 HD
ENDBRANCH  20  21
ENDBRANCH  18  20
BRANCH  18  23
ATOM     23  O   LIG    1        2.083  -0.016   1.231  0.00  0.00    -0.387 OA
ATOM     24  H   LIG    1        2.597  -0.290   0.460  0.00  0.00    +0.210 HD
ENDBRANCH  18  23
ENDBRANCH   1  18
TORSDOF 5
