REMARK  Name = ZINC13687745
REMARK                            x       y       z     vdW  Elec       q    Type
REMARK                         _______ _______ _______ _____ _____    ______ ____
ROOT
ATOM      1  C   LIG    1       -1.245   4.838   0.041  0.00  0.00    +0.225 C 
ATOM      2  O   LIG    1       -0.643   5.887  -0.106  0.00  0.00    -0.284 OA
ENDROOT
BRANCH   1   8
ATOM      3  C   LIG    1        1.120  -0.569   1.295  0.00  0.00    +0.047 A 
ATOM      4  C   LIG    1       -0.069   0.118   1.197  0.00  0.00    +0.030 A 
ATOM      5  C   LIG    1       -0.068   1.464   0.844  0.00  0.00    +0.047 A 
ATOM      6  C   LIG    1        1.154   2.115   0.587  0.00  0.00    +0.004 A 
ATOM      7  C   LIG    1        0.846   3.457   0.257  0.00  0.00    +0.039 A 
ATOM      8  C   LIG    1       -0.506   3.598   0.314  0.00  0.00    +0.090 A 
ATOM      9  C   LIG    1        2.357   1.403   0.691  0.00  0.00    +0.055 A 
ATOM     10  N   LIG    1       -1.073   2.389   0.665  0.00  0.00    -0.352 N 
ATOM     11  H   LIG    1       -2.022   2.220   0.771  0.00  0.00    +0.166 HD
ATOM     12  C   LIG    1        2.332   0.070   1.042  0.00  0.00    +0.118 A 
BRANCH  12  13
ATOM     13  O   LIG    1        3.497  -0.624   1.144  0.00  0.00    -0.507 OA
ATOM     14  H   LIG    1        3.775  -1.049   0.321  0.00  0.00    +0.292 HD
ENDBRANCH  12  13
ENDBRANCH   1   8
BRANCH   1  15
ATOM     15  C   LIG    1       -2.712   4.814  -0.057  0.00  0.00    +0.090 A 
ATOM     16  C   LIG    1       -3.515   5.908  -0.150  0.00  0.00    +0.039 A 
ATOM     17  C   LIG    1       -4.854   5.455  -0.224  0.00  0.00    +0.004 A 
ATOM     18  C   LIG    1       -6.086   6.114  -0.332  0.00  0.00    +0.055 A 
ATOM     19  C   LIG    1       -7.251   5.378  -0.384  0.00  0.00    +0.118 A 
ATOM     20  C   LIG    1       -7.208   3.986  -0.330  0.00  0.00    +0.047 A 
ATOM     21  C   LIG    1       -6.004   3.326  -0.225  0.00  0.00    +0.030 A 
ATOM     22  C   LIG    1       -4.816   4.048  -0.171  0.00  0.00    +0.047 A 
ATOM     23  N   LIG    1       -3.494   3.676  -0.073  0.00  0.00    -0.352 N 
ATOM     24  H   LIG    1       -3.166   2.764  -0.023  0.00  0.00    +0.166 HD
BRANCH  19  25
ATOM     25  O   LIG    1       -8.448   6.014  -0.489  0.00  0.00    -0.507 OA
ATOM     26  H   LIG    1       -8.855   6.230   0.361  0.00  0.00    +0.292 HD
ENDBRANCH  19  25
ENDBRANCH   1  15
TORSDOF 4
