REMARK  Name = ZINC13731353
REMARK                            x       y       z     vdW  Elec       q    Type
REMARK                         _______ _______ _______ _____ _____    ______ ____
ROOT
ATOM      1  N   LIG    1        1.638  -1.890   0.924  0.00  0.00    -0.325 N 
ATOM      2  C   LIG    1        2.956  -2.024   0.677  0.00  0.00    +0.175 A 
ATOM      3  N   LIG    1        3.420  -0.928   0.133  0.00  0.00    -0.345 N 
ATOM      4  H   LIG    1        4.394  -0.774  -0.151  0.00  0.00    +0.167 HD
ATOM      5  C   LIG    1        2.428  -0.038   0.003  0.00  0.00    +0.080 A 
ATOM      6  C   LIG    1        2.335   1.333  -0.524  0.00  0.00    +0.043 A 
ATOM      7  C   LIG    1        3.450   1.991  -1.042  0.00  0.00    +0.015 A 
ATOM      8  C   LIG    1        3.282   3.279  -1.520  0.00  0.00    +0.020 A 
ATOM      9  C   LIG    1        2.028   3.864  -1.468  0.00  0.00    +0.113 A 
ATOM     10  N   LIG    1        0.989   3.223  -0.975  0.00  0.00    -0.237 NA
ATOM     11  C   LIG    1        1.091   1.988  -0.502  0.00  0.00    +0.150 A 
ATOM     12  N   LIG    1       -0.016   1.340   0.009  0.00  0.00    -0.259 N 
ATOM     13  C   LIG    1        0.055   0.088   0.494  0.00  0.00    +0.283 A 
ATOM     14  O   LIG    1       -0.952  -0.438   0.934  0.00  0.00    -0.265 OA
ATOM     15  C   LIG    1        1.269  -0.630   0.505  0.00  0.00    +0.133 A 
ENDROOT
BRANCH  12  16
ATOM     16  C   LIG    1       -1.249   2.004   0.019  0.00  0.00    +0.052 A 
ATOM     17  C   LIG    1       -1.618   2.770   1.116  0.00  0.00    +0.026 A 
ATOM     18  C   LIG    1       -2.832   3.429   1.120  0.00  0.00    +0.002 A 
ATOM     19  C   LIG    1       -3.685   3.316   0.037  0.00  0.00    +0.000 A 
ATOM     20  C   LIG    1       -3.323   2.548  -1.055  0.00  0.00    +0.002 A 
ATOM     21  C   LIG    1       -2.107   1.892  -1.067  0.00  0.00    +0.026 A 
ENDBRANCH  12  16
BRANCH   1  23
ATOM     22  C   LIG    1        0.754  -4.155   0.657  0.00  0.00    +0.030 C 
ATOM     23  C   LIG    1        0.761  -2.897   1.527  0.00  0.00    +0.083 C 
ATOM     24  C   LIG    1        1.273  -3.247   2.926  0.00  0.00    +0.030 C 
ENDBRANCH   1  23
TORSDOF 2
