REMARK  Name = ZINC13686858
REMARK                            x       y       z     vdW  Elec       q    Type
REMARK                         _______ _______ _______ _____ _____    ______ ____
ROOT
ATOM      1  C   LIG    1        3.270   0.934  -3.774  0.00  0.00    +0.015 A 
ATOM      2  C   LIG    1        1.897   0.829  -3.683  0.00  0.00    +0.005 A 
ATOM      3  C   LIG    1        1.258   1.021  -2.467  0.00  0.00    -0.041 A 
ATOM      4  C   LIG    1        1.998   1.324  -1.344  0.00  0.00    -0.029 A 
ATOM      5  C   LIG    1        1.350   1.549  -0.003  0.00  0.00    +0.117 C 
ATOM      6  N   LIG    1       -0.012   1.005   0.008  0.00  0.00    -0.304 NA
ATOM      7  H   LIG    1        0.031  -0.092  -0.061  0.00  0.00    +0.123 HD
ATOM      8  C   LIG    1       -0.778   1.528  -1.134  0.00  0.00    +0.125 C 
ATOM      9  C   LIG    1        3.378   1.429  -1.436  0.00  0.00    +0.020 A 
ATOM     10  C   LIG    1       -0.242   0.886  -2.414  0.00  0.00    +0.059 C 
ATOM     11  C   LIG    1        4.013   1.235  -2.647  0.00  0.00    +0.018 A 
ATOM     12 BR   LIG    1        5.895   1.380  -2.763  0.00  0.00    -0.050 Br
ENDROOT
BRANCH   8  13
ATOM     13  C   LIG    1       -2.258   1.177  -0.964  0.00  0.00    +0.358 C 
ATOM     14  F   LIG    1       -2.403  -0.213  -0.905  0.00  0.00    -0.208 F 
ATOM     15  F   LIG    1       -2.983   1.676  -2.051  0.00  0.00    -0.208 F 
ENDBRANCH   8  13
TORSDOF 1
