REMARK  Name = ZINC13580862
REMARK                            x       y       z     vdW  Elec       q    Type
REMARK                         _______ _______ _______ _____ _____    ______ ____
ROOT
ATOM      1  C   LIG    1       -0.016   1.362   0.009  0.00  0.00    +0.001 A 
ATOM      2  C   LIG    1        1.170   2.083   0.002  0.00  0.00    +0.002 A 
ATOM      3  C   LIG    1        2.384   1.433  -0.011  0.00  0.00    +0.026 A 
ATOM      4  C   LIG    1        2.428   0.042  -0.016  0.00  0.00    +0.048 A 
ATOM      5  C   LIG    1        1.220  -0.686  -0.012  0.00  0.00    +0.008 A 
ATOM      6  C   LIG    1        1.600  -2.096  -0.025  0.00  0.00    +0.019 A 
ATOM      7  C   LIG    1        2.998  -2.131   0.001  0.00  0.00    +0.110 A 
ATOM      8  C   LIG    1        3.717  -3.416   0.101  0.00  0.00    +0.261 C 
ATOM      9  N   LIG    1        3.272  -4.445  -0.663  0.00  0.00    -0.310 N 
ATOM     10  H   LIG    1        3.563  -5.349  -0.466  0.00  0.00    +0.149 HD
ATOM     11  C   LIG    1        2.363  -4.209  -1.775  0.00  0.00    +0.109 C 
ATOM     12  C   LIG    1        0.894  -4.144  -1.348  0.00  0.00    +0.058 C 
ATOM     13  O   LIG    1        4.673  -3.547   0.842  0.00  0.00    -0.269 OA
ATOM     14  C   LIG    1        0.776  -3.301  -0.094  0.00  0.00    +0.007 C 
ATOM     15  C   LIG    1       -0.059  -3.652   0.923  0.00  0.00    +0.175 C 
ATOM     16  C   LIG    1       -0.277  -2.933   2.185  0.00  0.00    +0.329 C 
ATOM     17  N   LIG    1       -1.162  -3.619   2.877  0.00  0.00    -0.030 NA
ATOM     18  C   LIG    1       -1.546  -4.712   2.199  0.00  0.00    +0.419 C 
ATOM     19  N   LIG    1       -2.417  -5.593   2.627  0.00  0.00    -0.128 NA
ATOM     20  H   LIG    1       -2.643  -6.360   2.077  0.00  0.00    +0.306 HD
ATOM     21  N   LIG    1       -0.895  -4.769   0.986  0.00  0.00    -0.196 N 
ATOM     22  H   LIG    1       -0.997  -5.455   0.307  0.00  0.00    +0.252 HD
ATOM     23  N   LIG    1        3.475  -0.857  -0.026  0.00  0.00    -0.350 N 
ATOM     24  H   LIG    1        4.414  -0.616  -0.050  0.00  0.00    +0.166 HD
ATOM     25  C   LIG    1        0.002  -0.004   0.002  0.00  0.00    +0.010 A 
ENDROOT
BRANCH  16  26
ATOM     26  O   LIG    1        0.320  -1.781   2.564  0.00  0.00    -0.478 OA
ATOM     27  H   LIG    1        0.941  -1.366   1.998  0.00  0.00    +0.295 HD
ENDBRANCH  16  26
TORSDOF 1
