REMARK  Name = ZINC13675249
REMARK                            x       y       z     vdW  Elec       q    Type
REMARK                         _______ _______ _______ _____ _____    ______ ____
ROOT
ATOM      1  C   LIG    1        4.952   1.189  -0.038  0.00  0.00    +0.142 C 
ATOM      2  C   LIG    1        3.783   2.192  -0.022  0.00  0.00    +0.088 C 
ATOM      3  C   LIG    1        2.550   1.316  -0.015  0.00  0.00    +0.075 C 
ATOM      4  N   LIG    1        2.905   0.074  -0.020  0.00  0.00    -0.181 NA
ATOM      5  N   LIG    1        4.284  -0.122  -0.038  0.00  0.00    -0.196 N 
ENDROOT
BRANCH   1   8
ATOM      6  C   LIG    1        7.597   2.015   2.576  0.00  0.00    +0.008 A 
ATOM      7  C   LIG    1        6.989   1.994   1.335  0.00  0.00    +0.013 A 
ATOM      8  C   LIG    1        5.805   1.349   1.194  0.00  0.00    +0.012 A 
ATOM      9  S   LIG    1        5.522   0.731   2.845  0.00  0.00    -0.100 S 
ATOM     10  C   LIG    1        6.997   1.381   3.613  0.00  0.00    +0.045 A 
ENDBRANCH   1   8
BRANCH   3  11
ATOM     11  C   LIG    1        1.166   1.801   0.001  0.00  0.00    +0.035 A 
ATOM     12  C   LIG    1       -0.013   1.076   0.008  0.00  0.00    +0.017 A 
ATOM     13  C   LIG    1       -1.204   1.764   0.017  0.00  0.00    +0.008 A 
ATOM     14  C   LIG    1       -1.186   3.123   0.029  0.00  0.00    +0.046 A 
ATOM     15  S   LIG    1        0.562   3.481   0.015  0.00  0.00    -0.095 S 
ENDBRANCH   3  11
BRANCH   5  16
ATOM     16  C   LIG    1        4.905  -1.319  -0.050  0.00  0.00    +0.151 C 
ATOM     17  S   LIG    1        6.615  -1.395  -0.067  0.00  0.00    -0.017 S 
BRANCH  16  18
ATOM     18  N   LIG    1        4.180  -2.454  -0.049  0.00  0.00    -0.339 N 
ATOM     19  H   LIG    1        4.627  -3.315  -0.058  0.00  0.00    +0.144 HD
ATOM     20  H   LIG    1        3.211  -2.411  -0.040  0.00  0.00    +0.144 HD
ENDBRANCH  16  18
ENDBRANCH   5  16
TORSDOF 4
