REMARK  Name = ZINC13686866
REMARK                            x       y       z     vdW  Elec       q    Type
REMARK                         _______ _______ _______ _____ _____    ______ ____
ROOT
ATOM      1  C   LIG    1       -0.017   1.377   0.010  0.00  0.00    +0.012 A 
ATOM      2  C   LIG    1        0.002  -0.004   0.002  0.00  0.00    +0.004 A 
ATOM      3  C   LIG    1        1.208  -0.688  -0.012  0.00  0.00    -0.041 A 
ATOM      4  C   LIG    1        2.395   0.013  -0.018  0.00  0.00    -0.030 A 
ATOM      5  C   LIG    1        3.730  -0.684  -0.027  0.00  0.00    +0.117 C 
ATOM      6  N   LIG    1        3.576  -2.082  -0.442  0.00  0.00    -0.304 NA
ATOM      7  H   LIG    1        3.275  -2.119  -1.500  0.00  0.00    +0.123 HD
ATOM      8  C   LIG    1        2.548  -2.746   0.375  0.00  0.00    +0.125 C 
ATOM      9  C   LIG    1        2.374   1.400  -0.012  0.00  0.00    +0.017 A 
ATOM     10  C   LIG    1        1.179  -2.195  -0.025  0.00  0.00    +0.059 C 
ATOM     11  C   LIG    1        1.173   2.080   0.002  0.00  0.00    +0.055 A 
ENDROOT
BRANCH  11  12
ATOM     12  C   LIG    1        1.159   3.587   0.008  0.00  0.00    +0.417 C 
ATOM     13  F   LIG    1        1.804   4.064  -1.138  0.00  0.00    -0.166 F 
ATOM     14  F   LIG    1        1.824   4.055   1.147  0.00  0.00    -0.166 F 
ATOM     15  F   LIG    1       -0.165   4.041   0.022  0.00  0.00    -0.166 F 
ENDBRANCH  11  12
BRANCH   8  16
ATOM     16  C   LIG    1        2.588  -4.255   0.124  0.00  0.00    +0.358 C 
ATOM     17  F   LIG    1        2.364  -4.508  -1.233  0.00  0.00    -0.208 F 
ATOM     18  F   LIG    1        1.595  -4.881   0.885  0.00  0.00    -0.208 F 
ENDBRANCH   8  16
TORSDOF 2
