REMARK  Name = ZINC13675264
REMARK                            x       y       z     vdW  Elec       q    Type
REMARK                         _______ _______ _______ _____ _____    ______ ____
ROOT
ATOM      1  C   LIG    1        5.272   7.744   0.514  0.00  0.00    -0.023 A 
ATOM      2  C   LIG    1        4.639   8.959   0.323  0.00  0.00    +0.007 A 
ATOM      3  C   LIG    1        3.261   9.037   0.372  0.00  0.00    +0.023 A 
ATOM      4  C   LIG    1        2.511   7.893   0.613  0.00  0.00    +0.033 A 
ATOM      5  C   LIG    1        3.150   6.676   0.810  0.00  0.00    +0.023 A 
ATOM      6  C   LIG    1        4.528   6.604   0.755  0.00  0.00    +0.007 A 
ENDROOT
BRANCH   4   7
ATOM      7  N   LIG    1        1.116   7.968   0.664  0.00  0.00    -0.294 N 
ATOM      8  H   LIG    1        0.685   8.760   1.024  0.00  0.00    +0.154 HD
BRANCH   7   9
ATOM      9  C   LIG    1        0.350   6.916   0.201  0.00  0.00    +0.163 A 
ATOM     10  N   LIG    1       -0.952   6.754   0.265  0.00  0.00    -0.225 NA
ATOM     11  C   LIG    1       -1.572   5.662  -0.234  0.00  0.00    +0.080 A 
ATOM     12  C   LIG    1       -2.955   5.366  -0.230  0.00  0.00    +0.029 A 
ATOM     13  C   LIG    1       -3.424   4.206  -0.788  0.00  0.00    +0.002 A 
ATOM     14  C   LIG    1       -2.566   3.280  -1.363  0.00  0.00    +0.001 A 
ATOM     15  C   LIG    1       -1.208   3.537  -1.385  0.00  0.00    +0.017 A 
ATOM     16  C   LIG    1       -0.730   4.699  -0.833  0.00  0.00    +0.041 A 
ATOM     17  S   LIG    1        0.879   5.428  -0.636  0.00  0.00    -0.052 S 
ENDBRANCH   7   9
ENDBRANCH   4   7
BRANCH   1  18
ATOM     18  C   LIG    1        6.776   7.663   0.460  0.00  0.00    +0.142 C 
BRANCH  18  19
ATOM     19  N   LIG    1        7.176   6.669  -0.539  0.00  0.00    -0.244 N 
ATOM     20  C   LIG    1        7.522   6.905  -1.817  0.00  0.00    +0.219 A 
ATOM     21  N   LIG    1        7.813   5.759  -2.377  0.00  0.00    -0.223 NA
ATOM     22  C   LIG    1        7.657   4.772  -1.494  0.00  0.00    +0.245 A 
ATOM     23  N   LIG    1        7.268   5.280  -0.354  0.00  0.00    -0.158 NA
ENDBRANCH  18  19
BRANCH  18  24
ATOM     24  C   LIG    1        7.314   7.252   1.832  0.00  0.00    +0.018 C 
BRANCH  24  26
ATOM     25  C   LIG    1        9.356   6.174   0.878  0.00  0.00    +0.004 C 
ATOM     26  C   LIG    1        8.844   7.276   1.808  0.00  0.00    +0.002 C 
ENDBRANCH  24  26
BRANCH  24  27
ATOM     27  C   LIG    1        6.806   8.230   2.893  0.00  0.00    +0.002 C 
ATOM     28  C   LIG    1        5.329   7.951   3.178  0.00  0.00    +0.004 C 
ENDBRANCH  24  27
ENDBRANCH  18  24
ENDBRANCH   1  18
TORSDOF 7
