REMARK  Name = ZINC13745123
REMARK                            x       y       z     vdW  Elec       q    Type
REMARK                         _______ _______ _______ _____ _____    ______ ____
ROOT
ATOM      1  N   LIG    1       -4.383   2.064   0.941  0.00  0.00    -0.259 N 
ATOM      2  C   LIG    1       -3.161   1.729   0.478  0.00  0.00    +0.282 A 
ATOM      3  C   LIG    1       -2.048   1.818   1.342  0.00  0.00    +0.149 A 
ATOM      4  C   LIG    1       -2.240   2.238   2.652  0.00  0.00    +0.145 A 
ATOM      5  N   LIG    1       -1.046   2.228   3.252  0.00  0.00    -0.332 N 
ATOM      6  H   LIG    1       -0.872   2.495   4.228  0.00  0.00    +0.168 HD
ATOM      7  C   LIG    1       -0.131   1.827   2.405  0.00  0.00    +0.175 A 
ATOM      8  N   LIG    1       -3.520   2.568   3.068  0.00  0.00    -0.281 N 
ATOM      9  C   LIG    1       -3.749   3.019   4.442  0.00  0.00    +0.155 C 
ATOM     10  N   LIG    1       -0.698   1.558   1.213  0.00  0.00    -0.329 N 
ATOM     11  C   LIG    1       -0.013   1.086   0.008  0.00  0.00    +0.150 C 
ATOM     12  O   LIG    1       -3.019   1.359  -0.674  0.00  0.00    -0.265 OA
ATOM     13  C   LIG    1       -4.554   2.474   2.210  0.00  0.00    +0.333 A 
ATOM     14  O   LIG    1       -5.670   2.768   2.593  0.00  0.00    -0.246 OA
ENDROOT
BRANCH   1  15
ATOM     15  C   LIG    1       -5.541   1.980   0.048  0.00  0.00    +0.141 C 
BRANCH  15  16
ATOM     16  C   LIG    1       -5.727   3.316  -0.674  0.00  0.00    +0.142 C 
BRANCH  16  17
ATOM     17  C   LIG    1       -6.918   3.229  -1.593  0.00  0.00    +0.309 C 
ATOM     18  O   LIG    1       -7.554   2.204  -1.662  0.00  0.00    -0.251 OA
BRANCH  17  19
ATOM     19  O   LIG    1       -7.273   4.291  -2.333  0.00  0.00    -0.465 OA
BRANCH  19  21
ATOM     20  C   LIG    1       -8.680   5.440  -3.956  0.00  0.00    +0.048 C 
ATOM     21  C   LIG    1       -8.431   4.135  -3.196  0.00  0.00    +0.229 C 
ENDBRANCH  19  21
ENDBRANCH  17  19
ENDBRANCH  16  17
ENDBRANCH  15  16
ENDBRANCH   1  15
TORSDOF 5
