REMARK  Name = ZINC13658860
REMARK                            x       y       z     vdW  Elec       q    Type
REMARK                         _______ _______ _______ _____ _____    ______ ____
ROOT
ATOM      1  C   LIG    1        1.711  -2.409   2.369  0.00  0.00    +0.155 A 
ATOM      2  C   LIG    1        1.539  -3.750   2.693  0.00  0.00    +0.014 A 
ATOM      3  C   LIG    1        0.862  -4.697   1.736  0.00  0.00    +0.049 C 
ATOM      4  C   LIG    1        2.009  -4.196   3.933  0.00  0.00    +0.111 A 
ATOM      5  N   LIG    1        2.599  -3.328   4.747  0.00  0.00    -0.225 NA
ATOM      6  C   LIG    1        2.743  -2.064   4.401  0.00  0.00    +0.128 A 
ATOM      7  C   LIG    1        3.419  -1.117   5.359  0.00  0.00    +0.088 C 
ATOM      8  N   LIG    1        2.320  -1.606   3.243  0.00  0.00    -0.225 NA
ENDROOT
BRANCH   1   9
ATOM      9  C   LIG    1        1.232  -1.881   1.068  0.00  0.00    +0.358 C 
ATOM     10  O   LIG    1        0.777  -2.638   0.236  0.00  0.00    -0.243 OA
BRANCH   9  11
ATOM     11  O   LIG    1        1.300  -0.561   0.811  0.00  0.00    -0.460 OA
BRANCH  11  13
ATOM     12  C   LIG    1        0.979   1.396  -0.571  0.00  0.00    +0.048 C 
ATOM     13  C   LIG    1        0.821  -0.122  -0.462  0.00  0.00    +0.229 C 
ENDBRANCH  11  13
ENDBRANCH   9  11
ENDBRANCH   1   9
BRANCH   4  14
ATOM     14  S   LIG    1        1.822  -5.883   4.406  0.00  0.00    -0.030 S 
BRANCH  14  15
ATOM     15  C   LIG    1        2.552  -5.959   6.008  0.00  0.00    +0.191 A 
ATOM     16  N   LIG    1        2.643  -7.059   6.788  0.00  0.00    -0.253 N 
ATOM     17  H   LIG    1        2.323  -7.950   6.574  0.00  0.00    +0.191 HD
ATOM     18  N   LIG    1        3.296  -6.661   7.965  0.00  0.00    -0.152 NA
ATOM     19  C   LIG    1        3.550  -5.377   7.846  0.00  0.00    +0.182 A 
ATOM     20  N   LIG    1        3.097  -4.954   6.657  0.00  0.00    -0.201 NA
BRANCH  19  21
ATOM     21  C   LIG    1        4.228  -4.533   8.861  0.00  0.00    +0.021 A 
ATOM     22  C   LIG    1        4.436  -3.177   8.617  0.00  0.00    +0.011 A 
ATOM     23  C   LIG    1        5.067  -2.397   9.565  0.00  0.00    +0.001 A 
ATOM     24  C   LIG    1        5.493  -2.959  10.755  0.00  0.00    +0.000 A 
ATOM     25  C   LIG    1        5.290  -4.305  11.002  0.00  0.00    +0.001 A 
ATOM     26  C   LIG    1        4.654  -5.093  10.064  0.00  0.00    +0.011 A 
ENDBRANCH  19  21
ENDBRANCH  14  15
ENDBRANCH   4  14
TORSDOF 6
