REMARK  Name = ZINC13686356
REMARK                            x       y       z     vdW  Elec       q    Type
REMARK                         _______ _______ _______ _____ _____    ______ ____
ROOT
ATOM      1  C   LIG    1       -0.016   1.343   0.014  0.00  0.00    +0.136 A 
ATOM      2  C   LIG    1        1.252   1.820  -0.008  0.00  0.00    +0.058 A 
ATOM      3  C   LIG    1        2.127   0.645  -0.016  0.00  0.00    +0.024 A 
ATOM      4  C   LIG    1        3.511   0.465  -0.037  0.00  0.00    +0.057 A 
ATOM      5  C   LIG    1        4.031  -0.815  -0.039  0.00  0.00    +0.118 A 
ATOM      6  C   LIG    1        3.180  -1.916  -0.020  0.00  0.00    +0.049 A 
ATOM      7  C   LIG    1        1.812  -1.747   0.001  0.00  0.00    +0.050 A 
ATOM      8  C   LIG    1        1.269  -0.469   0.004  0.00  0.00    +0.136 A 
ATOM      9  O   LIG    1        0.002  -0.004   0.021  0.00  0.00    -0.455 OA
ENDROOT
BRANCH   1  13
ATOM     10  C   LIG    1       -3.526   3.738   0.042  0.00  0.00    +0.029 A 
ATOM     11  C   LIG    1       -3.632   2.351   0.050  0.00  0.00    +0.024 A 
ATOM     12  C   LIG    1       -2.496   1.572   0.041  0.00  0.00    +0.013 A 
ATOM     13  C   LIG    1       -1.237   2.176   0.024  0.00  0.00    +0.017 A 
ATOM     14  C   LIG    1       -1.134   3.568   0.020  0.00  0.00    +0.013 A 
ATOM     15  C   LIG    1       -2.274   4.342   0.024  0.00  0.00    +0.024 A 
BRANCH  10  17
ATOM     16  C   LIG    1       -5.996   3.894  -0.056  0.00  0.00    +0.129 C 
ATOM     17  N   LIG    1       -4.678   4.524   0.052  0.00  0.00    -0.336 N 
ATOM     18  C   LIG    1       -4.571   5.981   0.170  0.00  0.00    +0.129 C 
ENDBRANCH  10  17
ENDBRANCH   1  13
BRANCH   5  19
ATOM     19  O   LIG    1        5.378  -0.999  -0.060  0.00  0.00    -0.507 OA
ATOM     20  H   LIG    1        5.783  -1.048   0.817  0.00  0.00    +0.292 HD
ENDBRANCH   5  19
TORSDOF 3
