REMARK  Name = ZINC13740974
REMARK                            x       y       z     vdW  Elec       q    Type
REMARK                         _______ _______ _______ _____ _____    ______ ____
ROOT
ATOM      1  C   LIG    1        0.643  -6.281   0.875  0.00  0.00    +0.264 C 
ATOM      2  C   LIG    1        0.375  -4.824   1.171  0.00  0.00    +0.025 C 
ATOM      3  C   LIG    1        0.257  -4.203  -0.014  0.00  0.00    +0.072 C 
ATOM      4  C   LIG    1        0.444  -5.184  -1.096  0.00  0.00    +0.343 C 
ATOM      5  O   LIG    1        0.399  -4.930  -2.283  0.00  0.00    -0.245 OA
ATOM      6  O   LIG    1        0.670  -6.403  -0.574  0.00  0.00    -0.421 OA
ENDROOT
BRANCH   3   7
ATOM      7  C   LIG    1       -0.013  -2.756  -0.203  0.00  0.00    -0.007 A 
ATOM      8  C   LIG    1       -1.240  -2.219   0.181  0.00  0.00    +0.012 A 
ATOM      9  C   LIG    1       -1.490  -0.873   0.005  0.00  0.00    +0.050 A 
ATOM     10  C   LIG    1       -0.522  -0.051  -0.553  0.00  0.00    +0.166 A 
ATOM     11  C   LIG    1        0.707  -0.584  -0.938  0.00  0.00    +0.167 A 
ATOM     12  O   LIG    1        1.475   0.421  -1.454  0.00  0.00    -0.453 OA
ATOM     13  C   LIG    1        0.861   1.643  -1.004  0.00  0.00    +0.466 C 
ATOM     14  O   LIG    1       -0.522   1.286  -0.827  0.00  0.00    -0.453 OA
ATOM     15  C   LIG    1        0.961  -1.932  -0.764  0.00  0.00    +0.058 A 
ENDBRANCH   3   7
BRANCH   1  19
ATOM     16  C   LIG    1       -2.469  -8.719   2.497  0.00  0.00    +0.120 A 
ATOM     17  C   LIG    1       -1.330  -8.459   3.244  0.00  0.00    +0.046 A 
ATOM     18  C   LIG    1       -0.325  -7.671   2.717  0.00  0.00    +0.014 A 
ATOM     19  C   LIG    1       -0.454  -7.141   1.447  0.00  0.00    +0.028 A 
ATOM     20  C   LIG    1       -1.591  -7.394   0.702  0.00  0.00    +0.014 A 
ATOM     21  C   LIG    1       -2.597  -8.186   1.222  0.00  0.00    +0.046 A 
BRANCH  16  23
ATOM     22  C   LIG    1       -4.604  -9.719   2.187  0.00  0.00    +0.277 C 
ATOM     23  O   LIG    1       -3.460  -9.493   3.013  0.00  0.00    -0.495 OA
ENDBRANCH  16  23
ENDBRANCH   1  19
BRANCH   1  24
ATOM     24  O   LIG    1        1.906  -6.665   1.424  0.00  0.00    -0.348 OA
ATOM     25  H   LIG    1        2.150  -7.583   1.243  0.00  0.00    +0.215 HD
ENDBRANCH   1  24
BRANCH   2  26
ATOM     26  C   LIG    1        0.260  -4.190   2.533  0.00  0.00    +0.073 C 
BRANCH  26  27
ATOM     27  C   LIG    1        1.634  -3.831   3.037  0.00  0.00    -0.036 A 
ATOM     28  C   LIG    1        2.330  -4.720   3.834  0.00  0.00    +0.053 A 
ATOM     29  C   LIG    1        3.596  -4.395   4.296  0.00  0.00    +0.165 A 
ATOM     30  C   LIG    1        4.161  -3.169   3.966  0.00  0.00    +0.204 A 
ATOM     31  C   LIG    1        3.456  -2.276   3.169  0.00  0.00    +0.165 A 
ATOM     32  C   LIG    1        2.192  -2.610   2.706  0.00  0.00    +0.053 A 
BRANCH  29  33
ATOM     33  O   LIG    1        4.283  -5.274   5.075  0.00  0.00    -0.491 OA
ATOM     34  C   LIG    1        3.641  -6.515   5.374  0.00  0.00    +0.277 C 
ENDBRANCH  29  33
BRANCH  30  35
ATOM     35  O   LIG    1        5.402  -2.845   4.421  0.00  0.00    -0.488 OA
ATOM     36  C   LIG    1        5.475  -2.171   5.679  0.00  0.00    +0.277 C 
ENDBRANCH  30  35
BRANCH  31  37
ATOM     37  O   LIG    1        4.004  -1.074   2.843  0.00  0.00    -0.491 OA
ATOM     38  C   LIG    1        3.179  -0.159   2.120  0.00  0.00    +0.277 C 
ENDBRANCH  31  37
ENDBRANCH  26  27
ENDBRANCH   2  26
TORSDOF 9
