REMARK  Name = ZINC13743982
REMARK                            x       y       z     vdW  Elec       q    Type
REMARK                         _______ _______ _______ _____ _____    ______ ____
ROOT
ATOM      1  C   LIG    1       -0.017   1.377   0.010  0.00  0.00    +0.043 A 
ATOM      2  C   LIG    1        0.002  -0.004   0.002  0.00  0.00    +0.021 A 
ATOM      3 BR   LIG    1       -1.625  -0.969   0.012  0.00  0.00    -0.050 Br
ATOM      4  C   LIG    1        1.208  -0.685  -0.013  0.00  0.00    +0.032 A 
ATOM      5  C   LIG    1        2.400   0.012  -0.021  0.00  0.00    +0.044 A 
ATOM      6 BR   LIG    1        4.043  -0.925  -0.042  0.00  0.00    -0.048 Br
ATOM      7  C   LIG    1        2.393   1.403  -0.014  0.00  0.00    +0.080 A 
ATOM      8  N   LIG    1        3.599   2.099  -0.022  0.00  0.00    -0.316 N 
ATOM      9  H   LIG    1        4.439   1.613  -0.033  0.00  0.00    +0.169 HD
ATOM     10  C   LIG    1        3.601   3.447  -0.015  0.00  0.00    +0.314 A 
ATOM     11  O   LIG    1        4.651   4.059  -0.022  0.00  0.00    -0.262 OA
ATOM     12  C   LIG    1        2.303   4.180   0.002  0.00  0.00    +0.314 A 
ATOM     13  O   LIG    1        2.283   5.395   0.008  0.00  0.00    -0.262 OA
ATOM     14  N   LIG    1        1.150   3.481   0.010  0.00  0.00    -0.316 N 
ATOM     15  H   LIG    1        0.300   3.948   0.021  0.00  0.00    +0.169 HD
ATOM     16  C   LIG    1        1.177   2.089   0.002  0.00  0.00    +0.068 A 
ENDROOT
TORSDOF 0
