REMARK  Name = ZINC13608926
REMARK                            x       y       z     vdW  Elec       q    Type
REMARK                         _______ _______ _______ _____ _____    ______ ____
ROOT
ATOM      1  C   LIG    1        0.024  -0.743   1.267  0.00  0.00    +0.084 C 
ATOM      2  C   LIG    1       -1.222  -0.394   2.085  0.00  0.00    +0.027 C 
ATOM      3  C   LIG    1       -1.329  -1.344   3.282  0.00  0.00    +0.055 C 
ATOM      4  C   LIG    1        0.001  -1.365   4.000  0.00  0.00    +0.024 A 
ATOM      5  C   LIG    1        1.155  -0.925   3.454  0.00  0.00    -0.017 A 
ATOM      6  C   LIG    1        2.193  -1.108   4.447  0.00  0.00    +0.003 A 
ATOM      7  C   LIG    1        3.565  -0.838   4.447  0.00  0.00    +0.010 A 
ATOM      8  C   LIG    1        4.258  -1.146   5.591  0.00  0.00    +0.001 A 
ATOM      9  C   LIG    1        3.640  -1.700   6.700  0.00  0.00    +0.002 A 
ATOM     10  C   LIG    1        2.284  -1.978   6.728  0.00  0.00    +0.026 A 
ATOM     11  C   LIG    1        1.554  -1.675   5.580  0.00  0.00    +0.050 A 
ATOM     12  N   LIG    1        0.232  -1.817   5.273  0.00  0.00    -0.333 N 
ATOM     13  C   LIG    1        1.278  -0.359   2.062  0.00  0.00    +0.058 C 
ENDROOT
BRANCH   1  15
ATOM     14  C   LIG    1       -0.018   1.461   0.010  0.00  0.00    +0.132 C 
ATOM     15  N   LIG    1        0.002  -0.004   0.002  0.00  0.00    -0.176 NA
BRANCH  15  16
ATOM     16  S   LIG    1       -0.000  -0.824  -1.437  0.00  0.00    +0.061 S 
ATOM     17  O   LIG    1       -0.572   0.049  -2.401  0.00  0.00    -0.153 OA
ATOM     18  O   LIG    1       -0.531  -2.115  -1.167  0.00  0.00    -0.153 OA
BRANCH  16  19
ATOM     19  C   LIG    1        1.682  -1.059  -1.905  0.00  0.00    +0.106 A 
ATOM     20  C   LIG    1        2.323  -0.109  -2.677  0.00  0.00    +0.031 A 
ATOM     21  C   LIG    1        3.643  -0.292  -3.045  0.00  0.00    +0.040 A 
ATOM     22  C   LIG    1        4.322  -1.428  -2.640  0.00  0.00    +0.124 A 
ATOM     23  F   LIG    1        5.612  -1.608  -2.999  0.00  0.00    -0.205 F 
ATOM     24  C   LIG    1        3.679  -2.380  -1.867  0.00  0.00    +0.040 A 
ATOM     25  C   LIG    1        2.361  -2.192  -1.496  0.00  0.00    +0.031 A 
ENDBRANCH  16  19
ENDBRANCH  15  16
ENDBRANCH   1  15
BRANCH  12  26
ATOM     26  C   LIG    1       -0.787  -2.368   6.170  0.00  0.00    +0.242 C 
BRANCH  26  27
ATOM     27  C   LIG    1       -0.879  -3.859   5.968  0.00  0.00    +0.325 C 
ATOM     28  O   LIG    1       -0.161  -4.409   5.152  0.00  0.00    -0.249 OA
BRANCH  27  29
ATOM     29  O   LIG    1       -1.673  -4.514   6.622  0.00  0.00    -0.479 OA
ATOM     30  H   LIG    1       -2.225  -4.091   7.250  0.00  0.00    +0.295 HD
ENDBRANCH  27  29
ENDBRANCH  26  27
ENDBRANCH  12  26
TORSDOF 6
