REMARK  Name = ZINC13675234
REMARK                            x       y       z     vdW  Elec       q    Type
REMARK                         _______ _______ _______ _____ _____    ______ ____
ROOT
ATOM      1  C   LIG    1        0.060  -4.275  -0.021  0.00  0.00    +0.136 C 
ATOM      2  C   LIG    1       -1.334  -4.835  -0.370  0.00  0.00    +0.087 C 
ATOM      3  C   LIG    1       -1.106  -5.609  -1.649  0.00  0.00    +0.069 C 
ATOM      4  N   LIG    1        0.135  -5.529  -1.985  0.00  0.00    -0.182 NA
ATOM      5  N   LIG    1        0.915  -4.776  -1.110  0.00  0.00    -0.197 N 
ENDROOT
BRANCH   1  10
ATOM      6  C   LIG    1       -0.018   1.503   0.010  0.00  0.00    +0.044 C 
ATOM      7  C   LIG    1        0.002  -0.004   0.002  0.00  0.00    -0.050 A 
ATOM      8  C   LIG    1       -0.006  -0.689  -1.199  0.00  0.00    +0.004 A 
ATOM      9  C   LIG    1        0.018  -2.071  -1.206  0.00  0.00    +0.006 A 
ATOM     10  C   LIG    1        0.039  -2.768  -0.013  0.00  0.00    -0.025 A 
ATOM     11  C   LIG    1        0.041  -2.084   1.188  0.00  0.00    +0.006 A 
ATOM     12  C   LIG    1        0.023  -0.702   1.195  0.00  0.00    +0.004 A 
ENDBRANCH   1  10
BRANCH   3  13
ATOM     13  C   LIG    1       -2.144  -6.342  -2.396  0.00  0.00    -0.002 A 
ATOM     14  C   LIG    1       -3.461  -6.362  -1.931  0.00  0.00    +0.012 A 
ATOM     15  C   LIG    1       -4.429  -7.045  -2.636  0.00  0.00    +0.039 A 
ATOM     16  C   LIG    1       -4.095  -7.720  -3.800  0.00  0.00    +0.123 A 
ATOM     17  F   LIG    1       -5.046  -8.392  -4.485  0.00  0.00    -0.205 F 
ATOM     18  C   LIG    1       -2.789  -7.708  -4.264  0.00  0.00    +0.039 A 
ATOM     19  C   LIG    1       -1.814  -7.024  -3.570  0.00  0.00    +0.012 A 
ENDBRANCH   3  13
BRANCH   5  20
ATOM     20  C   LIG    1        2.236  -4.543  -1.239  0.00  0.00    +0.151 C 
ATOM     21  S   LIG    1        3.055  -3.592  -0.074  0.00  0.00    -0.017 S 
BRANCH  20  22
ATOM     22  N   LIG    1        2.912  -5.059  -2.284  0.00  0.00    -0.339 N 
ATOM     23  H   LIG    1        3.863  -4.891  -2.377  0.00  0.00    +0.144 HD
ATOM     24  H   LIG    1        2.448  -5.597  -2.944  0.00  0.00    +0.144 HD
ENDBRANCH  20  22
ENDBRANCH   5  20
TORSDOF 4
