REMARK  Name = ZINC13679493
REMARK                            x       y       z     vdW  Elec       q    Type
REMARK                         _______ _______ _______ _____ _____    ______ ____
ROOT
ATOM      1  C   LIG    1        1.268  -2.144  -0.022  0.00  0.00    +0.158 A 
ATOM      2  N   LIG    1        2.408  -2.902  -0.033  0.00  0.00    -0.337 N 
ATOM      3  C   LIG    1        2.019  -4.225  -0.038  0.00  0.00    +0.067 A 
ATOM      4  C   LIG    1        2.713  -5.430  -0.049  0.00  0.00    +0.029 A 
ATOM      5  C   LIG    1        2.034  -6.613  -0.053  0.00  0.00    +0.021 A 
ATOM      6  C   LIG    1        0.632  -6.628  -0.046  0.00  0.00    +0.054 A 
ATOM      7  C   LIG    1       -0.081  -5.433  -0.036  0.00  0.00    +0.048 A 
ATOM      8  C   LIG    1        0.611  -4.220  -0.031  0.00  0.00    +0.091 A 
ATOM      9  H   LIG    1        3.319  -2.571  -0.035  0.00  0.00    +0.167 HD
ATOM     10  N   LIG    1        0.216  -2.924  -0.016  0.00  0.00    -0.226 NA
ENDROOT
BRANCH   1  15
ATOM     11  C   LIG    1       -0.017   1.380   0.010  0.00  0.00    +0.004 A 
ATOM     12  C   LIG    1        1.193   2.059   0.002  0.00  0.00    +0.020 A 
ATOM     13  C   LIG    1        2.375   1.340  -0.013  0.00  0.00    +0.111 A 
ATOM     14  N   LIG    1        2.366   0.023  -0.021  0.00  0.00    -0.252 NA
ATOM     15  C   LIG    1        1.230  -0.665  -0.014  0.00  0.00    +0.106 A 
ATOM     16  C   LIG    1        0.002  -0.004   0.002  0.00  0.00    +0.031 A 
ENDBRANCH   1  15
BRANCH   6  17
ATOM     17  C   LIG    1       -0.069  -7.876  -0.050  0.00  0.00    +0.099 C 
ATOM     18  N   LIG    1       -0.625  -8.867  -0.054  0.00  0.00    -0.191 NA
ENDBRANCH   6  17
TORSDOF 2
