REMARK  Name = ZINC13677843
REMARK                            x       y       z     vdW  Elec       q    Type
REMARK                         _______ _______ _______ _____ _____    ______ ____
ROOT
ATOM      1  C   LIG    1        1.079  -0.466  -0.813  0.00  0.00    +0.162 A 
ATOM      2  C   LIG    1        1.177   0.138  -2.057  0.00  0.00    +0.054 A 
ATOM      3  C   LIG    1        2.018  -0.385  -3.017  0.00  0.00    -0.030 A 
ATOM      4  C   LIG    1        2.774  -1.522  -2.745  0.00  0.00    +0.010 A 
ATOM      5  C   LIG    1        3.587  -1.873  -3.936  0.00  0.00    +0.098 A 
ATOM      6  C   LIG    1        3.333  -0.944  -4.961  0.00  0.00    +0.024 A 
ATOM      7  C   LIG    1        4.086  -1.286  -6.037  0.00  0.00    +0.122 A 
ATOM      8  N   LIG    1        4.795  -2.397  -5.706  0.00  0.00    -0.263 N 
ATOM      9  H   LIG    1        5.420  -2.867  -6.281  0.00  0.00    +0.190 HD
ATOM     10  N   LIG    1        4.468  -2.745  -4.390  0.00  0.00    -0.172 NA
ATOM     11  C   LIG    1        2.676  -2.130  -1.492  0.00  0.00    +0.059 A 
ATOM     12  C   LIG    1        2.326   0.046  -4.430  0.00  0.00    +0.076 C 
ATOM     13  C   LIG    1        1.836  -1.600  -0.530  0.00  0.00    +0.162 A 
ENDROOT
BRANCH   1  15
ATOM     14  C   LIG    1       -0.497   1.215  -0.227  0.00  0.00    +0.277 C 
ATOM     15  O   LIG    1        0.249   0.051   0.132  0.00  0.00    -0.491 OA
ENDBRANCH   1  15
BRANCH   7  16
ATOM     16  N   LIG    1        4.124  -0.619  -7.259  0.00  0.00    -0.299 N 
ATOM     17  H   LIG    1        3.645   0.217  -7.371  0.00  0.00    +0.154 HD
BRANCH  16  18
ATOM     18  C   LIG    1        4.852  -1.155  -8.325  0.00  0.00    +0.035 A 
ATOM     19  C   LIG    1        4.943  -2.533  -8.483  0.00  0.00    +0.023 A 
ATOM     20  C   LIG    1        5.663  -3.060  -9.537  0.00  0.00    +0.005 A 
ATOM     21  C   LIG    1        6.293  -2.220 -10.435  0.00  0.00    +0.038 A 
ATOM     22  C   LIG    1        6.205  -0.846 -10.282  0.00  0.00    +0.125 A 
ATOM     23  F   LIG    1        6.823  -0.027 -11.162  0.00  0.00    -0.205 F 
ATOM     24  C   LIG    1        5.481  -0.312  -9.231  0.00  0.00    +0.061 A 
ENDBRANCH  16  18
ENDBRANCH   7  16
BRANCH  13  25
ATOM     25  O   LIG    1        1.745  -2.190   0.692  0.00  0.00    -0.491 OA
ATOM     26  C   LIG    1        2.550  -3.350   0.914  0.00  0.00    +0.277 C 
ENDBRANCH  13  25
TORSDOF 4
