REMARK  Name = ZINC13686968
REMARK                            x       y       z     vdW  Elec       q    Type
REMARK                         _______ _______ _______ _____ _____    ______ ____
ROOT
ATOM      1  C   LIG    1        1.188   2.095   0.002  0.00  0.00    +0.019 A 
ATOM      2  C   LIG    1        2.381   1.406  -0.015  0.00  0.00    +0.005 A 
ATOM      3  C   LIG    1        2.395   0.018  -0.025  0.00  0.00    -0.041 A 
ATOM      4  C   LIG    1        1.207  -0.685  -0.013  0.00  0.00    -0.029 A 
ATOM      5  C   LIG    1        1.176  -2.192  -0.009  0.00  0.00    +0.117 C 
ATOM      6  N   LIG    1        2.469  -2.733  -0.438  0.00  0.00    -0.304 NA
ATOM      7  H   LIG    1        2.473  -3.825  -0.303  0.00  0.00    +0.123 HD
ATOM      8  C   LIG    1        3.557  -2.146   0.360  0.00  0.00    +0.125 C 
ATOM      9  C   LIG    1        0.002  -0.004   0.002  0.00  0.00    +0.024 A 
ATOM     10  C   LIG    1        3.728  -0.684  -0.053  0.00  0.00    +0.059 C 
ATOM     11  C   LIG    1       -0.017   1.390   0.010  0.00  0.00    +0.052 A 
ENDROOT
BRANCH   8  12
ATOM     12  C   LIG    1        4.857  -2.910   0.098  0.00  0.00    +0.358 C 
ATOM     13  F   LIG    1        5.867  -2.409   0.926  0.00  0.00    -0.208 F 
ATOM     14  F   LIG    1        5.229  -2.751  -1.241  0.00  0.00    -0.208 F 
ENDBRANCH   8  12
BRANCH  11  15
ATOM     15  C   LIG    1       -1.264   2.094   0.019  0.00  0.00    +0.099 C 
ATOM     16  N   LIG    1       -2.253   2.653   0.027  0.00  0.00    -0.191 NA
ENDBRANCH  11  15
TORSDOF 2
