REMARK  Name = ZINC13587968
REMARK                            x       y       z     vdW  Elec       q    Type
REMARK                         _______ _______ _______ _____ _____    ______ ____
ROOT
ATOM      1  C   LIG    1        1.619   7.589  -0.185  0.00  0.00    +0.122 A 
ATOM      2  C   LIG    1        0.297   7.476  -0.599  0.00  0.00    +0.046 A 
ATOM      3  C   LIG    1       -0.319   6.258  -0.742  0.00  0.00    +0.014 A 
ATOM      4  C   LIG    1        0.443   5.122  -0.451  0.00  0.00    +0.003 A 
ATOM      5  C   LIG    1        1.794   5.230  -0.027  0.00  0.00    +0.050 A 
ATOM      6  N   LIG    1        2.259   3.962   0.177  0.00  0.00    -0.359 N 
ATOM      7  C   LIG    1        1.269   3.056  -0.098  0.00  0.00    +0.003 A 
ATOM      8  C   LIG    1        1.355   1.551  -0.003  0.00  0.00    -0.028 C 
ATOM      9  N   LIG    1       -0.016   0.996   0.017  0.00  0.00    +0.383 N 
ATOM     10  H   LIG    1       -0.473   1.255   0.899  0.00  0.00    -0.085 HD
ATOM     11  H   LIG    1        0.032  -0.027  -0.056  0.00  0.00    -0.085 HD
ATOM     12  C   LIG    1       -0.806   1.527  -1.113  0.00  0.00    -0.077 C 
ATOM     13  C   LIG    1       -1.132   3.006  -0.864  0.00  0.00    +0.018 C 
ATOM     14  H   LIG    1        3.155   3.737   0.471  0.00  0.00    +0.166 HD
ATOM     15  C   LIG    1        0.148   3.707  -0.483  0.00  0.00    -0.023 A 
ATOM     16  C   LIG    1        2.398   6.477   0.110  0.00  0.00    +0.071 A 
ENDROOT
BRANCH   1  18
ATOM     17  C   LIG    1        1.330   9.941  -0.380  0.00  0.00    +0.277 C 
ATOM     18  O   LIG    1        2.168   8.827  -0.065  0.00  0.00    -0.495 OA
ENDBRANCH   1  18
TORSDOF 1
