REMARK  Name = ZINC13641832
REMARK                            x       y       z     vdW  Elec       q    Type
REMARK                         _______ _______ _______ _____ _____    ______ ____
ROOT
ATOM      1  C   LIG    1       -1.430   3.408   2.463  0.00  0.00    +0.011 A 
ATOM      2  C   LIG    1       -0.787   2.892   1.346  0.00  0.00    +0.128 A 
ATOM      3  C   LIG    1       -0.259   3.749   0.394  0.00  0.00    +0.091 A 
ATOM      4  C   LIG    1       -0.368   5.121   0.562  0.00  0.00    +0.125 A 
ATOM      5  C   LIG    1       -1.007   5.633   1.682  0.00  0.00    +0.066 A 
ATOM      6  C   LIG    1       -1.534   4.776   2.631  0.00  0.00    +0.051 A 
ATOM      7 CL   LIG    1       -2.333   5.420   4.031  0.00  0.00    -0.083 Cl
ENDROOT
BRANCH   2   8
ATOM      8  O   LIG    1       -0.682   1.547   1.184  0.00  0.00    -0.495 OA
ATOM      9  C   LIG    1       -0.013   1.086   0.008  0.00  0.00    +0.277 C 
ENDBRANCH   2   8
BRANCH   4  10
ATOM     10  O   LIG    1        0.150   5.964  -0.370  0.00  0.00    -0.495 OA
ATOM     11  C   LIG    1        0.001   7.365  -0.133  0.00  0.00    +0.277 C 
ENDBRANCH   4  10
BRANCH   1  12
ATOM     12  C   LIG    1       -2.011   2.476   3.495  0.00  0.00    +0.024 C 
BRANCH  12  14
ATOM     13  C   LIG    1       -1.501   1.131   5.538  0.00  0.00    -0.014 C 
ATOM     14  C   LIG    1       -0.955   2.173   4.560  0.00  0.00    -0.074 C 
BRANCH  14  15
ATOM     15  N   LIG    1       -0.649   3.411   5.299  0.00  0.00    +0.380 N 
ATOM     16  H   LIG    1       -1.500   3.741   5.770  0.00  0.00    -0.090 HD
ATOM     17  H   LIG    1       -0.324   4.130   4.656  0.00  0.00    -0.090 HD
ATOM     18  H   LIG    1        0.069   3.231   5.998  0.00  0.00    -0.090 HD
ENDBRANCH  14  15
ENDBRANCH  12  14
ENDBRANCH   1  12
TORSDOF 5
