REMARK  Name = ZINC13588710
REMARK                            x       y       z     vdW  Elec       q    Type
REMARK                         _______ _______ _______ _____ _____    ______ ____
ROOT
ATOM      1  C   LIG    1        3.266   1.075   1.029  0.00  0.00    +0.034 C 
ATOM      2  C   LIG    1        2.171   0.805  -0.005  0.00  0.00    +0.120 C 
ATOM      3  C   LIG    1        1.324  -0.427   0.396  0.00  0.00    +0.195 C 
ATOM      4  C   LIG    1        1.394  -0.676   1.904  0.00  0.00    +0.054 C 
ATOM      5  O   LIG    1        0.002  -0.004   0.002  0.00  0.00    -0.462 OA
ATOM      6  C   LIG    1       -0.016   1.344   0.009  0.00  0.00    +0.254 C 
ATOM      7  N   LIG    1        1.163   1.884   0.001  0.00  0.00    -0.338 N 
ATOM      8  H   LIG    1        1.266   2.979  -0.001  0.00  0.00    +0.164 HD
ENDROOT
BRANCH   6   9
ATOM      9  N   LIG    1       -1.177   2.078   0.019  0.00  0.00    -0.315 N 
ATOM     10  H   LIG    1       -2.151   1.566   0.021  0.00  0.00    +0.147 HD
ATOM     11  H   LIG    1       -1.133   3.177   0.025  0.00  0.00    +0.147 HD
ENDBRANCH   6   9
TORSDOF 1
