REMARK  Name = ZINC13734750
REMARK                            x       y       z     vdW  Elec       q    Type
REMARK                         _______ _______ _______ _____ _____    ______ ____
ROOT
ATOM      1  C   LIG    1       -3.789  11.611   0.103  0.00  0.00    +0.137 C 
ATOM      2  S   LIG    1       -2.320  12.489   0.093  0.00  0.00    -0.018 S 
ENDROOT
BRANCH   1   3
ATOM      3  N   LIG    1       -3.769  10.263   0.096  0.00  0.00    -0.264 N 
ATOM      4  H   LIG    1       -4.602   9.766   0.102  0.00  0.00    +0.157 HD
ATOM      5  C   LIG    1       -2.592   9.607   0.080  0.00  0.00    +0.250 C 
ATOM      6  O   LIG    1       -1.549  10.230   0.073  0.00  0.00    -0.270 OA
BRANCH   5   7
ATOM      7  C   LIG    1       -2.570   8.127   0.072  0.00  0.00    +0.038 A 
ATOM      8  C   LIG    1       -3.769   7.413   0.080  0.00  0.00    +0.014 A 
ATOM      9  C   LIG    1       -3.756   6.031   0.072  0.00  0.00    +0.013 A 
ATOM     10  C   LIG    1       -2.545   5.344   0.056  0.00  0.00    +0.033 A 
ATOM     11  C   LIG    1       -1.333   6.058   0.047  0.00  0.00    +0.034 A 
ATOM     12  C   LIG    1       -0.046   5.332   0.031  0.00  0.00    +0.195 C 
ATOM     13  C   LIG    1       -0.033   3.854   0.023  0.00  0.00    +0.033 A 
ATOM     14  C   LIG    1        1.175   3.163   0.007  0.00  0.00    +0.012 A 
ATOM     15  C   LIG    1        1.178   1.779   0.000  0.00  0.00    +0.001 A 
ATOM     16  C   LIG    1       -0.013   1.076   0.008  0.00  0.00    +0.001 A 
ATOM     17  C   LIG    1       -1.223   1.747   0.017  0.00  0.00    +0.012 A 
ATOM     18  C   LIG    1       -1.244   3.139   0.031  0.00  0.00    +0.033 A 
ATOM     19  O   LIG    1        1.000   5.949   0.023  0.00  0.00    -0.287 OA
ATOM     20  C   LIG    1       -2.532   3.864   0.048  0.00  0.00    +0.195 C 
ATOM     21  O   LIG    1       -3.577   3.246   0.055  0.00  0.00    -0.287 OA
ATOM     22  C   LIG    1       -1.351   7.449   0.056  0.00  0.00    +0.025 A 
ENDBRANCH   5   7
ENDBRANCH   1   3
BRANCH   1  23
ATOM     23  N   LIG    1       -4.966  12.267   0.119  0.00  0.00    -0.326 N 
ATOM     24  H   LIG    1       -5.799  11.770   0.125  0.00  0.00    +0.148 HD
BRANCH  23  25
ATOM     25  C   LIG    1       -4.988  13.732   0.127  0.00  0.00    +0.103 C 
BRANCH  25  26
ATOM     26  C   LIG    1       -6.438  14.220   0.144  0.00  0.00    +0.022 C 
BRANCH  26  31
ATOM     27  N   LIG    1       -7.352  18.199   1.407  0.00  0.00    +0.382 N 
ATOM     28  H   LIG    1       -7.872  17.749   2.169  0.00  0.00    -0.081 HD
ATOM     29  C   LIG    1       -5.933  17.792   1.490  0.00  0.00    -0.078 C 
ATOM     30  C   LIG    1       -5.852  16.264   1.461  0.00  0.00    -0.015 C 
ATOM     31  C   LIG    1       -6.460  15.750   0.153  0.00  0.00    -0.013 C 
ATOM     32  C   LIG    1       -7.907  16.241   0.045  0.00  0.00    -0.015 C 
ATOM     33  C   LIG    1       -7.928  17.770   0.115  0.00  0.00    -0.078 C 
BRANCH  27  34
ATOM     34  C   LIG    1       -7.465  19.665   1.548  0.00  0.00    -0.043 C 
BRANCH  34  38
ATOM     35  C   LIG    1       -6.360  20.754   5.528  0.00  0.00    +0.000 A 
ATOM     36  C   LIG    1       -5.404  20.718   4.530  0.00  0.00    +0.000 A 
ATOM     37  C   LIG    1       -5.761  20.366   3.243  0.00  0.00    +0.002 A 
ATOM     38  C   LIG    1       -7.075  20.049   2.952  0.00  0.00    -0.064 A 
ATOM     39  C   LIG    1       -8.033  20.090   3.948  0.00  0.00    +0.002 A 
ATOM     40  C   LIG    1       -7.674  20.438   5.237  0.00  0.00    +0.000 A 
ENDBRANCH  34  38
ENDBRANCH  27  34
ENDBRANCH  26  31
ENDBRANCH  25  26
ENDBRANCH  23  25
ENDBRANCH   1  23
TORSDOF 8
