REMARK  Name = ZINC13727768
REMARK                            x       y       z     vdW  Elec       q    Type
REMARK                         _______ _______ _______ _____ _____    ______ ____
ROOT
ATOM      1  C   LIG    1        1.389   3.424   0.245  0.00  0.00    +0.085 C 
ENDROOT
BRANCH   1   2
ATOM      2  N   LIG    1        1.360   1.976  -0.000  0.00  0.00    -0.295 NA
ATOM      3  C   LIG    1        2.035   1.643  -1.262  0.00  0.00    +0.105 C 
BRANCH   2   4
ATOM      4  C   LIG    1       -0.018   1.468   0.010  0.00  0.00    +0.173 C 
BRANCH   4   5
ATOM      5  C   LIG    1        0.002  -0.004   0.002  0.00  0.00    -0.090 C 
ATOM      6  C   LIG    1        0.018  -1.178  -0.004  0.00  0.00    +0.005 C 
ENDBRANCH   4   5
ENDBRANCH   2   4
ENDBRANCH   1   2
BRANCH   1   7
ATOM      7  C   LIG    1        2.833   3.874   0.475  0.00  0.00    +0.015 C 
BRANCH   7   8
ATOM      8  C   LIG    1        2.863   5.382   0.731  0.00  0.00    +0.001 C 
BRANCH   8  10
ATOM      9  C   LIG    1        4.338   7.340   1.216  0.00  0.00    +0.004 C 
ATOM     10  C   LIG    1        4.308   5.832   0.960  0.00  0.00    -0.003 C 
ENDBRANCH   8  10
ENDBRANCH   7   8
ENDBRANCH   1   7
TORSDOF 6
