REMARK  Name = ZINC13583640
REMARK                            x       y       z     vdW  Elec       q    Type
REMARK                         _______ _______ _______ _____ _____    ______ ____
ROOT
ATOM      1  C   LIG    1       -0.016   1.342   0.009  0.00  0.00    +0.229 A 
ATOM      2  N   LIG    1        1.208   1.807   0.000  0.00  0.00    -0.209 NA
ATOM      3  C   LIG    1        2.073   0.760  -0.014  0.00  0.00    +0.114 A 
ATOM      4  C   LIG    1        3.466   0.662  -0.028  0.00  0.00    +0.077 A 
ATOM      5  C   LIG    1        4.065  -0.583  -0.040  0.00  0.00    +0.120 A 
ATOM      6  C   LIG    1        3.287  -1.736  -0.038  0.00  0.00    +0.064 A 
ATOM      7  C   LIG    1        1.909  -1.650  -0.025  0.00  0.00    +0.066 A 
ATOM      8 BR   LIG    1        0.863  -3.225  -0.023  0.00  0.00    -0.046 Br
ATOM      9  C   LIG    1        1.293  -0.407  -0.013  0.00  0.00    +0.170 A 
ATOM     10  O   LIG    1        0.002  -0.004   0.002  0.00  0.00    -0.434 OA
ENDROOT
BRANCH   1  17
ATOM     11  C   LIG    1       -1.137   3.565   0.032  0.00  0.00    +0.017 A 
ATOM     12  C   LIG    1       -2.279   4.338   0.037  0.00  0.00    +0.049 A 
ATOM     13  C   LIG    1       -3.529   3.733   0.041  0.00  0.00    +0.152 A 
ATOM     14  C   LIG    1       -3.634   2.346   0.034  0.00  0.00    +0.165 A 
ATOM     15  F   LIG    1       -4.853   1.762   0.037  0.00  0.00    -0.202 F 
ATOM     16  C   LIG    1       -2.496   1.567   0.023  0.00  0.00    +0.055 A 
ATOM     17  C   LIG    1       -1.238   2.172   0.020  0.00  0.00    +0.040 A 
BRANCH  13  18
ATOM     18  O   LIG    1       -4.651   4.498   0.051  0.00  0.00    -0.504 OA
ATOM     19  H   LIG    1       -4.971   4.715   0.938  0.00  0.00    +0.292 HD
ENDBRANCH  13  18
ENDBRANCH   1  17
BRANCH   5  20
ATOM     20  O   LIG    1        5.421  -0.681  -0.053  0.00  0.00    -0.507 OA
ATOM     21  H   LIG    1        5.822  -0.715   0.826  0.00  0.00    +0.292 HD
ENDBRANCH   5  20
TORSDOF 3
