REMARK  Name = ZINC13739802
REMARK                            x       y       z     vdW  Elec       q    Type
REMARK                         _______ _______ _______ _____ _____    ______ ____
ROOT
ATOM      1  C   LIG    1        3.484   0.718  -0.028  0.00  0.00    -0.020 C 
ATOM      2  C   LIG    1        4.086   1.886  -0.028  0.00  0.00    -0.023 C 
ATOM      3  C   LIG    1        5.582   2.029  -0.049  0.00  0.00    +0.009 C 
ATOM      4  C   LIG    1        6.233   0.700   0.341  0.00  0.00    -0.074 C 
ATOM      5  N   LIG    1        5.617  -0.363  -0.479  0.00  0.00    +0.382 N 
ATOM      6  H   LIG    1        5.612  -0.068  -1.463  0.00  0.00    -0.081 HD
ATOM      7  C   LIG    1        4.228  -0.587  -0.036  0.00  0.00    -0.039 C 
ENDROOT
BRANCH   1  10
ATOM      8  N   LIG    1       -0.015   1.283   0.009  0.00  0.00    -0.163 N 
ATOM      9  N   LIG    1        1.194   1.727  -0.000  0.00  0.00    -0.131 NA
ATOM     10  C   LIG    1        2.006   0.686  -0.013  0.00  0.00    +0.199 A 
ATOM     11  N   LIG    1        1.227  -0.407  -0.012  0.00  0.00    -0.108 NA
ATOM     12  N   LIG    1        0.002  -0.004   0.002  0.00  0.00    -0.046 NA
BRANCH   8  14
ATOM     13  C   LIG    1       -1.635   2.396   1.466  0.00  0.00    +0.031 C 
ATOM     14  C   LIG    1       -1.222   2.114   0.020  0.00  0.00    +0.165 C 
ENDBRANCH   8  14
ENDBRANCH   1  10
BRANCH   5  15
ATOM     15  C   LIG    1        6.397  -1.616  -0.356  0.00  0.00    -0.082 C 
ATOM     16  C   LIG    1        5.881  -2.626  -1.383  0.00  0.00    -0.017 C 
ENDBRANCH   5  15
TORSDOF 3
