REMARK  Name = ZINC13581278
REMARK                            x       y       z     vdW  Elec       q    Type
REMARK                         _______ _______ _______ _____ _____    ______ ____
ROOT
ATOM      1  C   LIG    1       -1.979   2.986   8.270  0.00  0.00    +0.125 C 
ATOM      2  C   LIG    1       -0.822   2.206   8.405  0.00  0.00    +0.038 C 
ATOM      3  C   LIG    1       -0.220   1.689   7.298  0.00  0.00    -0.007 C 
ATOM      4  C   LIG    1        1.025   0.847   7.418  0.00  0.00    +0.008 C 
ATOM      5  C   LIG    1       -0.791   1.960   6.037  0.00  0.00    +0.011 C 
ATOM      6  C   LIG    1       -0.223   1.454   4.859  0.00  0.00    +0.027 C 
ATOM      7  C   LIG    1       -0.807   1.745   3.645  0.00  0.00    +0.073 C 
ATOM      8  C   LIG    1       -1.962   2.531   3.582  0.00  0.00    +0.024 C 
ATOM      9  C   LIG    1       -2.532   3.028   4.712  0.00  0.00    +0.021 C 
ATOM     10  C   LIG    1       -1.961   2.755   5.967  0.00  0.00    +0.059 C 
ATOM     11  N   LIG    1       -2.508   3.237   7.090  0.00  0.00    -0.298 NA
ATOM     12  H   LIG    1       -3.416   3.852   7.014  0.00  0.00    +0.124 HD
ENDROOT
BRANCH   1  16
ATOM     13  N   LIG    1       -4.698   3.845  11.281  0.00  0.00    -0.300 NA
ATOM     14  C   LIG    1       -4.364   4.911  10.327  0.00  0.00    +0.100 C 
ATOM     15  C   LIG    1       -3.775   4.291   9.057  0.00  0.00    +0.101 C 
ATOM     16  N   LIG    1       -2.582   3.507   9.406  0.00  0.00    -0.285 NA
ATOM     17  C   LIG    1       -2.916   2.440  10.360  0.00  0.00    +0.101 C 
ATOM     18  C   LIG    1       -3.505   3.061  11.630  0.00  0.00    +0.100 C 
BRANCH  13  20
ATOM     19  C   LIG    1       -5.892   3.252  13.335  0.00  0.00    +0.020 C 
ATOM     20  C   LIG    1       -5.336   4.395  12.484  0.00  0.00    +0.081 C 
ENDBRANCH  13  20
ENDBRANCH   1  16
BRANCH   7  21
ATOM     21  N   LIG    1       -0.242   1.246   2.466  0.00  0.00    -0.310 N 
ATOM     22  H   LIG    1        0.233   0.254   2.460  0.00  0.00    +0.149 HD
ATOM     23  C   LIG    1       -0.279   1.982   1.337  0.00  0.00    +0.251 C 
ATOM     24  O   LIG    1       -0.873   3.039   1.321  0.00  0.00    -0.272 OA
BRANCH  23  25
ATOM     25  C   LIG    1        0.419   1.491   0.095  0.00  0.00    +0.324 C 
BRANCH  25  26
ATOM     26  O   LIG    1        0.236   2.438  -0.960  0.00  0.00    -0.483 OA
BRANCH  26  27
ATOM     27  C   LIG    1        0.807   2.145  -2.158  0.00  0.00    +0.121 A 
ATOM     28  C   LIG    1        1.532   0.972  -2.314  0.00  0.00    +0.047 A 
ATOM     29  C   LIG    1        2.107   0.673  -3.534  0.00  0.00    +0.023 A 
ATOM     30  C   LIG    1        1.968   1.548  -4.598  0.00  0.00    +0.041 A 
ATOM     31 CL   LIG    1        2.697   1.174  -6.128  0.00  0.00    -0.084 Cl
ATOM     32  C   LIG    1        1.250   2.721  -4.442  0.00  0.00    +0.023 A 
ATOM     33  C   LIG    1        0.670   3.020  -3.225  0.00  0.00    +0.047 A 
ENDBRANCH  26  27
ENDBRANCH  25  26
ENDBRANCH  23  25
ENDBRANCH   7  21
TORSDOF 6
