REMARK  Name = ZINC13674793
REMARK                            x       y       z     vdW  Elec       q    Type
REMARK                         _______ _______ _______ _____ _____    ______ ____
ROOT
ATOM      1  C   LIG    1        3.573   0.619  -0.029  0.00  0.00    +0.129 A 
ATOM      2  C   LIG    1        4.229  -0.607  -0.048  0.00  0.00    +0.048 A 
ATOM      3  C   LIG    1        5.632  -0.588  -0.062  0.00  0.00    +0.064 A 
ATOM      4  C   LIG    1        6.643  -1.546  -0.081  0.00  0.00    +0.121 A 
ATOM      5  N   LIG    1        7.817  -0.894  -0.087  0.00  0.00    -0.262 N 
ATOM      6  N   LIG    1        7.599   0.488  -0.071  0.00  0.00    -0.150 NA
ATOM      7  H   LIG    1        8.689  -1.319  -0.100  0.00  0.00    +0.190 HD
ATOM      8  C   LIG    1        6.302   0.726  -0.056  0.00  0.00    +0.204 A 
ATOM      9  N   LIG    1        5.541   1.832  -0.037  0.00  0.00    -0.127 NA
ATOM     10  N   LIG    1        4.259   1.765  -0.030  0.00  0.00    -0.144 NA
ENDROOT
BRANCH   1  13
ATOM     11  C   LIG    1       -0.016   1.343   0.009  0.00  0.00    +0.042 A 
ATOM     12  C   LIG    1        1.326   1.774  -0.001  0.00  0.00    +0.051 A 
ATOM     13  C   LIG    1        2.097   0.654  -0.015  0.00  0.00    +0.155 A 
ATOM     14  O   LIG    1        1.280  -0.417  -0.012  0.00  0.00    -0.461 OA
ATOM     15  C   LIG    1        0.002  -0.004   0.002  0.00  0.00    +0.196 A 
ENDBRANCH   1  13
BRANCH   4  16
ATOM     16  N   LIG    1        6.469  -2.919  -0.092  0.00  0.00    -0.343 N 
ATOM     17  H   LIG    1        7.241  -3.506  -0.106  0.00  0.00    +0.144 HD
ATOM     18  H   LIG    1        5.575  -3.295  -0.086  0.00  0.00    +0.144 HD
ENDBRANCH   4  16
TORSDOF 2
