REMARK  Name = ZINC13641826
REMARK                            x       y       z     vdW  Elec       q    Type
REMARK                         _______ _______ _______ _____ _____    ______ ____
ROOT
ATOM      1  C   LIG    1       -1.378  -4.802   0.341  0.00  0.00    +0.015 A 
ATOM      2  C   LIG    1       -1.412  -4.017   1.487  0.00  0.00    +0.060 A 
ATOM      3  C   LIG    1       -1.429  -2.635   1.379  0.00  0.00    +0.128 A 
ATOM      4  C   LIG    1       -1.414  -2.036   0.129  0.00  0.00    +0.034 A 
ATOM      5  C   LIG    1       -1.385  -2.819  -1.016  0.00  0.00    +0.128 A 
ATOM      6  C   LIG    1       -1.362  -4.201  -0.911  0.00  0.00    +0.060 A 
ENDROOT
BRANCH   3   7
ATOM      7  O   LIG    1       -1.462  -1.867   2.500  0.00  0.00    -0.495 OA
ATOM      8  C   LIG    1       -1.477  -2.551   3.755  0.00  0.00    +0.277 C 
ENDBRANCH   3   7
BRANCH   5   9
ATOM      9  O   LIG    1       -1.376  -2.231  -2.241  0.00  0.00    -0.495 OA
ATOM     10  C   LIG    1       -1.347  -3.098  -3.377  0.00  0.00    +0.277 C 
ENDBRANCH   5   9
BRANCH   1  11
ATOM     11  S   LIG    1       -1.355  -6.559   0.476  0.00  0.00    -0.125 S 
BRANCH  11  13
ATOM     12  C   LIG    1       -1.291  -8.660  -1.273  0.00  0.00    +0.015 C 
ATOM     13  C   LIG    1       -1.314  -7.131  -1.245  0.00  0.00    +0.071 C 
ENDBRANCH  11  13
ENDBRANCH   1  11
BRANCH   4  14
ATOM     14  C   LIG    1       -1.433  -0.534   0.013  0.00  0.00    +0.026 C 
BRANCH  14  15
ATOM     15  C   LIG    1        0.002  -0.004   0.002  0.00  0.00    -0.074 C 
ATOM     16  C   LIG    1       -0.019   1.526   0.010  0.00  0.00    -0.014 C 
BRANCH  15  17
ATOM     17  N   LIG    1        0.675  -0.467  -1.224  0.00  0.00    +0.380 N 
ATOM     18  H   LIG    1        0.183  -0.089  -2.042  0.00  0.00    -0.090 HD
ATOM     19  H   LIG    1        0.660  -1.484  -1.268  0.00  0.00    -0.090 HD
ATOM     20  H   LIG    1        1.640  -0.141  -1.237  0.00  0.00    -0.090 HD
ENDBRANCH  15  17
ENDBRANCH  14  15
ENDBRANCH   4  14
TORSDOF 7
