REMARK  Name = ZINC13597821
REMARK                            x       y       z     vdW  Elec       q    Type
REMARK                         _______ _______ _______ _____ _____    ______ ____
ROOT
ATOM      1  C   LIG    1       -0.017   1.375   0.010  0.00  0.00    +0.001 A 
ATOM      2  C   LIG    1        1.171   2.089   0.002  0.00  0.00    +0.002 A 
ATOM      3  C   LIG    1        2.385   1.433  -0.013  0.00  0.00    +0.026 A 
ATOM      4  C   LIG    1        2.425   0.044  -0.022  0.00  0.00    +0.050 A 
ATOM      5  C   LIG    1        1.221  -0.677  -0.014  0.00  0.00    +0.013 A 
ATOM      6  C   LIG    1        1.598  -2.103  -0.026  0.00  0.00    +0.073 A 
ATOM      7  C   LIG    1        2.995  -2.136  -0.040  0.00  0.00    +0.201 A 
ATOM      8  N   LIG    1        3.470  -0.866  -0.038  0.00  0.00    -0.325 N 
ATOM      9  H   LIG    1        4.410  -0.627  -0.046  0.00  0.00    +0.169 HD
ATOM     10  C   LIG    1        0.002  -0.004   0.002  0.00  0.00    +0.011 A 
ENDROOT
BRANCH   6  11
ATOM     11  C   LIG    1        0.722  -3.214  -0.022  0.00  0.00    +0.124 C 
ATOM     12  N   LIG    1        0.236  -3.819  -1.082  0.00  0.00    -0.243 NA
ATOM     13  C   LIG    1       -0.583  -4.861  -0.765  0.00  0.00    +0.076 A 
ATOM     14  C   LIG    1       -1.296  -5.756  -1.563  0.00  0.00    +0.028 A 
ATOM     15  C   LIG    1       -2.070  -6.742  -0.978  0.00  0.00    +0.002 A 
ATOM     16  C   LIG    1       -2.148  -6.857   0.398  0.00  0.00    +0.001 A 
ATOM     17  C   LIG    1       -1.448  -5.980   1.210  0.00  0.00    +0.014 A 
ATOM     18  C   LIG    1       -0.669  -4.985   0.638  0.00  0.00    +0.049 A 
ATOM     19  C   LIG    1        0.188  -3.913   1.190  0.00  0.00    +0.214 C 
ATOM     20  O   LIG    1        0.407  -3.657   2.356  0.00  0.00    -0.285 OA
ENDBRANCH   6  11
BRANCH   7  21
ATOM     21  O   LIG    1        3.752  -3.254  -0.054  0.00  0.00    -0.493 OA
ATOM     22  H   LIG    1        3.342  -4.096  -0.055  0.00  0.00    +0.294 HD
ENDBRANCH   7  21
TORSDOF 2
