REMARK  Name = ZINC13684424
REMARK                            x       y       z     vdW  Elec       q    Type
REMARK                         _______ _______ _______ _____ _____    ______ ____
ROOT
ATOM      1  C   LIG    1        1.286   6.480  -1.199  0.00  0.00    +0.072 A 
ATOM      2  C   LIG    1        2.318   5.744  -0.625  0.00  0.00    +0.037 A 
ATOM      3  C   LIG    1        2.555   4.446  -1.079  0.00  0.00    -0.011 A 
ATOM      4  C   LIG    1        1.743   3.943  -2.102  0.00  0.00    +0.028 A 
ATOM      5  C   LIG    1        0.736   4.736  -2.615  0.00  0.00    +0.112 A 
ATOM      6  N   LIG    1        0.538   5.958  -2.163  0.00  0.00    -0.255 NA
ENDROOT
BRANCH   1  10
ATOM      7  C   LIG    1        0.521  10.443   0.150  0.00  0.00    +0.059 A 
ATOM      8  C   LIG    1       -0.262   9.887  -0.865  0.00  0.00    +0.015 A 
ATOM      9  C   LIG    1       -0.013   8.604  -1.301  0.00  0.00    +0.011 A 
ATOM     10  C   LIG    1        1.020   7.861  -0.729  0.00  0.00    +0.000 A 
ATOM     11  C   LIG    1        1.799   8.414   0.287  0.00  0.00    +0.011 A 
ATOM     12  C   LIG    1        1.556   9.698   0.721  0.00  0.00    +0.015 A 
BRANCH   7  13
ATOM     13  C   LIG    1        0.255  11.818   0.619  0.00  0.00    +0.339 C 
ATOM     14  O   LIG    1       -0.645  12.466   0.122  0.00  0.00    -0.245 OA
BRANCH  13  16
ATOM     15  C   LIG    1        0.692  13.710   2.007  0.00  0.00    +0.280 C 
ATOM     16  O   LIG    1        1.010  12.354   1.597  0.00  0.00    -0.464 OA
ENDBRANCH  13  16
ENDBRANCH   7  13
ENDBRANCH   1  10
BRANCH   3  17
ATOM     17  C   LIG    1        3.643   3.623  -0.498  0.00  0.00    +0.029 A 
ATOM     18  C   LIG    1        4.939   4.007  -0.325  0.00  0.00    +0.114 A 
ATOM     19  N   LIG    1        5.605   2.975   0.233  0.00  0.00    -0.284 N 
ATOM     20  N   LIG    1        4.706   1.918   0.421  0.00  0.00    -0.172 NA
ATOM     21  H   LIG    1        6.576   2.967   0.472  0.00  0.00    +0.188 HD
ATOM     22  C   LIG    1        3.525   2.293  -0.020  0.00  0.00    +0.118 A 
BRANCH  22  23
ATOM     23  C   LIG    1        2.290   1.474  -0.012  0.00  0.00    +0.091 A 
ATOM     24  C   LIG    1        2.383   0.083  -0.020  0.00  0.00    +0.030 A 
ATOM     25  C   LIG    1        1.221  -0.668  -0.013  0.00  0.00    +0.004 A 
ATOM     26  C   LIG    1        0.002  -0.004   0.002  0.00  0.00    +0.020 A 
ATOM     27  C   LIG    1       -0.017   1.378   0.010  0.00  0.00    +0.111 A 
ATOM     28  N   LIG    1        1.105   2.070   0.003  0.00  0.00    -0.253 NA
ENDBRANCH  22  23
ENDBRANCH   3  17
TORSDOF 5
