REMARK  Name = ZINC13679633
REMARK                            x       y       z     vdW  Elec       q    Type
REMARK                         _______ _______ _______ _____ _____    ______ ____
ROOT
ATOM      1  C   LIG    1        0.002  -0.004   0.002  0.00  0.00    +0.121 A 
ATOM      2  C   LIG    1       -0.017   1.387   0.010  0.00  0.00    +0.048 A 
ATOM      3  C   LIG    1        1.143   2.118   0.003  0.00  0.00    +0.032 A 
ATOM      4  C   LIG    1        2.402   1.476  -0.013  0.00  0.00    +0.080 A 
ATOM      5  C   LIG    1        2.385   0.064  -0.020  0.00  0.00    +0.044 A 
ATOM      6  S   LIG    1        4.117  -0.336  -0.039  0.00  0.00    -0.052 S 
ATOM      7  C   LIG    1        4.735   1.341  -0.036  0.00  0.00    +0.159 A 
ATOM      8  N   LIG    1        3.629   2.047  -0.021  0.00  0.00    -0.225 NA
ATOM      9  C   LIG    1        1.222  -0.664  -0.013  0.00  0.00    +0.063 A 
ENDROOT
BRANCH   1  11
ATOM     10  C   LIG    1       -2.376   0.045   0.026  0.00  0.00    +0.277 C 
ATOM     11  O   LIG    1       -1.161  -0.708   0.010  0.00  0.00    -0.495 OA
ENDBRANCH   1  11
BRANCH   7  12
ATOM     12  N   LIG    1        6.044   1.781  -0.046  0.00  0.00    -0.323 N 
ATOM     13  H   LIG    1        6.771   1.139  -0.057  0.00  0.00    +0.148 HD
BRANCH  12  14
ATOM     14  C   LIG    1        6.333   3.217  -0.041  0.00  0.00    +0.105 C 
BRANCH  14  15
ATOM     15  C   LIG    1        7.848   3.432  -0.055  0.00  0.00    +0.040 C 
BRANCH  15  16
ATOM     16  C   LIG    1        8.151   4.931  -0.050  0.00  0.00    +0.124 C 
BRANCH  16  17
ATOM     17  N   LIG    1        9.601   5.137  -0.063  0.00  0.00    -0.337 N 
ATOM     18  C   LIG    1       10.416   5.250   1.031  0.00  0.00    +0.106 A 
ATOM     19  C   LIG    1       11.668   5.425   0.569  0.00  0.00    +0.130 A 
ATOM     20  N   LIG    1       11.619   5.428  -0.772  0.00  0.00    -0.244 NA
ATOM     21  C   LIG    1       10.384   5.256  -1.157  0.00  0.00    +0.199 A 
ENDBRANCH  16  17
ENDBRANCH  15  16
ENDBRANCH  14  15
ENDBRANCH  12  14
ENDBRANCH   7  12
TORSDOF 6
