REMARK  Name = ZINC13641817
REMARK                            x       y       z     vdW  Elec       q    Type
REMARK                         _______ _______ _______ _____ _____    ______ ____
ROOT
ATOM      1  C   LIG    1       -0.621   1.658   3.743  0.00  0.00    +0.034 A 
ATOM      2  C   LIG    1       -0.160   2.863   4.252  0.00  0.00    +0.128 A 
ATOM      3  C   LIG    1       -0.743   3.405   5.387  0.00  0.00    +0.060 A 
ATOM      4  C   LIG    1       -1.783   2.736   6.020  0.00  0.00    +0.015 A 
ATOM      5  C   LIG    1       -2.240   1.526   5.512  0.00  0.00    +0.060 A 
ATOM      6  C   LIG    1       -1.659   0.989   4.374  0.00  0.00    +0.128 A 
ENDROOT
BRANCH   2   7
ATOM      7  O   LIG    1        0.861   3.515   3.636  0.00  0.00    -0.495 OA
ATOM      8  C   LIG    1        1.285   4.751   4.215  0.00  0.00    +0.277 C 
ENDBRANCH   2   7
BRANCH   4   9
ATOM      9  S   LIG    1       -2.521   3.420   7.466  0.00  0.00    -0.128 S 
ATOM     10  C   LIG    1       -1.610   4.965   7.735  0.00  0.00    +0.090 C 
ENDBRANCH   4   9
BRANCH   6  11
ATOM     11  O   LIG    1       -2.106  -0.194   3.877  0.00  0.00    -0.495 OA
ATOM     12  C   LIG    1       -3.178  -0.829   4.577  0.00  0.00    +0.277 C 
ENDBRANCH   6  11
BRANCH   1  13
ATOM     13  C   LIG    1        0.011   1.072   2.506  0.00  0.00    +0.026 C 
BRANCH  13  15
ATOM     14  C   LIG    1       -0.013   1.086   0.008  0.00  0.00    -0.014 C 
ATOM     15  C   LIG    1       -0.729   1.579   1.267  0.00  0.00    -0.074 C 
BRANCH  15  16
ATOM     16  N   LIG    1       -2.115   1.080   1.255  0.00  0.00    +0.380 N 
ATOM     17  H   LIG    1       -2.583   1.404   0.401  0.00  0.00    -0.090 HD
ATOM     18  H   LIG    1       -2.621   1.435   2.066  0.00  0.00    -0.090 HD
ATOM     19  H   LIG    1       -2.120   0.062   1.272  0.00  0.00    -0.090 HD
ENDBRANCH  15  16
ENDBRANCH  13  15
ENDBRANCH   1  13
TORSDOF 6
