REMARK  Name = ZINC13581145
REMARK                            x       y       z     vdW  Elec       q    Type
REMARK                         _______ _______ _______ _____ _____    ______ ____
ROOT
ATOM      1  N   LIG    1        0.002  -0.004   0.002  0.00  0.00    -0.292 NA
ATOM      2  C   LIG    1       -0.018   1.465   0.010  0.00  0.00    +0.104 C 
ATOM      3  C   LIG    1        1.419   1.992  -0.001  0.00  0.00    +0.123 C 
ATOM      4  N   LIG    1        2.138   1.472   1.171  0.00  0.00    -0.297 N 
ATOM      5  C   LIG    1        2.158   0.003   1.162  0.00  0.00    +0.123 C 
ATOM      6  C   LIG    1        0.721  -0.525   1.173  0.00  0.00    +0.104 C 
ENDROOT
BRANCH   4   7
ATOM      7  C   LIG    1        3.422   1.985   1.233  0.00  0.00    +0.218 A 
ATOM      8  N   LIG    1        4.450   1.151   1.281  0.00  0.00    -0.223 NA
ATOM      9  C   LIG    1        5.690   1.608   1.335  0.00  0.00    +0.116 A 
ATOM     10  C   LIG    1        5.905   2.978   1.353  0.00  0.00    +0.039 A 
ATOM     11  C   LIG    1        4.807   3.822   1.308  0.00  0.00    +0.116 A 
ATOM     12  N   LIG    1        3.593   3.299   1.249  0.00  0.00    -0.223 NA
ENDBRANCH   4   7
BRANCH   1  13
ATOM     13  C   LIG    1       -1.361  -0.549  -0.064  0.00  0.00    +0.158 C 
BRANCH  13  20
ATOM     14  C   LIG    1       -1.151  -6.557  -0.461  0.00  0.00    +0.002 A 
ATOM     15  C   LIG    1       -1.058  -6.281  -1.818  0.00  0.00    +0.002 A 
ATOM     16  C   LIG    1       -1.064  -4.992  -2.269  0.00  0.00    +0.030 A 
ATOM     17  C   LIG    1       -1.163  -3.936  -1.359  0.00  0.00    +0.089 A 
ATOM     18  C   LIG    1       -1.256  -4.215   0.015  0.00  0.00    +0.066 A 
ATOM     19  N   LIG    1       -1.340  -2.991   0.648  0.00  0.00    -0.341 N 
ATOM     20  C   LIG    1       -1.297  -2.033  -0.317  0.00  0.00    +0.122 A 
ATOM     21  H   LIG    1       -1.422  -2.942   1.744  0.00  0.00    +0.167 HD
ATOM     22  N   LIG    1       -1.198  -2.585  -1.491  0.00  0.00    -0.231 NA
ATOM     23  C   LIG    1       -1.249  -5.532   0.455  0.00  0.00    +0.028 A 
ENDBRANCH  13  20
ENDBRANCH   1  13
TORSDOF 3
