MODEL 1
REMARK VINA RESULT:      -5.6      0.000      0.000
REMARK  Name = ZINC00000853
REMARK                            x       y       z     vdW  Elec       q    Type
REMARK                         _______ _______ _______ _____ _____    ______ ____
ROOT
ATOM      1  C   LIG    1       24.289  30.342  56.349  0.00  0.00    +0.009 C 
ATOM      2  C   LIG    1       22.970  29.582  56.196  0.00  0.00    +0.005 C 
ATOM      3  C   LIG    1       22.885  28.986  54.790  0.00  0.00    +0.000 C 
ATOM      4  C   LIG    1       22.949  30.109  53.754  0.00  0.00    +0.003 C 
ATOM      5  C   LIG    1       24.269  30.870  53.907  0.00  0.00    +0.040 C 
ATOM      6  C   LIG    1       24.353  31.466  55.312  0.00  0.00    +0.092 C 
ENDROOT
BRANCH   6   7
ATOM      7  C   LIG    1       25.653  32.214  55.463  0.00  0.00    -0.012 A 
ATOM      8  C   LIG    1       26.855  31.546  55.321  0.00  0.00    +0.007 A 
ATOM      9  C   LIG    1       28.049  32.230  55.460  0.00  0.00    +0.004 A 
ATOM     10  C   LIG    1       28.043  33.583  55.740  0.00  0.00    +0.045 A 
ATOM     11  C   LIG    1       26.839  34.255  55.881  0.00  0.00    +0.120 A 
ATOM     12  C   LIG    1       25.642  33.569  55.737  0.00  0.00    +0.052 A 
BRANCH  11  13
ATOM     13  O   LIG    1       26.830  35.586  56.156  0.00  0.00    -0.495 OA
ATOM     14  C   LIG    1       25.628  36.125  56.712  0.00  0.00    +0.277 C 
ENDBRANCH  11  13
ENDBRANCH   6   7
BRANCH   6  15
ATOM     15  O   LIG    1       23.260  32.363  55.516  0.00  0.00    -0.384 OA
ATOM     16  H   LIG    1       22.831  32.652  54.698  0.00  0.00    +0.211 HD
ENDBRANCH   6  15
BRANCH   1  17
ATOM     17  C   LIG    1       24.374  30.938  57.755  0.00  0.00    -0.073 C 
BRANCH  17  19
ATOM     18  C   LIG    1       23.404  29.992  59.733  0.00  0.00    -0.097 C 
ATOM     19  N   LIG    1       23.117  30.686  58.471  0.00  0.00    +0.376 N 
ATOM     20  H   LIG    1       22.515  30.112  57.900  0.00  0.00    -0.083 HD
ATOM     21  C   LIG    1       22.450  31.964  58.755  0.00  0.00    -0.097 C 
ENDBRANCH  17  19
ENDBRANCH   1  17
TORSDOF 5
ENDMDL
MODEL 2
REMARK VINA RESULT:      -4.8      2.595      3.748
REMARK  Name = ZINC00000853
REMARK                            x       y       z     vdW  Elec       q    Type
REMARK                         _______ _______ _______ _____ _____    ______ ____
ROOT
ATOM      1  C   LIG    1       20.743  30.974  56.042  0.00  0.00    +0.009 C 
ATOM      2  C   LIG    1       19.349  30.451  55.688  0.00  0.00    +0.005 C 
ATOM      3  C   LIG    1       19.229  28.989  56.120  0.00  0.00    +0.000 C 
ATOM      4  C   LIG    1       20.287  28.153  55.396  0.00  0.00    +0.003 C 
ATOM      5  C   LIG    1       21.681  28.676  55.750  0.00  0.00    +0.040 C 
ATOM      6  C   LIG    1       21.801  30.139  55.316  0.00  0.00    +0.092 C 
ENDROOT
BRANCH   6   7
ATOM      7  C   LIG    1       23.173  30.654  55.665  0.00  0.00    -0.012 A 
ATOM      8  C   LIG    1       23.623  30.594  56.972  0.00  0.00    +0.007 A 
ATOM      9  C   LIG    1       24.881  31.067  57.294  0.00  0.00    +0.004 A 
ATOM     10  C   LIG    1       25.693  31.601  56.312  0.00  0.00    +0.045 A 
ATOM     11  C   LIG    1       25.245  31.662  55.001  0.00  0.00    +0.120 A 
ATOM     12  C   LIG    1       23.983  31.182  54.678  0.00  0.00    +0.052 A 
BRANCH  11  13
ATOM     13  O   LIG    1       26.041  32.186  54.033  0.00  0.00    -0.495 OA
ATOM     14  C   LIG    1       27.152  32.975  54.464  0.00  0.00    +0.277 C 
ENDBRANCH  11  13
ENDBRANCH   6   7
BRANCH   6  15
ATOM     15  O   LIG    1       21.599  30.236  53.906  0.00  0.00    -0.384 OA
ATOM     16  H   LIG    1       22.183  30.870  53.468  0.00  0.00    +0.211 HD
ENDBRANCH   6  15
BRANCH   1  17
ATOM     17  C   LIG    1       20.863  32.436  55.609  0.00  0.00    -0.073 C 
BRANCH  17  19
ATOM     18  C   LIG    1       22.099  34.021  56.918  0.00  0.00    -0.097 C 
ATOM     19  N   LIG    1       20.824  33.303  56.795  0.00  0.00    +0.376 N 
ATOM     20  H   LIG    1       20.673  32.739  57.618  0.00  0.00    -0.083 HD
ATOM     21  C   LIG    1       19.727  34.271  56.658  0.00  0.00    -0.097 C 
ENDBRANCH  17  19
ENDBRANCH   1  17
TORSDOF 5
ENDMDL
MODEL 3
REMARK VINA RESULT:      -4.7      3.083      4.823
REMARK  Name = ZINC00000853
REMARK                            x       y       z     vdW  Elec       q    Type
REMARK                         _______ _______ _______ _____ _____    ______ ____
ROOT
ATOM      1  C   LIG    1       19.947  31.555  55.950  0.00  0.00    +0.009 C 
ATOM      2  C   LIG    1       18.498  32.045  55.996  0.00  0.00    +0.005 C 
ATOM      3  C   LIG    1       18.451  33.531  55.640  0.00  0.00    +0.000 C 
ATOM      4  C   LIG    1       19.289  34.324  56.645  0.00  0.00    +0.003 C 
ATOM      5  C   LIG    1       20.739  33.834  56.599  0.00  0.00    +0.040 C 
ATOM      6  C   LIG    1       20.785  32.347  56.956  0.00  0.00    +0.092 C 
ENDROOT
BRANCH   6   7
ATOM      7  C   LIG    1       22.212  31.865  56.911  0.00  0.00    -0.012 A 
ATOM      8  C   LIG    1       22.761  31.227  58.008  0.00  0.00    +0.007 A 
ATOM      9  C   LIG    1       24.070  30.783  57.969  0.00  0.00    +0.004 A 
ATOM     10  C   LIG    1       24.833  30.976  56.833  0.00  0.00    +0.045 A 
ATOM     11  C   LIG    1       24.284  31.615  55.731  0.00  0.00    +0.120 A 
ATOM     12  C   LIG    1       22.969  32.054  55.770  0.00  0.00    +0.052 A 
BRANCH  11  13
ATOM     13  O   LIG    1       25.032  31.806  54.612  0.00  0.00    -0.495 OA
ATOM     14  C   LIG    1       26.319  32.401  54.787  0.00  0.00    +0.277 C 
ENDBRANCH  11  13
ENDBRANCH   6   7
BRANCH   6  15
ATOM     15  O   LIG    1       20.258  32.156  58.270  0.00  0.00    -0.384 OA
ATOM     16  H   LIG    1       19.342  31.848  58.285  0.00  0.00    +0.211 HD
ENDBRANCH   6  15
BRANCH   1  17
ATOM     17  C   LIG    1       19.994  30.068  56.307  0.00  0.00    -0.073 C 
BRANCH  17  19
ATOM     18  C   LIG    1       21.458  28.824  54.871  0.00  0.00    -0.097 C 
ATOM     19  N   LIG    1       20.074  29.271  55.075  0.00  0.00    +0.376 N 
ATOM     20  H   LIG    1       19.783  29.835  54.291  0.00  0.00    -0.083 HD
ATOM     21  C   LIG    1       19.192  28.101  55.190  0.00  0.00    -0.097 C 
ENDBRANCH  17  19
ENDBRANCH   1  17
TORSDOF 5
ENDMDL
MODEL 4
REMARK VINA RESULT:      -4.7      3.357      5.294
REMARK  Name = ZINC00000853
REMARK                            x       y       z     vdW  Elec       q    Type
REMARK                         _______ _______ _______ _____ _____    ______ ____
ROOT
ATOM      1  C   LIG    1       19.639  31.523  55.967  0.00  0.00    +0.009 C 
ATOM      2  C   LIG    1       18.178  31.977  56.002  0.00  0.00    +0.005 C 
ATOM      3  C   LIG    1       18.093  33.452  55.608  0.00  0.00    +0.000 C 
ATOM      4  C   LIG    1       18.913  34.291  56.591  0.00  0.00    +0.003 C 
ATOM      5  C   LIG    1       20.374  33.837  56.555  0.00  0.00    +0.040 C 
ATOM      6  C   LIG    1       20.458  32.362  56.950  0.00  0.00    +0.092 C 
ENDROOT
BRANCH   6   7
ATOM      7  C   LIG    1       21.897  31.914  56.915  0.00  0.00    -0.012 A 
ATOM      8  C   LIG    1       22.635  32.053  55.754  0.00  0.00    +0.007 A 
ATOM      9  C   LIG    1       23.955  31.642  55.719  0.00  0.00    +0.004 A 
ATOM     10  C   LIG    1       24.540  31.093  56.844  0.00  0.00    +0.045 A 
ATOM     11  C   LIG    1       23.802  30.955  58.009  0.00  0.00    +0.120 A 
ATOM     12  C   LIG    1       22.479  31.371  58.044  0.00  0.00    +0.052 A 
BRANCH  11  13
ATOM     13  O   LIG    1       24.374  30.415  59.118  0.00  0.00    -0.495 OA
ATOM     14  C   LIG    1       23.491  29.932  60.133  0.00  0.00    +0.277 C 
ENDBRANCH  11  13
ENDBRANCH   6   7
BRANCH   6  15
ATOM     15  O   LIG    1       19.938  32.191  58.270  0.00  0.00    -0.384 OA
ATOM     16  H   LIG    1       20.141  31.332  58.665  0.00  0.00    +0.211 HD
ENDBRANCH   6  15
BRANCH   1  17
ATOM     17  C   LIG    1       19.724  30.047  56.361  0.00  0.00    -0.073 C 
BRANCH  17  19
ATOM     18  C   LIG    1       21.287  28.653  55.193  0.00  0.00    -0.097 C 
ATOM     19  N   LIG    1       19.937  29.230  55.159  0.00  0.00    +0.376 N 
ATOM     20  H   LIG    1       19.837  29.808  54.338  0.00  0.00    -0.083 HD
ATOM     21  C   LIG    1       18.942  28.149  55.119  0.00  0.00    -0.097 C 
ENDBRANCH  17  19
ENDBRANCH   1  17
TORSDOF 5
ENDMDL
MODEL 5
REMARK VINA RESULT:      -4.7      2.217      5.166
REMARK  Name = ZINC00000853
REMARK                            x       y       z     vdW  Elec       q    Type
REMARK                         _______ _______ _______ _____ _____    ______ ____
ROOT
ATOM      1  C   LIG    1       23.974  31.716  55.596  0.00  0.00    +0.009 C 
ATOM      2  C   LIG    1       24.468  31.151  54.263  0.00  0.00    +0.005 C 
ATOM      3  C   LIG    1       23.319  30.429  53.558  0.00  0.00    +0.000 C 
ATOM      4  C   LIG    1       22.815  29.286  54.441  0.00  0.00    +0.003 C 
ATOM      5  C   LIG    1       22.320  29.851  55.775  0.00  0.00    +0.040 C 
ATOM      6  C   LIG    1       23.470  30.573  56.480  0.00  0.00    +0.092 C 
ENDROOT
BRANCH   6   7
ATOM      7  C   LIG    1       22.983  31.130  57.793  0.00  0.00    -0.012 A 
ATOM      8  C   LIG    1       22.034  32.136  57.807  0.00  0.00    +0.007 A 
ATOM      9  C   LIG    1       21.586  32.649  59.010  0.00  0.00    +0.004 A 
ATOM     10  C   LIG    1       22.085  32.159  60.201  0.00  0.00    +0.045 A 
ATOM     11  C   LIG    1       23.036  31.149  60.189  0.00  0.00    +0.120 A 
ATOM     12  C   LIG    1       23.481  30.632  58.981  0.00  0.00    +0.052 A 
BRANCH  11  13
ATOM     13  O   LIG    1       23.529  30.664  61.359  0.00  0.00    -0.495 OA
ATOM     14  C   LIG    1       23.256  29.293  61.659  0.00  0.00    +0.277 C 
ENDBRANCH  11  13
ENDBRANCH   6   7
BRANCH   6  15
ATOM     15  O   LIG    1       24.536  29.652  56.719  0.00  0.00    -0.384 OA
ATOM     16  H   LIG    1       25.365  30.070  56.988  0.00  0.00    +0.211 HD
ENDBRANCH   6  15
BRANCH   1  17
ATOM     17  C   LIG    1       25.123  32.438  56.301  0.00  0.00    -0.073 C 
BRANCH  17  19
ATOM     18  C   LIG    1       26.528  34.241  55.576  0.00  0.00    -0.097 C 
ATOM     19  N   LIG    1       26.123  32.855  55.309  0.00  0.00    +0.376 N 
ATOM     20  H   LIG    1       25.725  32.792  54.384  0.00  0.00    -0.083 HD
ATOM     21  C   LIG    1       27.297  31.975  55.397  0.00  0.00    -0.097 C 
ENDBRANCH  17  19
ENDBRANCH   1  17
TORSDOF 5
ENDMDL
