MODEL 1
REMARK VINA RESULT:      -6.2      0.000      0.000
REMARK  Name = ZINC00000931
REMARK                            x       y       z     vdW  Elec       q    Type
REMARK                         _______ _______ _______ _____ _____    ______ ____
ROOT
ATOM      1  C   LIG    1       27.529  33.428  54.070  0.00  0.00    +0.004 A 
ATOM      2  C   LIG    1       27.400  34.457  54.983  0.00  0.00    +0.004 A 
ATOM      3  C   LIG    1       26.448  34.382  55.985  0.00  0.00    +0.051 A 
ATOM      4  C   LIG    1       25.624  33.273  56.084  0.00  0.00    +0.179 A 
ATOM      5  C   LIG    1       25.766  32.219  55.180  0.00  0.00    +0.218 A 
ATOM      6  N   LIG    1       25.026  31.080  55.284  0.00  0.00    -0.038 NA
ATOM      7  C   LIG    1       23.778  30.992  55.589  0.00  0.00    +0.325 C 
ATOM      8  C   LIG    1       22.898  32.127  55.911  0.00  0.00    +0.109 A 
ATOM      9  C   LIG    1       21.577  32.134  55.462  0.00  0.00    +0.039 A 
ATOM     10  C   LIG    1       20.744  33.187  55.783  0.00  0.00    +0.042 A 
ATOM     11 CL   LIG    1       19.102  33.194  55.220  0.00  0.00    -0.084 Cl
ATOM     12  C   LIG    1       21.215  34.239  56.551  0.00  0.00    +0.023 A 
ATOM     13  C   LIG    1       22.525  34.246  56.994  0.00  0.00    +0.048 A 
ATOM     14  C   LIG    1       23.374  33.202  56.669  0.00  0.00    +0.144 A 
ATOM     15  O   LIG    1       24.674  33.243  57.054  0.00  0.00    -0.451 OA
ATOM     16  C   LIG    1       26.720  32.314  54.161  0.00  0.00    +0.059 A 
ENDROOT
BRANCH   7  17
ATOM     17  N   LIG    1       23.220  29.734  55.616  0.00  0.00    -0.218 N 
ATOM     18  C   LIG    1       22.693  29.115  54.390  0.00  0.00    +0.241 C 
ATOM     19  C   LIG    1       21.268  28.623  54.667  0.00  0.00    +0.124 C 
ATOM     20  N   LIG    1       21.276  27.751  55.849  0.00  0.00    -0.309 NA
ATOM     21  H   LIG    1       20.374  27.319  55.985  0.00  0.00    +0.122 HD
ATOM     22  C   LIG    1       21.694  28.487  57.050  0.00  0.00    +0.124 C 
ATOM     23  C   LIG    1       23.141  28.969  56.871  0.00  0.00    +0.241 C 
ENDBRANCH   7  17
TORSDOF 1
ENDMDL
MODEL 2
REMARK VINA RESULT:      -6.0      2.463      4.232
REMARK  Name = ZINC00000931
REMARK                            x       y       z     vdW  Elec       q    Type
REMARK                         _______ _______ _______ _____ _____    ______ ____
ROOT
ATOM      1  C   LIG    1       28.079  32.884  56.184  0.00  0.00    +0.004 A 
ATOM      2  C   LIG    1       28.239  32.256  54.964  0.00  0.00    +0.004 A 
ATOM      3  C   LIG    1       27.131  31.889  54.220  0.00  0.00    +0.051 A 
ATOM      4  C   LIG    1       25.855  32.153  54.691  0.00  0.00    +0.179 A 
ATOM      5  C   LIG    1       25.687  32.808  55.913  0.00  0.00    +0.218 A 
ATOM      6  N   LIG    1       24.454  33.152  56.379  0.00  0.00    -0.038 NA
ATOM      7  C   LIG    1       23.378  32.447  56.314  0.00  0.00    +0.325 C 
ATOM      8  C   LIG    1       23.266  31.119  55.691  0.00  0.00    +0.109 A 
ATOM      9  C   LIG    1       22.468  30.138  56.281  0.00  0.00    +0.039 A 
ATOM     10  C   LIG    1       22.344  28.899  55.686  0.00  0.00    +0.042 A 
ATOM     11 CL   LIG    1       21.352  27.679  56.424  0.00  0.00    -0.084 Cl
ATOM     12  C   LIG    1       23.009  28.623  54.503  0.00  0.00    +0.023 A 
ATOM     13  C   LIG    1       23.809  29.586  53.914  0.00  0.00    +0.048 A 
ATOM     14  C   LIG    1       23.952  30.829  54.507  0.00  0.00    +0.144 A 
ATOM     15  O   LIG    1       24.786  31.748  53.959  0.00  0.00    -0.451 OA
ATOM     16  C   LIG    1       26.814  33.160  56.662  0.00  0.00    +0.059 A 
ENDROOT
BRANCH   7  17
ATOM     17  N   LIG    1       22.238  32.980  56.872  0.00  0.00    -0.218 N 
ATOM     18  C   LIG    1       21.192  33.578  56.029  0.00  0.00    +0.241 C 
ATOM     19  C   LIG    1       20.865  34.973  56.574  0.00  0.00    +0.124 C 
ATOM     20  N   LIG    1       20.530  34.871  58.000  0.00  0.00    -0.309 NA
ATOM     21  H   LIG    1       20.196  35.755  58.357  0.00  0.00    +0.122 HD
ATOM     22  C   LIG    1       21.674  34.386  58.783  0.00  0.00    +0.124 C 
ATOM     23  C   LIG    1       22.031  32.962  58.329  0.00  0.00    +0.241 C 
ENDBRANCH   7  17
TORSDOF 1
ENDMDL
MODEL 3
REMARK VINA RESULT:      -5.6      2.732      4.155
REMARK  Name = ZINC00000931
REMARK                            x       y       z     vdW  Elec       q    Type
REMARK                         _______ _______ _______ _____ _____    ______ ____
ROOT
ATOM      1  C   LIG    1       27.614  33.189  55.583  0.00  0.00    +0.004 A 
ATOM      2  C   LIG    1       27.567  32.652  54.311  0.00  0.00    +0.004 A 
ATOM      3  C   LIG    1       26.413  32.037  53.858  0.00  0.00    +0.051 A 
ATOM      4  C   LIG    1       25.296  31.961  54.673  0.00  0.00    +0.179 A 
ATOM      5  C   LIG    1       25.328  32.523  55.951  0.00  0.00    +0.218 A 
ATOM      6  N   LIG    1       24.231  32.535  56.758  0.00  0.00    -0.038 NA
ATOM      7  C   LIG    1       23.376  31.585  56.916  0.00  0.00    +0.325 C 
ATOM      8  C   LIG    1       23.408  30.286  56.224  0.00  0.00    +0.109 A 
ATOM      9  C   LIG    1       23.060  29.122  56.911  0.00  0.00    +0.039 A 
ATOM     10  C   LIG    1       23.068  27.907  56.257  0.00  0.00    +0.042 A 
ATOM     11 CL   LIG    1       22.637  26.460  57.115  0.00  0.00    -0.084 Cl
ATOM     12  C   LIG    1       23.420  27.836  54.920  0.00  0.00    +0.023 A 
ATOM     13  C   LIG    1       23.774  28.983  54.232  0.00  0.00    +0.048 A 
ATOM     14  C   LIG    1       23.782  30.207  54.879  0.00  0.00    +0.144 A 
ATOM     15  O   LIG    1       24.190  31.319  54.217  0.00  0.00    -0.451 OA
ATOM     16  C   LIG    1       26.506  33.127  56.404  0.00  0.00    +0.059 A 
ENDROOT
BRANCH   7  17
ATOM     17  N   LIG    1       22.347  31.801  57.804  0.00  0.00    -0.218 N 
ATOM     18  C   LIG    1       22.569  31.708  59.255  0.00  0.00    +0.241 C 
ATOM     19  C   LIG    1       21.508  30.777  59.852  0.00  0.00    +0.124 C 
ATOM     20  N   LIG    1       20.173  31.246  59.457  0.00  0.00    -0.309 NA
ATOM     21  H   LIG    1       19.452  30.724  59.932  0.00  0.00    +0.122 HD
ATOM     22  C   LIG    1       19.996  31.185  58.000  0.00  0.00    +0.124 C 
ATOM     23  C   LIG    1       20.996  32.138  57.328  0.00  0.00    +0.241 C 
ENDBRANCH   7  17
TORSDOF 1
ENDMDL
MODEL 4
REMARK VINA RESULT:      -5.6      3.880      5.496
REMARK  Name = ZINC00000931
REMARK                            x       y       z     vdW  Elec       q    Type
REMARK                         _______ _______ _______ _____ _____    ______ ____
ROOT
ATOM      1  C   LIG    1       19.866  34.032  57.605  0.00  0.00    +0.004 A 
ATOM      2  C   LIG    1       20.542  34.576  56.529  0.00  0.00    +0.004 A 
ATOM      3  C   LIG    1       20.813  33.801  55.415  0.00  0.00    +0.051 A 
ATOM      4  C   LIG    1       20.403  32.478  55.367  0.00  0.00    +0.179 A 
ATOM      5  C   LIG    1       19.698  31.930  56.441  0.00  0.00    +0.218 A 
ATOM      6  N   LIG    1       19.214  30.658  56.406  0.00  0.00    -0.038 NA
ATOM      7  C   LIG    1       19.803  29.617  55.927  0.00  0.00    +0.325 C 
ATOM      8  C   LIG    1       21.130  29.608  55.291  0.00  0.00    +0.109 A 
ATOM      9  C   LIG    1       22.004  28.544  55.519  0.00  0.00    +0.039 A 
ATOM     10  C   LIG    1       23.241  28.523  54.905  0.00  0.00    +0.042 A 
ATOM     11 CL   LIG    1       24.327  27.200  55.193  0.00  0.00    -0.084 Cl
ATOM     12  C   LIG    1       23.618  29.555  54.061  0.00  0.00    +0.023 A 
ATOM     13  C   LIG    1       22.763  30.618  53.835  0.00  0.00    +0.048 A 
ATOM     14  C   LIG    1       21.524  30.657  54.454  0.00  0.00    +0.144 A 
ATOM     15  O   LIG    1       20.715  31.731  54.277  0.00  0.00    -0.451 OA
ATOM     16  C   LIG    1       19.445  32.719  57.568  0.00  0.00    +0.059 A 
ENDROOT
BRANCH   7  17
ATOM     17  N   LIG    1       19.138  28.416  56.015  0.00  0.00    -0.218 N 
ATOM     18  C   LIG    1       18.538  27.795  54.825  0.00  0.00    +0.241 C 
ATOM     19  C   LIG    1       17.080  27.444  55.141  0.00  0.00    +0.124 C 
ATOM     20  N   LIG    1       17.030  26.626  56.360  0.00  0.00    -0.309 NA
ATOM     21  H   LIG    1       16.096  26.281  56.526  0.00  0.00    +0.122 HD
ATOM     22  C   LIG    1       17.531  27.371  57.523  0.00  0.00    +0.124 C 
ATOM     23  C   LIG    1       19.012  27.715  57.304  0.00  0.00    +0.241 C 
ENDBRANCH   7  17
TORSDOF 1
ENDMDL
MODEL 5
REMARK VINA RESULT:      -5.5      3.078      5.449
REMARK  Name = ZINC00000931
REMARK                            x       y       z     vdW  Elec       q    Type
REMARK                         _______ _______ _______ _____ _____    ______ ____
ROOT
ATOM      1  C   LIG    1       17.656  34.132  55.879  0.00  0.00    +0.004 A 
ATOM      2  C   LIG    1       17.724  35.121  56.842  0.00  0.00    +0.004 A 
ATOM      3  C   LIG    1       18.902  35.334  57.537  0.00  0.00    +0.051 A 
ATOM      4  C   LIG    1       20.021  34.563  57.268  0.00  0.00    +0.179 A 
ATOM      5  C   LIG    1       19.966  33.579  56.279  0.00  0.00    +0.218 A 
ATOM      6  N   LIG    1       21.062  32.849  55.932  0.00  0.00    -0.038 NA
ATOM      7  C   LIG    1       21.954  32.366  56.726  0.00  0.00    +0.325 C 
ATOM      8  C   LIG    1       21.974  32.535  58.188  0.00  0.00    +0.109 A 
ATOM      9  C   LIG    1       22.368  31.475  59.006  0.00  0.00    +0.039 A 
ATOM     10  C   LIG    1       22.409  31.639  60.376  0.00  0.00    +0.042 A 
ATOM     11 CL   LIG    1       22.896  30.318  61.392  0.00  0.00    -0.084 Cl
ATOM     12  C   LIG    1       22.060  32.854  60.944  0.00  0.00    +0.023 A 
ATOM     13  C   LIG    1       21.660  33.908  60.143  0.00  0.00    +0.048 A 
ATOM     14  C   LIG    1       21.603  33.753  58.768  0.00  0.00    +0.144 A 
ATOM     15  O   LIG    1       21.152  34.769  57.991  0.00  0.00    -0.451 OA
ATOM     16  C   LIG    1       18.765  33.362  55.595  0.00  0.00    +0.059 A 
ENDROOT
BRANCH   7  17
ATOM     17  N   LIG    1       22.973  31.633  56.162  0.00  0.00    -0.218 N 
ATOM     18  C   LIG    1       22.727  30.288  55.622  0.00  0.00    +0.241 C 
ATOM     19  C   LIG    1       23.760  29.326  56.219  0.00  0.00    +0.124 C 
ATOM     20  N   LIG    1       25.110  29.854  55.980  0.00  0.00    -0.309 NA
ATOM     21  H   LIG    1       25.814  29.185  56.257  0.00  0.00    +0.122 HD
ATOM     22  C   LIG    1       25.308  31.140  56.662  0.00  0.00    +0.124 C 
ATOM     23  C   LIG    1       24.338  32.178  56.077  0.00  0.00    +0.241 C 
ENDBRANCH   7  17
TORSDOF 1
ENDMDL
