REMARK VINA RESULT:      -4.7      3.357      5.294
REMARK  Name = ZINC00000853
REMARK                            x       y       z     vdW  Elec       q    Type
REMARK                         _______ _______ _______ _____ _____    ______ ____
ROOT
ATOM      1  C   LIG    1       19.639  31.523  55.967  0.00  0.00    +0.009 C 
ATOM      2  C   LIG    1       18.178  31.977  56.002  0.00  0.00    +0.005 C 
ATOM      3  C   LIG    1       18.093  33.452  55.608  0.00  0.00    +0.000 C 
ATOM      4  C   LIG    1       18.913  34.291  56.591  0.00  0.00    +0.003 C 
ATOM      5  C   LIG    1       20.374  33.837  56.555  0.00  0.00    +0.040 C 
ATOM      6  C   LIG    1       20.458  32.362  56.950  0.00  0.00    +0.092 C 
ENDROOT
BRANCH   6   7
ATOM      7  C   LIG    1       21.897  31.914  56.915  0.00  0.00    -0.012 A 
ATOM      8  C   LIG    1       22.635  32.053  55.754  0.00  0.00    +0.007 A 
ATOM      9  C   LIG    1       23.955  31.642  55.719  0.00  0.00    +0.004 A 
ATOM     10  C   LIG    1       24.540  31.093  56.844  0.00  0.00    +0.045 A 
ATOM     11  C   LIG    1       23.802  30.955  58.009  0.00  0.00    +0.120 A 
ATOM     12  C   LIG    1       22.479  31.371  58.044  0.00  0.00    +0.052 A 
BRANCH  11  13
ATOM     13  O   LIG    1       24.374  30.415  59.118  0.00  0.00    -0.495 OA
ATOM     14  C   LIG    1       23.491  29.932  60.133  0.00  0.00    +0.277 C 
ENDBRANCH  11  13
ENDBRANCH   6   7
BRANCH   6  15
ATOM     15  O   LIG    1       19.938  32.191  58.270  0.00  0.00    -0.384 OA
ATOM     16  H   LIG    1       20.141  31.332  58.665  0.00  0.00    +0.211 HD
ENDBRANCH   6  15
BRANCH   1  17
ATOM     17  C   LIG    1       19.724  30.047  56.361  0.00  0.00    -0.073 C 
BRANCH  17  19
ATOM     18  C   LIG    1       21.287  28.653  55.193  0.00  0.00    -0.097 C 
ATOM     19  N   LIG    1       19.937  29.230  55.159  0.00  0.00    +0.376 N 
ATOM     20  H   LIG    1       19.837  29.808  54.338  0.00  0.00    -0.083 HD
ATOM     21  C   LIG    1       18.942  28.149  55.119  0.00  0.00    -0.097 C 
ENDBRANCH  17  19
ENDBRANCH   1  17
TORSDOF 5
