REMARK VINA RESULT:      -4.7      2.217      5.166
REMARK  Name = ZINC00000853
REMARK                            x       y       z     vdW  Elec       q    Type
REMARK                         _______ _______ _______ _____ _____    ______ ____
ROOT
ATOM      1  C   LIG    1       23.974  31.716  55.596  0.00  0.00    +0.009 C 
ATOM      2  C   LIG    1       24.468  31.151  54.263  0.00  0.00    +0.005 C 
ATOM      3  C   LIG    1       23.319  30.429  53.558  0.00  0.00    +0.000 C 
ATOM      4  C   LIG    1       22.815  29.286  54.441  0.00  0.00    +0.003 C 
ATOM      5  C   LIG    1       22.320  29.851  55.775  0.00  0.00    +0.040 C 
ATOM      6  C   LIG    1       23.470  30.573  56.480  0.00  0.00    +0.092 C 
ENDROOT
BRANCH   6   7
ATOM      7  C   LIG    1       22.983  31.130  57.793  0.00  0.00    -0.012 A 
ATOM      8  C   LIG    1       22.034  32.136  57.807  0.00  0.00    +0.007 A 
ATOM      9  C   LIG    1       21.586  32.649  59.010  0.00  0.00    +0.004 A 
ATOM     10  C   LIG    1       22.085  32.159  60.201  0.00  0.00    +0.045 A 
ATOM     11  C   LIG    1       23.036  31.149  60.189  0.00  0.00    +0.120 A 
ATOM     12  C   LIG    1       23.481  30.632  58.981  0.00  0.00    +0.052 A 
BRANCH  11  13
ATOM     13  O   LIG    1       23.529  30.664  61.359  0.00  0.00    -0.495 OA
ATOM     14  C   LIG    1       23.256  29.293  61.659  0.00  0.00    +0.277 C 
ENDBRANCH  11  13
ENDBRANCH   6   7
BRANCH   6  15
ATOM     15  O   LIG    1       24.536  29.652  56.719  0.00  0.00    -0.384 OA
ATOM     16  H   LIG    1       25.365  30.070  56.988  0.00  0.00    +0.211 HD
ENDBRANCH   6  15
BRANCH   1  17
ATOM     17  C   LIG    1       25.123  32.438  56.301  0.00  0.00    -0.073 C 
BRANCH  17  19
ATOM     18  C   LIG    1       26.528  34.241  55.576  0.00  0.00    -0.097 C 
ATOM     19  N   LIG    1       26.123  32.855  55.309  0.00  0.00    +0.376 N 
ATOM     20  H   LIG    1       25.725  32.792  54.384  0.00  0.00    -0.083 HD
ATOM     21  C   LIG    1       27.297  31.975  55.397  0.00  0.00    -0.097 C 
ENDBRANCH  17  19
ENDBRANCH   1  17
TORSDOF 5
