REMARK VINA RESULT:      -5.6      0.000      0.000
REMARK  Name = ZINC00000853
REMARK                            x       y       z     vdW  Elec       q    Type
REMARK                         _______ _______ _______ _____ _____    ______ ____
ROOT
ATOM      1  C   LIG    1       24.289  30.342  56.349  0.00  0.00    +0.009 C 
ATOM      2  C   LIG    1       22.970  29.582  56.196  0.00  0.00    +0.005 C 
ATOM      3  C   LIG    1       22.885  28.986  54.790  0.00  0.00    +0.000 C 
ATOM      4  C   LIG    1       22.949  30.109  53.754  0.00  0.00    +0.003 C 
ATOM      5  C   LIG    1       24.269  30.870  53.907  0.00  0.00    +0.040 C 
ATOM      6  C   LIG    1       24.353  31.466  55.312  0.00  0.00    +0.092 C 
ENDROOT
BRANCH   6   7
ATOM      7  C   LIG    1       25.653  32.214  55.463  0.00  0.00    -0.012 A 
ATOM      8  C   LIG    1       26.855  31.546  55.321  0.00  0.00    +0.007 A 
ATOM      9  C   LIG    1       28.049  32.230  55.460  0.00  0.00    +0.004 A 
ATOM     10  C   LIG    1       28.043  33.583  55.740  0.00  0.00    +0.045 A 
ATOM     11  C   LIG    1       26.839  34.255  55.881  0.00  0.00    +0.120 A 
ATOM     12  C   LIG    1       25.642  33.569  55.737  0.00  0.00    +0.052 A 
BRANCH  11  13
ATOM     13  O   LIG    1       26.830  35.586  56.156  0.00  0.00    -0.495 OA
ATOM     14  C   LIG    1       25.628  36.125  56.712  0.00  0.00    +0.277 C 
ENDBRANCH  11  13
ENDBRANCH   6   7
BRANCH   6  15
ATOM     15  O   LIG    1       23.260  32.363  55.516  0.00  0.00    -0.384 OA
ATOM     16  H   LIG    1       22.831  32.652  54.698  0.00  0.00    +0.211 HD
ENDBRANCH   6  15
BRANCH   1  17
ATOM     17  C   LIG    1       24.374  30.938  57.755  0.00  0.00    -0.073 C 
BRANCH  17  19
ATOM     18  C   LIG    1       23.404  29.992  59.733  0.00  0.00    -0.097 C 
ATOM     19  N   LIG    1       23.117  30.686  58.471  0.00  0.00    +0.376 N 
ATOM     20  H   LIG    1       22.515  30.112  57.900  0.00  0.00    -0.083 HD
ATOM     21  C   LIG    1       22.450  31.964  58.755  0.00  0.00    -0.097 C 
ENDBRANCH  17  19
ENDBRANCH   1  17
TORSDOF 5
