REMARK VINA RESULT:      -4.8      2.595      3.748
REMARK  Name = ZINC00000853
REMARK                            x       y       z     vdW  Elec       q    Type
REMARK                         _______ _______ _______ _____ _____    ______ ____
ROOT
ATOM      1  C   LIG    1       20.743  30.974  56.042  0.00  0.00    +0.009 C 
ATOM      2  C   LIG    1       19.349  30.451  55.688  0.00  0.00    +0.005 C 
ATOM      3  C   LIG    1       19.229  28.989  56.120  0.00  0.00    +0.000 C 
ATOM      4  C   LIG    1       20.287  28.153  55.396  0.00  0.00    +0.003 C 
ATOM      5  C   LIG    1       21.681  28.676  55.750  0.00  0.00    +0.040 C 
ATOM      6  C   LIG    1       21.801  30.139  55.316  0.00  0.00    +0.092 C 
ENDROOT
BRANCH   6   7
ATOM      7  C   LIG    1       23.173  30.654  55.665  0.00  0.00    -0.012 A 
ATOM      8  C   LIG    1       23.623  30.594  56.972  0.00  0.00    +0.007 A 
ATOM      9  C   LIG    1       24.881  31.067  57.294  0.00  0.00    +0.004 A 
ATOM     10  C   LIG    1       25.693  31.601  56.312  0.00  0.00    +0.045 A 
ATOM     11  C   LIG    1       25.245  31.662  55.001  0.00  0.00    +0.120 A 
ATOM     12  C   LIG    1       23.983  31.182  54.678  0.00  0.00    +0.052 A 
BRANCH  11  13
ATOM     13  O   LIG    1       26.041  32.186  54.033  0.00  0.00    -0.495 OA
ATOM     14  C   LIG    1       27.152  32.975  54.464  0.00  0.00    +0.277 C 
ENDBRANCH  11  13
ENDBRANCH   6   7
BRANCH   6  15
ATOM     15  O   LIG    1       21.599  30.236  53.906  0.00  0.00    -0.384 OA
ATOM     16  H   LIG    1       22.183  30.870  53.468  0.00  0.00    +0.211 HD
ENDBRANCH   6  15
BRANCH   1  17
ATOM     17  C   LIG    1       20.863  32.436  55.609  0.00  0.00    -0.073 C 
BRANCH  17  19
ATOM     18  C   LIG    1       22.099  34.021  56.918  0.00  0.00    -0.097 C 
ATOM     19  N   LIG    1       20.824  33.303  56.795  0.00  0.00    +0.376 N 
ATOM     20  H   LIG    1       20.673  32.739  57.618  0.00  0.00    -0.083 HD
ATOM     21  C   LIG    1       19.727  34.271  56.658  0.00  0.00    -0.097 C 
ENDBRANCH  17  19
ENDBRANCH   1  17
TORSDOF 5
