REMARK VINA RESULT:      -4.7      3.083      4.823
REMARK  Name = ZINC00000853
REMARK                            x       y       z     vdW  Elec       q    Type
REMARK                         _______ _______ _______ _____ _____    ______ ____
ROOT
ATOM      1  C   LIG    1       19.947  31.555  55.950  0.00  0.00    +0.009 C 
ATOM      2  C   LIG    1       18.498  32.045  55.996  0.00  0.00    +0.005 C 
ATOM      3  C   LIG    1       18.451  33.531  55.640  0.00  0.00    +0.000 C 
ATOM      4  C   LIG    1       19.289  34.324  56.645  0.00  0.00    +0.003 C 
ATOM      5  C   LIG    1       20.739  33.834  56.599  0.00  0.00    +0.040 C 
ATOM      6  C   LIG    1       20.785  32.347  56.956  0.00  0.00    +0.092 C 
ENDROOT
BRANCH   6   7
ATOM      7  C   LIG    1       22.212  31.865  56.911  0.00  0.00    -0.012 A 
ATOM      8  C   LIG    1       22.761  31.227  58.008  0.00  0.00    +0.007 A 
ATOM      9  C   LIG    1       24.070  30.783  57.969  0.00  0.00    +0.004 A 
ATOM     10  C   LIG    1       24.833  30.976  56.833  0.00  0.00    +0.045 A 
ATOM     11  C   LIG    1       24.284  31.615  55.731  0.00  0.00    +0.120 A 
ATOM     12  C   LIG    1       22.969  32.054  55.770  0.00  0.00    +0.052 A 
BRANCH  11  13
ATOM     13  O   LIG    1       25.032  31.806  54.612  0.00  0.00    -0.495 OA
ATOM     14  C   LIG    1       26.319  32.401  54.787  0.00  0.00    +0.277 C 
ENDBRANCH  11  13
ENDBRANCH   6   7
BRANCH   6  15
ATOM     15  O   LIG    1       20.258  32.156  58.270  0.00  0.00    -0.384 OA
ATOM     16  H   LIG    1       19.342  31.848  58.285  0.00  0.00    +0.211 HD
ENDBRANCH   6  15
BRANCH   1  17
ATOM     17  C   LIG    1       19.994  30.068  56.307  0.00  0.00    -0.073 C 
BRANCH  17  19
ATOM     18  C   LIG    1       21.458  28.824  54.871  0.00  0.00    -0.097 C 
ATOM     19  N   LIG    1       20.074  29.271  55.075  0.00  0.00    +0.376 N 
ATOM     20  H   LIG    1       19.783  29.835  54.291  0.00  0.00    -0.083 HD
ATOM     21  C   LIG    1       19.192  28.101  55.190  0.00  0.00    -0.097 C 
ENDBRANCH  17  19
ENDBRANCH   1  17
TORSDOF 5
