REMARK VINA RESULT:      -4.4      0.000      0.000
REMARK  Name = ZINC00000053
REMARK                            x       y       z     vdW  Elec       q    Type
REMARK                         _______ _______ _______ _____ _____    ______ ____
ROOT
ATOM      1  C   LIG    1       24.176  30.126  56.322  0.00  0.00    +0.146 A 
ATOM      2  C   LIG    1       23.421  28.971  56.186  0.00  0.00    +0.047 A 
ATOM      3  C   LIG    1       22.867  28.646  54.964  0.00  0.00    +0.004 A 
ATOM      4  C   LIG    1       23.059  29.470  53.866  0.00  0.00    +0.001 A 
ATOM      5  C   LIG    1       23.806  30.621  53.982  0.00  0.00    +0.018 A 
ATOM      6  C   LIG    1       24.368  30.966  55.215  0.00  0.00    +0.101 A 
ENDROOT
BRANCH   6   7
ATOM      7  C   LIG    1       25.161  32.198  55.349  0.00  0.00    +0.340 C 
ATOM      8  O   LIG    1       26.199  32.331  54.714  0.00  0.00    -0.245 OA
BRANCH   7   9
ATOM      9  O   LIG    1       24.784  33.091  56.096  0.00  0.00    -0.477 OA
ATOM     10  H   LIG    1       25.284  33.879  56.174  0.00  0.00    +0.295 HD
ENDBRANCH   7   9
ENDBRANCH   6   7
BRANCH   1  11
ATOM     11  O   LIG    1       24.722  30.446  57.523  0.00  0.00    -0.425 OA
BRANCH  11  13
ATOM     12  C   LIG    1       22.662  31.478  58.412  0.00  0.00    +0.136 C 
ATOM     13  C   LIG    1       23.894  30.624  58.565  0.00  0.00    +0.309 C 
ATOM     14  O   LIG    1       24.136  30.098  59.627  0.00  0.00    -0.251 OA
ENDBRANCH  11  13
ENDBRANCH   1  11
TORSDOF 4
