REMARK VINA RESULT:      -4.1      1.931      3.232
REMARK  Name = ZINC00000053
REMARK                            x       y       z     vdW  Elec       q    Type
REMARK                         _______ _______ _______ _____ _____    ______ ____
ROOT
ATOM      1  C   LIG    1       23.872  29.901  56.389  0.00  0.00    +0.146 A 
ATOM      2  C   LIG    1       24.764  30.940  56.176  0.00  0.00    +0.047 A 
ATOM      3  C   LIG    1       24.877  31.511  54.924  0.00  0.00    +0.004 A 
ATOM      4  C   LIG    1       24.101  31.051  53.872  0.00  0.00    +0.001 A 
ATOM      5  C   LIG    1       23.209  30.019  54.064  0.00  0.00    +0.018 A 
ATOM      6  C   LIG    1       23.088  29.428  55.326  0.00  0.00    +0.101 A 
ENDROOT
BRANCH   6   7
ATOM      7  C   LIG    1       22.143  28.321  55.538  0.00  0.00    +0.340 C 
ATOM      8  O   LIG    1       20.972  28.442  55.201  0.00  0.00    -0.245 OA
BRANCH   7   9
ATOM      9  O   LIG    1       22.526  27.278  56.052  0.00  0.00    -0.477 OA
ATOM     10  H   LIG    1       21.995  26.508  55.999  0.00  0.00    +0.295 HD
ENDBRANCH   7   9
ENDBRANCH   6   7
BRANCH   1  11
ATOM     11  O   LIG    1       23.760  29.339  57.620  0.00  0.00    -0.425 OA
BRANCH  11  13
ATOM     12  C   LIG    1       22.036  30.773  58.656  0.00  0.00    +0.136 C 
ATOM     13  C   LIG    1       23.399  30.131  58.644  0.00  0.00    +0.309 C 
ATOM     14  O   LIG    1       24.168  30.329  59.555  0.00  0.00    -0.251 OA
ENDBRANCH  11  13
ENDBRANCH   1  11
TORSDOF 4
