REMARK VINA RESULT:      -4.1      3.208      4.358
REMARK  Name = ZINC00000053
REMARK                            x       y       z     vdW  Elec       q    Type
REMARK                         _______ _______ _______ _____ _____    ______ ____
ROOT
ATOM      1  C   LIG    1       22.420  31.567  55.804  0.00  0.00    +0.146 A 
ATOM      2  C   LIG    1       23.227  32.540  56.372  0.00  0.00    +0.047 A 
ATOM      3  C   LIG    1       24.601  32.430  56.300  0.00  0.00    +0.004 A 
ATOM      4  C   LIG    1       25.185  31.347  55.661  0.00  0.00    +0.001 A 
ATOM      5  C   LIG    1       24.400  30.370  55.091  0.00  0.00    +0.018 A 
ATOM      6  C   LIG    1       23.006  30.466  55.161  0.00  0.00    +0.101 A 
ENDROOT
BRANCH   6   7
ATOM      7  C   LIG    1       22.161  29.423  54.560  0.00  0.00    +0.340 C 
ATOM      8  O   LIG    1       22.215  28.274  54.979  0.00  0.00    -0.245 OA
BRANCH   7   9
ATOM      9  O   LIG    1       21.404  29.702  53.640  0.00  0.00    -0.477 OA
ATOM     10  H   LIG    1       21.117  29.034  53.049  0.00  0.00    +0.295 HD
ENDBRANCH   7   9
ENDBRANCH   6   7
BRANCH   1  11
ATOM     11  O   LIG    1       21.069  31.675  55.873  0.00  0.00    -0.425 OA
BRANCH  11  13
ATOM     12  C   LIG    1       19.739  33.754  55.964  0.00  0.00    +0.136 C 
ATOM     13  C   LIG    1       20.482  32.683  55.208  0.00  0.00    +0.309 C 
ATOM     14  O   LIG    1       20.551  32.732  54.002  0.00  0.00    -0.251 OA
ENDBRANCH  11  13
ENDBRANCH   1  11
TORSDOF 4
