REMARK VINA RESULT:      -4.2      1.788      2.961
REMARK  Name = ZINC00000053
REMARK                            x       y       z     vdW  Elec       q    Type
REMARK                         _______ _______ _______ _____ _____    ______ ____
ROOT
ATOM      1  C   LIG    1       23.211  30.995  55.267  0.00  0.00    +0.146 A 
ATOM      2  C   LIG    1       22.480  30.308  54.311  0.00  0.00    +0.047 A 
ATOM      3  C   LIG    1       22.702  28.960  54.106  0.00  0.00    +0.004 A 
ATOM      4  C   LIG    1       23.655  28.286  54.852  0.00  0.00    +0.001 A 
ATOM      5  C   LIG    1       24.391  28.952  55.807  0.00  0.00    +0.018 A 
ATOM      6  C   LIG    1       24.181  30.318  56.021  0.00  0.00    +0.101 A 
ENDROOT
BRANCH   6   7
ATOM      7  C   LIG    1       24.969  31.039  57.034  0.00  0.00    +0.340 C 
ATOM      8  O   LIG    1       24.831  30.773  58.220  0.00  0.00    -0.245 OA
BRANCH   7   9
ATOM      9  O   LIG    1       25.761  31.905  56.690  0.00  0.00    -0.477 OA
ATOM     10  H   LIG    1       26.673  31.809  56.884  0.00  0.00    +0.295 HD
ENDBRANCH   7   9
ENDBRANCH   6   7
BRANCH   1  11
ATOM     11  O   LIG    1       22.993  32.320  55.470  0.00  0.00    -0.425 OA
BRANCH  11  13
ATOM     12  C   LIG    1       21.287  32.268  57.254  0.00  0.00    +0.136 C 
ATOM     13  C   LIG    1       21.778  32.701  55.897  0.00  0.00    +0.309 C 
ATOM     14  O   LIG    1       21.079  33.391  55.193  0.00  0.00    -0.251 OA
ENDBRANCH  11  13
ENDBRANCH   1  11
TORSDOF 4
