REMARK VINA RESULT:      -4.2      3.263      4.669
REMARK  Name = ZINC00000053
REMARK                            x       y       z     vdW  Elec       q    Type
REMARK                         _______ _______ _______ _____ _____    ______ ____
ROOT
ATOM      1  C   LIG    1       22.331  31.896  55.816  0.00  0.00    +0.146 A 
ATOM      2  C   LIG    1       22.446  33.164  56.363  0.00  0.00    +0.047 A 
ATOM      3  C   LIG    1       21.361  34.018  56.367  0.00  0.00    +0.004 A 
ATOM      4  C   LIG    1       20.151  33.616  55.824  0.00  0.00    +0.001 A 
ATOM      5  C   LIG    1       20.017  32.359  55.275  0.00  0.00    +0.018 A 
ATOM      6  C   LIG    1       21.110  31.486  55.260  0.00  0.00    +0.101 A 
ENDROOT
BRANCH   6   7
ATOM      7  C   LIG    1       20.978  30.145  54.669  0.00  0.00    +0.340 C 
ATOM      8  O   LIG    1       20.252  29.312  55.197  0.00  0.00    -0.245 OA
BRANCH   7   9
ATOM      9  O   LIG    1       21.594  29.861  53.651  0.00  0.00    -0.477 OA
ATOM     10  H   LIG    1       21.768  30.521  53.010  0.00  0.00    +0.295 HD
ENDBRANCH   7   9
ENDBRANCH   6   7
BRANCH   1  11
ATOM     11  O   LIG    1       23.397  31.055  55.813  0.00  0.00    -0.425 OA
BRANCH  11  13
ATOM     12  C   LIG    1       25.778  31.661  55.564  0.00  0.00    +0.136 C 
ATOM     13  C   LIG    1       24.422  31.340  54.993  0.00  0.00    +0.309 C 
ATOM     14  O   LIG    1       24.256  31.339  53.795  0.00  0.00    -0.251 OA
ENDBRANCH  11  13
ENDBRANCH   1  11
TORSDOF 4
