MODEL 1
REMARK VINA RESULT:      -4.1      0.000      0.000
REMARK  Name = ZINC00001084
REMARK                            x       y       z     vdW  Elec       q    Type
REMARK                         _______ _______ _______ _____ _____    ______ ____
ROOT
ATOM      1  C   LIG    1       26.878  32.610  53.835  0.00  0.00    +0.150 C 
ATOM      2  N   LIG    1       26.290  32.229  55.122  0.00  0.00    -0.328 N 
ATOM      3  C   LIG    1       26.812  32.458  56.342  0.00  0.00    +0.202 A 
ATOM      4  N   LIG    1       26.015  31.979  57.262  0.00  0.00    -0.218 NA
ATOM      5  C   LIG    1       24.946  31.421  56.688  0.00  0.00    +0.168 A 
ATOM      6  N   LIG    1       23.817  30.783  57.175  0.00  0.00    -0.280 N 
ATOM      7  C   LIG    1       23.637  30.616  58.620  0.00  0.00    +0.155 C 
ATOM      8  C   LIG    1       22.879  30.326  56.324  0.00  0.00    +0.333 A 
ATOM      9  O   LIG    1       21.893  29.770  56.771  0.00  0.00    -0.246 OA
ATOM     10  N   LIG    1       23.008  30.461  54.993  0.00  0.00    -0.262 N 
ATOM     11  C   LIG    1       21.963  29.940  54.110  0.00  0.00    +0.157 C 
ATOM     12  C   LIG    1       24.087  31.071  54.458  0.00  0.00    +0.282 A 
ATOM     13  O   LIG    1       24.193  31.187  53.250  0.00  0.00    -0.265 OA
ATOM     14  C   LIG    1       25.091  31.571  55.314  0.00  0.00    +0.151 A 
ENDROOT
TORSDOF 0
ENDMDL
MODEL 2
REMARK VINA RESULT:      -4.1      1.919      4.729
REMARK  Name = ZINC00001084
REMARK                            x       y       z     vdW  Elec       q    Type
REMARK                         _______ _______ _______ _____ _____    ______ ____
ROOT
ATOM      1  C   LIG    1       23.050  29.099  60.005  0.00  0.00    +0.150 C 
ATOM      2  N   LIG    1       22.543  29.103  58.630  0.00  0.00    -0.328 N 
ATOM      3  C   LIG    1       21.446  28.465  58.178  0.00  0.00    +0.202 A 
ATOM      4  N   LIG    1       21.298  28.692  56.898  0.00  0.00    -0.218 NA
ATOM      5  C   LIG    1       22.283  29.481  56.462  0.00  0.00    +0.168 A 
ATOM      6  N   LIG    1       22.607  30.022  55.228  0.00  0.00    -0.280 N 
ATOM      7  C   LIG    1       21.765  29.741  54.063  0.00  0.00    +0.155 C 
ATOM      8  C   LIG    1       23.687  30.815  55.101  0.00  0.00    +0.333 A 
ATOM      9  O   LIG    1       23.953  31.283  54.010  0.00  0.00    -0.246 OA
ATOM     10  N   LIG    1       24.483  31.097  56.147  0.00  0.00    -0.262 N 
ATOM     11  C   LIG    1       25.650  31.960  55.953  0.00  0.00    +0.157 C 
ATOM     12  C   LIG    1       24.222  30.598  57.373  0.00  0.00    +0.282 A 
ATOM     13  O   LIG    1       24.951  30.860  58.313  0.00  0.00    -0.265 OA
ATOM     14  C   LIG    1       23.095  29.767  57.553  0.00  0.00    +0.151 A 
ENDROOT
TORSDOF 0
ENDMDL
MODEL 3
REMARK VINA RESULT:      -4.1      1.645      4.168
REMARK  Name = ZINC00001084
REMARK                            x       y       z     vdW  Elec       q    Type
REMARK                         _______ _______ _______ _____ _____    ______ ____
ROOT
ATOM      1  C   LIG    1       20.974  29.521  59.838  0.00  0.00    +0.150 C 
ATOM      2  N   LIG    1       22.226  29.945  59.207  0.00  0.00    -0.328 N 
ATOM      3  C   LIG    1       23.431  30.043  59.801  0.00  0.00    +0.202 A 
ATOM      4  N   LIG    1       24.320  30.451  58.933  0.00  0.00    -0.218 NA
ATOM      5  C   LIG    1       23.741  30.637  57.745  0.00  0.00    +0.168 A 
ATOM      6  N   LIG    1       24.201  31.051  56.505  0.00  0.00    -0.280 N 
ATOM      7  C   LIG    1       25.614  31.393  56.327  0.00  0.00    +0.155 C 
ATOM      8  C   LIG    1       23.354  31.128  55.462  0.00  0.00    +0.333 A 
ATOM      9  O   LIG    1       23.777  31.490  54.380  0.00  0.00    -0.246 OA
ATOM     10  N   LIG    1       22.051  30.821  55.586  0.00  0.00    -0.262 N 
ATOM     11  C   LIG    1       21.170  30.929  54.421  0.00  0.00    +0.157 C 
ATOM     12  C   LIG    1       21.542  30.415  56.768  0.00  0.00    +0.282 A 
ATOM     13  O   LIG    1       20.360  30.141  56.869  0.00  0.00    -0.265 OA
ATOM     14  C   LIG    1       22.397  30.313  57.887  0.00  0.00    +0.151 A 
ENDROOT
TORSDOF 0
ENDMDL
MODEL 4
REMARK VINA RESULT:      -4.1      2.399      4.696
REMARK  Name = ZINC00001084
REMARK                            x       y       z     vdW  Elec       q    Type
REMARK                         _______ _______ _______ _____ _____    ______ ____
ROOT
ATOM      1  C   LIG    1       22.738  31.318  60.859  0.00  0.00    +0.150 C 
ATOM      2  N   LIG    1       22.059  31.655  59.605  0.00  0.00    -0.328 N 
ATOM      3  C   LIG    1       20.829  32.189  59.478  0.00  0.00    +0.202 A 
ATOM      4  N   LIG    1       20.549  32.355  58.211  0.00  0.00    -0.218 NA
ATOM      5  C   LIG    1       21.573  31.939  57.462  0.00  0.00    +0.168 A 
ATOM      6  N   LIG    1       21.807  31.887  56.098  0.00  0.00    -0.280 N 
ATOM      7  C   LIG    1       20.784  32.360  55.161  0.00  0.00    +0.155 C 
ATOM      8  C   LIG    1       22.978  31.415  55.631  0.00  0.00    +0.333 A 
ATOM      9  O   LIG    1       23.167  31.380  54.429  0.00  0.00    -0.246 OA
ATOM     10  N   LIG    1       23.941  30.973  56.458  0.00  0.00    -0.262 N 
ATOM     11  C   LIG    1       25.194  30.462  55.899  0.00  0.00    +0.157 C 
ATOM     12  C   LIG    1       23.771  30.995  57.797  0.00  0.00    +0.282 A 
ATOM     13  O   LIG    1       24.651  30.592  58.537  0.00  0.00    -0.265 OA
ATOM     14  C   LIG    1       22.561  31.490  58.330  0.00  0.00    +0.151 A 
ENDROOT
TORSDOF 0
ENDMDL
MODEL 5
REMARK VINA RESULT:      -4.0      3.207      5.188
REMARK  Name = ZINC00001084
REMARK                            x       y       z     vdW  Elec       q    Type
REMARK                         _______ _______ _______ _____ _____    ______ ____
ROOT
ATOM      1  C   LIG    1       17.977  32.932  56.409  0.00  0.00    +0.150 C 
ATOM      2  N   LIG    1       19.336  32.676  55.924  0.00  0.00    -0.328 N 
ATOM      3  C   LIG    1       20.277  33.601  55.650  0.00  0.00    +0.202 A 
ATOM      4  N   LIG    1       21.369  33.010  55.239  0.00  0.00    -0.218 NA
ATOM      5  C   LIG    1       21.192  31.687  55.226  0.00  0.00    +0.168 A 
ATOM      6  N   LIG    1       21.998  30.613  54.888  0.00  0.00    -0.280 N 
ATOM      7  C   LIG    1       23.368  30.843  54.425  0.00  0.00    +0.155 C 
ATOM      8  C   LIG    1       21.528  29.355  54.995  0.00  0.00    +0.333 A 
ATOM      9  O   LIG    1       22.252  28.424  54.697  0.00  0.00    -0.246 OA
ATOM     10  N   LIG    1       20.277  29.103  55.417  0.00  0.00    -0.262 N 
ATOM     11  C   LIG    1       19.812  27.718  55.509  0.00  0.00    +0.157 C 
ATOM     12  C   LIG    1       19.443  30.108  55.758  0.00  0.00    +0.282 A 
ATOM     13  O   LIG    1       18.311  29.867  56.138  0.00  0.00    -0.265 OA
ATOM     14  C   LIG    1       19.897  31.442  55.667  0.00  0.00    +0.151 A 
ENDROOT
TORSDOF 0
ENDMDL
