MODEL 1
REMARK VINA RESULT:      -4.4      0.000      0.000
REMARK  Name = ZINC00000053
REMARK                            x       y       z     vdW  Elec       q    Type
REMARK                         _______ _______ _______ _____ _____    ______ ____
ROOT
ATOM      1  C   LIG    1       24.176  30.126  56.322  0.00  0.00    +0.146 A 
ATOM      2  C   LIG    1       23.421  28.971  56.186  0.00  0.00    +0.047 A 
ATOM      3  C   LIG    1       22.867  28.646  54.964  0.00  0.00    +0.004 A 
ATOM      4  C   LIG    1       23.059  29.470  53.866  0.00  0.00    +0.001 A 
ATOM      5  C   LIG    1       23.806  30.621  53.982  0.00  0.00    +0.018 A 
ATOM      6  C   LIG    1       24.368  30.966  55.215  0.00  0.00    +0.101 A 
ENDROOT
BRANCH   6   7
ATOM      7  C   LIG    1       25.161  32.198  55.349  0.00  0.00    +0.340 C 
ATOM      8  O   LIG    1       26.199  32.331  54.714  0.00  0.00    -0.245 OA
BRANCH   7   9
ATOM      9  O   LIG    1       24.784  33.091  56.096  0.00  0.00    -0.477 OA
ATOM     10  H   LIG    1       25.284  33.879  56.174  0.00  0.00    +0.295 HD
ENDBRANCH   7   9
ENDBRANCH   6   7
BRANCH   1  11
ATOM     11  O   LIG    1       24.722  30.446  57.523  0.00  0.00    -0.425 OA
BRANCH  11  13
ATOM     12  C   LIG    1       22.662  31.478  58.412  0.00  0.00    +0.136 C 
ATOM     13  C   LIG    1       23.894  30.624  58.565  0.00  0.00    +0.309 C 
ATOM     14  O   LIG    1       24.136  30.098  59.627  0.00  0.00    -0.251 OA
ENDBRANCH  11  13
ENDBRANCH   1  11
TORSDOF 4
ENDMDL
MODEL 2
REMARK VINA RESULT:      -4.2      1.788      2.961
REMARK  Name = ZINC00000053
REMARK                            x       y       z     vdW  Elec       q    Type
REMARK                         _______ _______ _______ _____ _____    ______ ____
ROOT
ATOM      1  C   LIG    1       23.211  30.995  55.267  0.00  0.00    +0.146 A 
ATOM      2  C   LIG    1       22.480  30.308  54.311  0.00  0.00    +0.047 A 
ATOM      3  C   LIG    1       22.702  28.960  54.106  0.00  0.00    +0.004 A 
ATOM      4  C   LIG    1       23.655  28.286  54.852  0.00  0.00    +0.001 A 
ATOM      5  C   LIG    1       24.391  28.952  55.807  0.00  0.00    +0.018 A 
ATOM      6  C   LIG    1       24.181  30.318  56.021  0.00  0.00    +0.101 A 
ENDROOT
BRANCH   6   7
ATOM      7  C   LIG    1       24.969  31.039  57.034  0.00  0.00    +0.340 C 
ATOM      8  O   LIG    1       24.831  30.773  58.220  0.00  0.00    -0.245 OA
BRANCH   7   9
ATOM      9  O   LIG    1       25.761  31.905  56.690  0.00  0.00    -0.477 OA
ATOM     10  H   LIG    1       26.673  31.809  56.884  0.00  0.00    +0.295 HD
ENDBRANCH   7   9
ENDBRANCH   6   7
BRANCH   1  11
ATOM     11  O   LIG    1       22.993  32.320  55.470  0.00  0.00    -0.425 OA
BRANCH  11  13
ATOM     12  C   LIG    1       21.287  32.268  57.254  0.00  0.00    +0.136 C 
ATOM     13  C   LIG    1       21.778  32.701  55.897  0.00  0.00    +0.309 C 
ATOM     14  O   LIG    1       21.079  33.391  55.193  0.00  0.00    -0.251 OA
ENDBRANCH  11  13
ENDBRANCH   1  11
TORSDOF 4
ENDMDL
MODEL 3
REMARK VINA RESULT:      -4.2      3.263      4.669
REMARK  Name = ZINC00000053
REMARK                            x       y       z     vdW  Elec       q    Type
REMARK                         _______ _______ _______ _____ _____    ______ ____
ROOT
ATOM      1  C   LIG    1       22.331  31.896  55.816  0.00  0.00    +0.146 A 
ATOM      2  C   LIG    1       22.446  33.164  56.363  0.00  0.00    +0.047 A 
ATOM      3  C   LIG    1       21.361  34.018  56.367  0.00  0.00    +0.004 A 
ATOM      4  C   LIG    1       20.151  33.616  55.824  0.00  0.00    +0.001 A 
ATOM      5  C   LIG    1       20.017  32.359  55.275  0.00  0.00    +0.018 A 
ATOM      6  C   LIG    1       21.110  31.486  55.260  0.00  0.00    +0.101 A 
ENDROOT
BRANCH   6   7
ATOM      7  C   LIG    1       20.978  30.145  54.669  0.00  0.00    +0.340 C 
ATOM      8  O   LIG    1       20.252  29.312  55.197  0.00  0.00    -0.245 OA
BRANCH   7   9
ATOM      9  O   LIG    1       21.594  29.861  53.651  0.00  0.00    -0.477 OA
ATOM     10  H   LIG    1       21.768  30.521  53.010  0.00  0.00    +0.295 HD
ENDBRANCH   7   9
ENDBRANCH   6   7
BRANCH   1  11
ATOM     11  O   LIG    1       23.397  31.055  55.813  0.00  0.00    -0.425 OA
BRANCH  11  13
ATOM     12  C   LIG    1       25.778  31.661  55.564  0.00  0.00    +0.136 C 
ATOM     13  C   LIG    1       24.422  31.340  54.993  0.00  0.00    +0.309 C 
ATOM     14  O   LIG    1       24.256  31.339  53.795  0.00  0.00    -0.251 OA
ENDBRANCH  11  13
ENDBRANCH   1  11
TORSDOF 4
ENDMDL
MODEL 4
REMARK VINA RESULT:      -4.1      3.208      4.358
REMARK  Name = ZINC00000053
REMARK                            x       y       z     vdW  Elec       q    Type
REMARK                         _______ _______ _______ _____ _____    ______ ____
ROOT
ATOM      1  C   LIG    1       22.420  31.567  55.804  0.00  0.00    +0.146 A 
ATOM      2  C   LIG    1       23.227  32.540  56.372  0.00  0.00    +0.047 A 
ATOM      3  C   LIG    1       24.601  32.430  56.300  0.00  0.00    +0.004 A 
ATOM      4  C   LIG    1       25.185  31.347  55.661  0.00  0.00    +0.001 A 
ATOM      5  C   LIG    1       24.400  30.370  55.091  0.00  0.00    +0.018 A 
ATOM      6  C   LIG    1       23.006  30.466  55.161  0.00  0.00    +0.101 A 
ENDROOT
BRANCH   6   7
ATOM      7  C   LIG    1       22.161  29.423  54.560  0.00  0.00    +0.340 C 
ATOM      8  O   LIG    1       22.215  28.274  54.979  0.00  0.00    -0.245 OA
BRANCH   7   9
ATOM      9  O   LIG    1       21.404  29.702  53.640  0.00  0.00    -0.477 OA
ATOM     10  H   LIG    1       21.117  29.034  53.049  0.00  0.00    +0.295 HD
ENDBRANCH   7   9
ENDBRANCH   6   7
BRANCH   1  11
ATOM     11  O   LIG    1       21.069  31.675  55.873  0.00  0.00    -0.425 OA
BRANCH  11  13
ATOM     12  C   LIG    1       19.739  33.754  55.964  0.00  0.00    +0.136 C 
ATOM     13  C   LIG    1       20.482  32.683  55.208  0.00  0.00    +0.309 C 
ATOM     14  O   LIG    1       20.551  32.732  54.002  0.00  0.00    -0.251 OA
ENDBRANCH  11  13
ENDBRANCH   1  11
TORSDOF 4
ENDMDL
MODEL 5
REMARK VINA RESULT:      -4.1      1.931      3.232
REMARK  Name = ZINC00000053
REMARK                            x       y       z     vdW  Elec       q    Type
REMARK                         _______ _______ _______ _____ _____    ______ ____
ROOT
ATOM      1  C   LIG    1       23.872  29.901  56.389  0.00  0.00    +0.146 A 
ATOM      2  C   LIG    1       24.764  30.940  56.176  0.00  0.00    +0.047 A 
ATOM      3  C   LIG    1       24.877  31.511  54.924  0.00  0.00    +0.004 A 
ATOM      4  C   LIG    1       24.101  31.051  53.872  0.00  0.00    +0.001 A 
ATOM      5  C   LIG    1       23.209  30.019  54.064  0.00  0.00    +0.018 A 
ATOM      6  C   LIG    1       23.088  29.428  55.326  0.00  0.00    +0.101 A 
ENDROOT
BRANCH   6   7
ATOM      7  C   LIG    1       22.143  28.321  55.538  0.00  0.00    +0.340 C 
ATOM      8  O   LIG    1       20.972  28.442  55.201  0.00  0.00    -0.245 OA
BRANCH   7   9
ATOM      9  O   LIG    1       22.526  27.278  56.052  0.00  0.00    -0.477 OA
ATOM     10  H   LIG    1       21.995  26.508  55.999  0.00  0.00    +0.295 HD
ENDBRANCH   7   9
ENDBRANCH   6   7
BRANCH   1  11
ATOM     11  O   LIG    1       23.760  29.339  57.620  0.00  0.00    -0.425 OA
BRANCH  11  13
ATOM     12  C   LIG    1       22.036  30.773  58.656  0.00  0.00    +0.136 C 
ATOM     13  C   LIG    1       23.399  30.131  58.644  0.00  0.00    +0.309 C 
ATOM     14  O   LIG    1       24.168  30.329  59.555  0.00  0.00    -0.251 OA
ENDBRANCH  11  13
ENDBRANCH   1  11
TORSDOF 4
ENDMDL
