REMARK  Name = ZINC03830449
REMARK                            x       y       z     vdW  Elec       q    Type
REMARK                         _______ _______ _______ _____ _____    ______ ____
ROOT
ATOM      1  C   LIG    1       -1.266  -0.587  -0.072  0.00  0.00    +0.242 C 
ATOM      2  C   LIG    1       -1.236  -2.100   0.059  0.00  0.00    +0.199 C 
ATOM      3  N   LIG    1       -2.080  -2.043  -1.171  0.00  0.00    -0.244 N 
ATOM      4  C   LIG    1       -2.894  -3.082  -1.669  0.00  0.00    +0.125 C 
ATOM      5  C   LIG    1       -3.275  -4.074  -0.878  0.00  0.00    +0.006 C 
ATOM      6  C   LIG    1       -2.917  -4.311   0.553  0.00  0.00    +0.107 C 
ATOM      7  S   LIG    1       -2.290  -2.796   1.376  0.00  0.00    -0.128 S 
ATOM      8  C   LIG    1       -1.894  -0.741  -1.439  0.00  0.00    +0.275 C 
ATOM      9  O   LIG    1       -2.128  -0.005  -2.374  0.00  0.00    -0.270 OA
ENDROOT
BRANCH   1  10
ATOM     10  N   LIG    1       -2.149   0.064   0.900  0.00  0.00    -0.278 N 
ATOM     11  H   LIG    1       -1.789   0.712   1.525  0.00  0.00    +0.152 HD
ATOM     12  C   LIG    1       -3.462  -0.239   0.925  0.00  0.00    +0.220 C 
ATOM     13  O   LIG    1       -3.913  -1.049   0.144  0.00  0.00    -0.275 OA
BRANCH  12  14
ATOM     14  C   LIG    1       -4.371   0.430   1.925  0.00  0.00    +0.138 C 
BRANCH  14  15
ATOM     15  C   LIG    1       -5.777  -0.079   1.745  0.00  0.00    -0.001 A 
ATOM     16  C   LIG    1       -6.385  -1.136   2.337  0.00  0.00    +0.011 A 
ATOM     17  C   LIG    1       -7.699  -1.420   2.017  0.00  0.00    +0.008 A 
ATOM     18  C   LIG    1       -8.342  -0.633   1.119  0.00  0.00    +0.045 A 
ATOM     19  S   LIG    1       -7.079   0.558   0.702  0.00  0.00    -0.101 S 
ENDBRANCH  14  15
ENDBRANCH  12  14
ENDBRANCH   1  10
BRANCH   1  21
ATOM     20  C   LIG    1        0.025   1.431  -0.141  0.00  0.00    +0.197 C 
ATOM     21  O   LIG    1        0.035   0.003  -0.111  0.00  0.00    -0.349 OA
ENDBRANCH   1  21
BRANCH   4  22
ATOM     22  C   LIG    1       -3.322  -3.065  -3.077  0.00  0.00    +0.351 C 
ATOM     23  O   LIG    1       -3.938  -4.015  -3.541  0.00  0.00    -0.244 OA
BRANCH  22  24
ATOM     24  O   LIG    1       -3.063  -2.100  -3.783  0.00  0.00    -0.476 OA
ATOM     25  H   LIG    1       -2.592  -1.372  -3.428  0.00  0.00    +0.295 HD
ENDBRANCH  22  24
ENDBRANCH   4  22
BRANCH   5  26
ATOM     26  C   LIG    1       -4.189  -5.096  -1.502  0.00  0.00    +0.268 C 
BRANCH  26  27
ATOM     27  O   LIG    1       -4.605  -6.033  -0.508  0.00  0.00    -0.446 OA
BRANCH  27  28
ATOM     28  C   LIG    1       -5.348  -7.077  -0.924  0.00  0.00    +0.398 C 
ATOM     29  N   LIG    1       -5.773  -7.998  -0.037  0.00  0.00    -0.295 N 
ATOM     30  H   LIG    1       -6.308  -8.750  -0.337  0.00  0.00    +0.148 HD
ATOM     31  H   LIG    1       -5.544  -7.909   0.902  0.00  0.00    +0.148 HD
ATOM     32  O   LIG    1       -5.634  -7.188  -2.100  0.00  0.00    -0.227 OA
ENDBRANCH  27  28
ENDBRANCH  26  27
ENDBRANCH   5  26
TORSDOF 9
