REMARK  Name = ZINC03815485
REMARK                            x       y       z     vdW  Elec       q    Type
REMARK                         _______ _______ _______ _____ _____    ______ ____
ROOT
ATOM      1  C   LIG    1        6.411   5.259   0.354  0.00  0.00    +0.045 C 
ATOM      2  C   LIG    1        5.301   4.247   0.238  0.00  0.00    -0.029 A 
ATOM      3  C   LIG    1        5.453   2.901   0.167  0.00  0.00    +0.086 A 
ATOM      4  N   LIG    1        4.229   2.323   0.071  0.00  0.00    -0.361 N 
ATOM      5  C   LIG    1        3.272   3.315   0.082  0.00  0.00    +0.043 A 
ATOM      6  H   LIG    1        4.057   1.370   0.006  0.00  0.00    +0.165 HD
ATOM      7  C   LIG    1        3.935   4.529   0.180  0.00  0.00    -0.019 A 
ENDROOT
BRANCH   5   8
ATOM      8  C   LIG    1        1.877   3.129   0.001  0.00  0.00    +0.039 C 
ATOM      9  C   LIG    1        1.360   2.095  -0.756  0.00  0.00    +0.048 C 
ATOM     10  C   LIG    1       -0.051   1.656  -0.837  0.00  0.00    +0.008 A 
ATOM     11  C   LIG    1       -1.222   2.095  -0.228  0.00  0.00    +0.010 A 
ATOM     12  C   LIG    1       -2.418   1.468  -0.514  0.00  0.00    +0.001 A 
ATOM     13  C   LIG    1       -2.449   0.401  -1.397  0.00  0.00    +0.002 A 
ATOM     14  C   LIG    1       -1.292  -0.044  -2.002  0.00  0.00    +0.024 A 
ATOM     15  C   LIG    1       -0.078   0.577  -1.730  0.00  0.00    +0.042 A 
ATOM     16  N   LIG    1        1.209   0.335  -2.192  0.00  0.00    -0.281 N 
ATOM     17  H   LIG    1        1.442  -0.365  -2.823  0.00  0.00    +0.155 HD
ATOM     18  C   LIG    1        2.092   1.194  -1.655  0.00  0.00    +0.249 C 
ATOM     19  O   LIG    1        3.290   1.220  -1.875  0.00  0.00    -0.270 OA
ENDBRANCH   5   8
BRANCH   7  20
ATOM     20  C   LIG    1        3.300   5.895   0.221  0.00  0.00    +0.048 C 
BRANCH  20  21
ATOM     21  C   LIG    1        3.011   6.280   1.673  0.00  0.00    +0.125 C 
BRANCH  21  22
ATOM     22  C   LIG    1        2.376   7.646   1.713  0.00  0.00    +0.305 C 
ATOM     23  O   LIG    1        2.175   8.250   0.686  0.00  0.00    -0.251 OA
BRANCH  22  24
ATOM     24  O   LIG    1        2.034   8.193   2.891  0.00  0.00    -0.481 OA
ATOM     25  H   LIG    1        2.190   7.725   3.687  0.00  0.00    +0.295 HD
ENDBRANCH  22  24
ENDBRANCH  21  22
ENDBRANCH  20  21
ENDBRANCH   7  20
TORSDOF 5
