REMARK  Name = ZINC03780343
REMARK                            x       y       z     vdW  Elec       q    Type
REMARK                         _______ _______ _______ _____ _____    ______ ____
ROOT
ATOM      1  C   LIG    1       -0.026   0.158  -2.385  0.00  0.00    +0.011 A 
ATOM      2  C   LIG    1        0.165   1.534  -2.406  0.00  0.00    +0.011 A 
ATOM      3  C   LIG    1        0.139   2.232  -3.606  0.00  0.00    +0.001 A 
ATOM      4  C   LIG    1       -0.072   1.606  -4.796  0.00  0.00    +0.009 A 
ATOM      5  C   LIG    1       -0.273   0.217  -4.850  0.00  0.00    -0.002 A 
ATOM      6  C   LIG    1       -0.493  -0.442  -6.071  0.00  0.00    +0.104 A 
ATOM      7  C   LIG    1       -0.666  -1.797  -6.086  0.00  0.00    +0.132 A 
ATOM      8  C   LIG    1       -0.647  -2.535  -4.899  0.00  0.00    +0.047 A 
ATOM      9  C   LIG    1       -0.443  -1.924  -3.699  0.00  0.00    +0.013 A 
ATOM     10  C   LIG    1       -0.249  -0.538  -3.651  0.00  0.00    -0.008 A 
ENDROOT
BRANCH   6  11
ATOM     11  C   LIG    1       -0.516   0.339  -7.360  0.00  0.00    +0.421 C 
ATOM     12  F   LIG    1       -1.605   1.217  -7.353  0.00  0.00    -0.166 F 
ATOM     13  F   LIG    1       -0.636  -0.544  -8.438  0.00  0.00    -0.166 F 
ATOM     14  F   LIG    1        0.671   1.069  -7.485  0.00  0.00    -0.166 F 
ENDBRANCH   6  11
BRANCH   1  15
ATOM     15  C   LIG    1        0.001  -0.586  -1.114  0.00  0.00    +0.083 C 
ATOM     16  S   LIG    1       -1.460  -0.923  -0.288  0.00  0.00    -0.035 S 
BRANCH  15  18
ATOM     17  C   LIG    1        2.434  -0.616  -1.246  0.00  0.00    +0.130 C 
ATOM     18  N   LIG    1        1.176  -1.000  -0.601  0.00  0.00    -0.316 N 
BRANCH  18  19
ATOM     19  C   LIG    1        1.196  -1.836   0.603  0.00  0.00    +0.225 C 
BRANCH  19  20
ATOM     20  C   LIG    1        1.261  -0.956   1.824  0.00  0.00    +0.322 C 
ATOM     21  O   LIG    1        1.289   0.257   1.701  0.00  0.00    -0.249 OA
BRANCH  20  22
ATOM     22  O   LIG    1        1.286  -1.456   2.935  0.00  0.00    -0.480 OA
ATOM     23  H   LIG    1        1.265  -2.388   3.030  0.00  0.00    +0.295 HD
ENDBRANCH  20  22
ENDBRANCH  19  20
ENDBRANCH  18  19
ENDBRANCH  15  18
ENDBRANCH   1  15
BRANCH   7  24
ATOM     24  O   LIG    1       -0.873  -2.434  -7.268  0.00  0.00    -0.495 OA
ATOM     25  C   LIG    1       -1.061  -3.850  -7.218  0.00  0.00    +0.277 C 
ENDBRANCH   7  24
TORSDOF 7
