REMARK  Name = ZINC03814318
REMARK                            x       y       z     vdW  Elec       q    Type
REMARK                         _______ _______ _______ _____ _____    ______ ____
ROOT
ATOM      1  N   LIG    1       -2.534   3.505  -1.631  0.00  0.00    -0.300 N 
ATOM      2  H   LIG    1       -3.391   3.074  -1.488  0.00  0.00    +0.150 HD
ENDROOT
BRANCH   1   7
ATOM      3  C   LIG    1       -1.036   5.834  -3.886  0.00  0.00    +0.225 A 
ATOM      4  N   LIG    1       -2.014   6.125  -4.720  0.00  0.00    -0.219 NA
ATOM      5  C   LIG    1       -3.216   5.569  -4.583  0.00  0.00    +0.152 A 
ATOM      6  C   LIG    1       -3.429   4.667  -3.545  0.00  0.00    +0.200 A 
ATOM      7  C   LIG    1       -2.372   4.393  -2.683  0.00  0.00    +0.156 A 
ATOM      8  N   LIG    1       -1.199   4.990  -2.888  0.00  0.00    -0.218 NA
BRANCH   5   9
ATOM      9  N   LIG    1       -4.239   5.880  -5.465  0.00  0.00    -0.341 N 
ATOM     10  H   LIG    1       -5.112   5.472  -5.359  0.00  0.00    +0.144 HD
ATOM     11  H   LIG    1       -4.082   6.507  -6.189  0.00  0.00    +0.144 HD
ENDBRANCH   5   9
BRANCH   6  12
ATOM     12  N   LIG    1       -4.748   4.021  -3.359  0.00  0.00    +0.013 N 
ATOM     13  O   LIG    1       -5.592   4.551  -2.658  0.00  0.00    -0.130 OA
BRANCH  12  14
ATOM     14  O   LIG    1       -4.989   2.960  -3.906  0.00  0.00    -0.396 OA
ATOM     15  H   LIG    1       -4.339   2.553  -4.445  0.00  0.00    +0.329 HD
ENDBRANCH  12  14
ENDBRANCH   6  12
ENDBRANCH   1   7
BRANCH   1  16
ATOM     16  C1* LIG    1       -1.412   3.219  -0.734  0.00  0.00    +0.236 C 
ATOM     17  C2* LIG    1       -1.923   2.886   0.691  0.00  0.00    +0.192 C 
ATOM     18  C3* LIG    1       -0.760   2.033   1.262  0.00  0.00    +0.178 C 
ATOM     19  C4* LIG    1       -0.019   1.526   0.010  0.00  0.00    +0.177 C 
ATOM     20  O4* LIG    1       -0.733   2.011  -1.139  0.00  0.00    -0.348 OA
BRANCH  17  21
ATOM     21  O2* LIG    1       -2.106   4.077   1.459  0.00  0.00    -0.385 OA
ATOM     22  H2* LIG    1       -2.760   4.686   1.090  0.00  0.00    +0.210 HD
ENDBRANCH  17  21
BRANCH  18  23
ATOM     23  O3* LIG    1        0.106   2.837   2.065  0.00  0.00    -0.386 OA
ATOM     24  H3* LIG    1       -0.310   3.183   2.867  0.00  0.00    +0.210 HD
ENDBRANCH  18  23
BRANCH  19  25
ATOM     25  C5* LIG    1        0.002  -0.004   0.002  0.00  0.00    +0.190 C 
BRANCH  25  26
ATOM     26  O5* LIG    1        0.784  -0.464  -1.102  0.00  0.00    -0.392 OA
ATOM     27  H5* LIG    1        0.841  -1.427  -1.170  0.00  0.00    +0.210 HD
ENDBRANCH  25  26
ENDBRANCH  19  25
ENDBRANCH   1  16
TORSDOF 9
