REMARK  Name = ZINC03870798
REMARK                            x       y       z     vdW  Elec       q    Type
REMARK                         _______ _______ _______ _____ _____    ______ ____
ROOT
ATOM      1  C   LIG    1        1.053   3.272  -0.426  0.00  0.00    +0.148 C 
ATOM      2  C   LIG    1        1.295   1.820  -0.001  0.00  0.00    +0.165 C 
ATOM      3  C   LIG    1       -0.013   1.076   0.008  0.00  0.00    +0.059 C 
ATOM      4  C   LIG    1       -1.181   1.699   0.017  0.00  0.00    +0.203 C 
ATOM      5  O   LIG    1       -1.298   3.050   0.023  0.00  0.00    -0.478 OA
ATOM      6  C   LIG    1       -0.141   3.814   0.371  0.00  0.00    +0.228 C 
ENDROOT
BRANCH   1   9
ATOM      7  C   LIG    1        4.481   4.949  -0.735  0.00  0.00    +0.109 C 
ATOM      8  C   LIG    1        3.256   4.122  -1.030  0.00  0.00    +0.210 C 
ATOM      9  N   LIG    1        2.244   4.075  -0.140  0.00  0.00    -0.306 N 
ATOM     10  H   LIG    1        2.305   4.574   0.690  0.00  0.00    +0.149 HD
ATOM     11  O   LIG    1        3.180   3.499  -2.067  0.00  0.00    -0.276 OA
ENDBRANCH   1   9
BRANCH   2  12
ATOM     12  O   LIG    1        2.192   1.196  -0.922  0.00  0.00    -0.386 OA
ATOM     13  H   LIG    1        2.390   0.273  -0.714  0.00  0.00    +0.210 HD
ENDBRANCH   2  12
BRANCH   4  14
ATOM     14  C   LIG    1       -2.411   0.888   0.027  0.00  0.00    +0.372 C 
ATOM     15  O   LIG    1       -2.338  -0.325   0.027  0.00  0.00    -0.242 OA
BRANCH  14  16
ATOM     16  O   LIG    1       -3.616   1.490   0.037  0.00  0.00    -0.475 OA
ATOM     17  H   LIG    1       -3.673   2.426   0.037  0.00  0.00    +0.296 HD
ENDBRANCH  14  16
ENDBRANCH   4  14
BRANCH   6  18
ATOM     18  C   LIG    1       -0.370   5.285   0.021  0.00  0.00    +0.187 C 
BRANCH  18  19
ATOM     19  O   LIG    1        0.799   6.040   0.346  0.00  0.00    -0.385 OA
ATOM     20  H   LIG    1        1.043   6.005   1.281  0.00  0.00    +0.210 HD
ENDBRANCH  18  19
BRANCH  18  21
ATOM     21  C   LIG    1       -1.561   5.820   0.818  0.00  0.00    +0.172 C 
BRANCH  21  22
ATOM     22  O   LIG    1       -2.730   5.066   0.493  0.00  0.00    -0.387 OA
ATOM     23  H   LIG    1       -2.973   5.101  -0.442  0.00  0.00    +0.210 HD
ENDBRANCH  21  22
BRANCH  21  24
ATOM     24  C   LIG    1       -1.790   7.292   0.468  0.00  0.00    +0.189 C 
BRANCH  24  25
ATOM     25  O   LIG    1       -2.826   7.823   1.296  0.00  0.00    -0.392 OA
ATOM     26  H   LIG    1       -3.025   8.755   1.128  0.00  0.00    +0.210 HD
ENDBRANCH  24  25
ENDBRANCH  21  24
ENDBRANCH  18  21
ENDBRANCH   6  18
TORSDOF 10
