REMARK  Name = ZINC03860856
REMARK                            x       y       z     vdW  Elec       q    Type
REMARK                         _______ _______ _______ _____ _____    ______ ____
ROOT
ATOM      1  C   LIG    1        0.821  -0.380   1.149  0.00  0.00    -0.045 A 
ATOM      2  C   LIG    1        2.139  -0.042   1.395  0.00  0.00    +0.004 A 
ATOM      3  C   LIG    1        2.771  -0.535   2.520  0.00  0.00    +0.005 A 
ATOM      4  C   LIG    1        2.093  -1.362   3.399  0.00  0.00    -0.038 A 
ATOM      5  C   LIG    1        0.781  -1.706   3.159  0.00  0.00    -0.043 A 
ATOM      6  C   LIG    1       -0.028  -2.600   4.058  0.00  0.00    +0.036 C 
ATOM      7  C   LIG    1        0.824  -3.251   5.149  0.00  0.00    +0.009 C 
ATOM      8  C   LIG    1        1.793  -2.199   5.685  0.00  0.00    +0.004 C 
ATOM      9  C   LIG    1        2.343  -2.532   7.054  0.00  0.00    -0.044 C 
ATOM     10  C   LIG    1        2.885  -3.959   7.138  0.00  0.00    +0.009 C 
ATOM     11  C   LIG    1        3.419  -1.536   7.489  0.00  0.00    +0.005 C 
ATOM     12  C   LIG    1        4.473  -1.325   6.410  0.00  0.00    +0.001 C 
ATOM     13  C   LIG    1        3.813  -0.830   5.122  0.00  0.00    +0.011 C 
ATOM     14  C   LIG    1        2.825  -1.879   4.620  0.00  0.00    -0.004 C 
ATOM     15  C   LIG    1        3.604  -3.116   4.173  0.00  0.00    +0.016 C 
ATOM     16  C   LIG    1        0.149  -1.206   2.024  0.00  0.00    +0.007 A 
ENDROOT
BRANCH   1  18
ATOM     17  C   LIG    1        0.107   1.683  -0.028  0.00  0.00    +0.012 C 
ATOM     18  C   LIG    1        0.122   0.154  -0.075  0.00  0.00    +0.013 C 
ATOM     19  C   LIG    1        0.864  -0.310  -1.329  0.00  0.00    +0.012 C 
ENDBRANCH   1  18
BRANCH   9  20
ATOM     20  C   LIG    1        1.190  -2.417   8.081  0.00  0.00    -0.080 C 
BRANCH  20  21
ATOM     21  N   LIG    1        1.696  -2.737   9.422  0.00  0.00    +0.378 N 
ATOM     22  H   LIG    1        0.945  -2.662  10.092  0.00  0.00    -0.090 HD
ATOM     23  H   LIG    1        2.431  -2.090   9.668  0.00  0.00    -0.090 HD
ATOM     24  H   LIG    1        2.060  -3.678   9.429  0.00  0.00    -0.090 HD
ENDBRANCH  20  21
ENDBRANCH   9  20
TORSDOF 3
