REMARK  Name = ZINC03871092
REMARK                            x       y       z     vdW  Elec       q    Type
REMARK                         _______ _______ _______ _____ _____    ______ ____
ROOT
ATOM      1  C   LIG    1       -2.230  -0.842  -0.935  0.00  0.00    +0.161 A 
ATOM      2  C   LIG    1       -1.575  -0.582  -2.146  0.00  0.00    +0.170 A 
ATOM      3 CL   LIG    1        0.032   0.072  -2.137  0.00  0.00    -0.058 Cl
ATOM      4  N   LIG    1       -2.176  -0.833  -3.289  0.00  0.00    -0.222 NA
ATOM      5  C   LIG    1       -3.410  -1.335  -3.299  0.00  0.00    +0.186 A 
ATOM      6  C   LIG    1       -4.068  -1.596  -2.088  0.00  0.00    +0.151 A 
ATOM      7  N   LIG    1       -3.457  -1.346  -0.937  0.00  0.00    -0.212 NA
ENDROOT
BRANCH   6   8
ATOM      8  N   LIG    1       -5.350  -2.117  -2.094  0.00  0.00    -0.341 N 
ATOM      9  H   LIG    1       -5.774  -2.373  -1.259  0.00  0.00    +0.144 HD
ATOM     10  H   LIG    1       -5.826  -2.227  -2.932  0.00  0.00    +0.144 HD
ENDBRANCH   6   8
BRANCH   5  11
ATOM     11  C   LIG    1       -4.083  -1.616  -4.583  0.00  0.00    +0.362 C 
ATOM     12  O   LIG    1       -5.248  -1.974  -4.595  0.00  0.00    -0.247 OA
BRANCH  11  13
ATOM     13  N   LIG    1       -3.414  -1.476  -5.737  0.00  0.00    +0.002 NA
ATOM     14  C   LIG    1       -3.864  -0.650  -6.668  0.00  0.00    +0.375 C 
BRANCH  14  15
ATOM     15  N   LIG    1       -3.247  -0.591  -7.883  0.00  0.00    -0.291 N 
ATOM     16  H   LIG    1       -3.578   0.014  -8.566  0.00  0.00    +0.254 HD
ATOM     17  H   LIG    1       -2.478  -1.153  -8.065  0.00  0.00    +0.254 HD
ENDBRANCH  14  15
BRANCH  14  18
ATOM     18  N   LIG    1       -4.946   0.141  -6.413  0.00  0.00    -0.291 N 
ATOM     19  H   LIG    1       -5.322   0.690  -7.118  0.00  0.00    +0.254 HD
ATOM     20  H   LIG    1       -5.338   0.154  -5.526  0.00  0.00    +0.254 HD
ENDBRANCH  14  18
ENDBRANCH  11  13
ENDBRANCH   5  11
BRANCH   1  21
ATOM     21  N   LIG    1       -1.593  -0.576   0.265  0.00  0.00    -0.310 N 
BRANCH  21  22
ATOM     22  C   LIG    1       -0.703  -1.577   0.859  0.00  0.00    +0.069 C 
ATOM     23  C   LIG    1       -1.230  -1.972   2.241  0.00  0.00    +0.028 C 
ATOM     24  C   LIG    1        0.703  -0.991   0.999  0.00  0.00    +0.028 C 
ENDBRANCH  21  22
BRANCH  21  26
ATOM     25  C   LIG    1       -3.084   0.629   1.783  0.00  0.00    +0.024 C 
ATOM     26  C   LIG    1       -1.809   0.705   0.941  0.00  0.00    +0.103 C 
ENDBRANCH  21  26
ENDBRANCH   1  21
TORSDOF 8
