REMARK  Name = ZINC03810905
REMARK                            x       y       z     vdW  Elec       q    Type
REMARK                         _______ _______ _______ _____ _____    ______ ____
ROOT
ATOM      1  N   LIG    1        0.101   0.129   0.209  0.00  0.00    -0.260 N 
ATOM      2  C   LIG    1        1.154  -0.744  -0.017  0.00  0.00    +0.046 A 
ATOM      3  C   LIG    1        0.920  -1.823  -0.873  0.00  0.00    +0.024 A 
ATOM      4  C   LIG    1        1.917  -2.734  -1.143  0.00  0.00    +0.002 A 
ATOM      5  C   LIG    1        3.167  -2.588  -0.565  0.00  0.00    +0.001 A 
ATOM      6  C   LIG    1        3.416  -1.532   0.280  0.00  0.00    +0.012 A 
ATOM      7  C   LIG    1        2.411  -0.594   0.564  0.00  0.00    +0.024 A 
ATOM      8  C   LIG    1        2.748   0.513   1.473  0.00  0.00    +0.095 C 
ATOM      9  N   LIG    1        2.372   1.732   1.318  0.00  0.00    -0.249 NA
ATOM     10  C   LIG    1        1.540   2.146   0.188  0.00  0.00    +0.280 C 
ATOM     11  C   LIG    1        0.208   1.454   0.285  0.00  0.00    +0.263 C 
ATOM     12  O   LIG    1       -0.794   2.120   0.431  0.00  0.00    -0.271 OA
ENDROOT
BRANCH   8  13
ATOM     13  C   LIG    1        3.584   0.198   2.657  0.00  0.00    +0.089 A 
ATOM     14  C   LIG    1        3.935   1.213   3.544  0.00  0.00    +0.030 A 
ATOM     15  C   LIG    1        4.712   0.902   4.649  0.00  0.00    +0.004 A 
ATOM     16  C   LIG    1        5.121  -0.411   4.822  0.00  0.00    +0.020 A 
ATOM     17  C   LIG    1        4.739  -1.368   3.897  0.00  0.00    +0.111 A 
ATOM     18  N   LIG    1        3.996  -1.047   2.859  0.00  0.00    -0.253 NA
ENDBRANCH   8  13
BRANCH  10  19
ATOM     19  N   LIG    1        2.197   1.774  -1.067  0.00  0.00    -0.270 N 
ATOM     20  H   LIG    1        2.209   0.846  -1.352  0.00  0.00    +0.153 HD
ATOM     21  C   LIG    1        2.783   2.719  -1.828  0.00  0.00    +0.306 C 
ATOM     22  N   LIG    1        3.387   2.377  -2.983  0.00  0.00    -0.269 N 
ATOM     23  H   LIG    1        3.467   1.442  -3.229  0.00  0.00    +0.156 HD
ATOM     24  O   LIG    1        2.767   3.882  -1.472  0.00  0.00    -0.252 OA
BRANCH  22  25
ATOM     25  C   LIG    1        3.898   3.369  -3.827  0.00  0.00    +0.037 A 
ATOM     26  C   LIG    1        5.039   3.122  -4.580  0.00  0.00    +0.023 A 
ATOM     27  C   LIG    1        5.544   4.101  -5.413  0.00  0.00    +0.004 A 
ATOM     28  C   LIG    1        4.916   5.329  -5.502  0.00  0.00    +0.023 A 
ATOM     29  C   LIG    1        3.775   5.582  -4.752  0.00  0.00    +0.029 A 
ATOM     30  C   LIG    1        3.262   4.599  -3.917  0.00  0.00    +0.046 A 
BRANCH  29  31
ATOM     31  N   LIG    1        3.140   6.824  -4.841  0.00  0.00    -0.347 N 
ATOM     32  H   LIG    1        2.343   7.000  -4.317  0.00  0.00    +0.146 HD
ATOM     33  C   LIG    1        3.679   7.859  -5.726  0.00  0.00    +0.125 C 
ENDBRANCH  29  31
ENDBRANCH  22  25
ENDBRANCH  10  19
BRANCH   1  34
ATOM     34  C   LIG    1       -1.233  -0.451   0.378  0.00  0.00    +0.188 C 
BRANCH  34  35
ATOM     35  C   LIG    1       -1.911  -0.552  -0.964  0.00  0.00    +0.156 C 
ATOM     36  O   LIG    1       -1.338  -0.178  -1.960  0.00  0.00    -0.295 OA
BRANCH  35  38
ATOM     37  C   LIG    1       -3.753  -1.110  -2.527  0.00  0.00    +0.018 C 
ATOM     38  C   LIG    1       -3.303  -1.120  -1.065  0.00  0.00    +0.022 C 
ATOM     39  C   LIG    1       -4.262  -0.270  -0.230  0.00  0.00    +0.018 C 
ATOM     40  C   LIG    1       -3.307  -2.557  -0.540  0.00  0.00    +0.018 C 
ENDBRANCH  35  38
ENDBRANCH  34  35
ENDBRANCH   1  34
TORSDOF 7
