REMARK  Name = ZINC03813042
REMARK                            x       y       z     vdW  Elec       q    Type
REMARK                         _______ _______ _______ _____ _____    ______ ____
ROOT
ATOM      1  C   LIG    1        0.019  -2.062  -1.177  0.00  0.00    +0.189 A 
ATOM      2  N   LIG    1        0.034  -2.899  -0.158  0.00  0.00    -0.124 NA
ATOM      3  N   LIG    1        0.051  -4.152  -0.323  0.00  0.00    -0.119 NA
ATOM      4  C   LIG    1        0.052  -4.637  -1.549  0.00  0.00    +0.256 A 
ATOM      5  S   LIG    1        0.021  -3.118  -2.491  0.00  0.00    -0.011 S 
ENDROOT
BRANCH   1   8
ATOM      6  C   LIG    1       -0.018   1.503   0.010  0.00  0.00    +0.109 C 
ATOM      7  C   LIG    1        0.002  -0.004   0.002  0.00  0.00    +0.216 C 
ATOM      8  N   LIG    1        0.000  -0.672  -1.169  0.00  0.00    -0.263 N 
ATOM      9  H   LIG    1       -0.015  -0.182  -2.006  0.00  0.00    +0.157 HD
ATOM     10  O   LIG    1        0.020  -0.616   1.049  0.00  0.00    -0.276 OA
ENDBRANCH   1   8
BRANCH   4  11
ATOM     11  S   LIG    1        0.073  -6.310  -2.102  0.00  0.00    +0.081 S 
ATOM     12  O   LIG    1        0.873  -6.339  -3.276  0.00  0.00    -0.151 OA
ATOM     13  O   LIG    1       -1.275  -6.759  -2.086  0.00  0.00    -0.151 OA
BRANCH  11  14
ATOM     14  N   LIG    1        0.880  -7.194  -0.957  0.00  0.00    -0.202 NA
ATOM     15  H   LIG    1        0.376  -7.069  -0.079  0.00  0.00    +0.144 HD
ATOM     16  H   LIG    1        1.000  -8.149  -1.078  0.00  0.00    +0.144 HD
ENDBRANCH  11  14
ENDBRANCH   4  11
TORSDOF 3
