REMARK  Name = ZINC03803304
REMARK                            x       y       z     vdW  Elec       q    Type
REMARK                         _______ _______ _______ _____ _____    ______ ____
ROOT
ATOM      1  C   LIG    1       -1.478   8.235   0.379  0.00  0.00    +0.045 A 
ATOM      2  C   LIG    1       -0.400   7.375   0.263  0.00  0.00    +0.024 A 
ATOM      3  C   LIG    1       -0.623   6.013   0.157  0.00  0.00    +0.016 A 
ATOM      4  C   LIG    1       -1.945   5.553   0.159  0.00  0.00    +0.055 A 
ATOM      5  C   LIG    1       -2.987   6.490   0.280  0.00  0.00    +0.108 A 
ATOM      6  N   LIG    1       -2.716   7.783   0.384  0.00  0.00    -0.244 NA
ENDROOT
BRANCH   1   8
ATOM      7  C   LIG    1       -0.972  10.072   1.966  0.00  0.00    +0.014 C 
ATOM      8  C   LIG    1       -1.232   9.717   0.501  0.00  0.00    +0.032 C 
ATOM      9  C   LIG    1       -0.013  10.102  -0.341  0.00  0.00    +0.014 C 
ENDBRANCH   1   8
BRANCH   4  10
ATOM     10  C   LIG    1       -2.239   4.113   0.044  0.00  0.00    +0.202 C 
ATOM     11  O   LIG    1       -3.388   3.736  -0.099  0.00  0.00    -0.286 OA
BRANCH  10  12
ATOM     12  C   LIG    1       -1.149   3.136   0.100  0.00  0.00    +0.059 A 
ATOM     13  C   LIG    1       -1.191   1.765  -0.114  0.00  0.00    +0.019 A 
ATOM     14  C   LIG    1       -0.009   1.078   0.006  0.00  0.00    +0.008 A 
ATOM     15  C   LIG    1        1.127   1.760   0.312  0.00  0.00    +0.046 A 
ATOM     16  S   LIG    1        0.580   3.399   0.452  0.00  0.00    -0.093 S 
ENDBRANCH  10  12
ENDBRANCH   4  10
BRANCH   5  17
ATOM     17  S   LIG    1       -4.661   5.941   0.292  0.00  0.00    -0.105 S 
BRANCH  17  18
ATOM     18  C   LIG    1       -5.511   7.530   0.464  0.00  0.00    +0.076 C 
BRANCH  18  19
ATOM     19  C   LIG    1       -7.023   7.298   0.498  0.00  0.00    +0.011 C 
BRANCH  19  20
ATOM     20  C   LIG    1       -7.742   8.641   0.643  0.00  0.00    +0.001 C 
BRANCH  20  21
ATOM     21  C   LIG    1       -9.254   8.409   0.677  0.00  0.00    +0.000 C 
BRANCH  21  22
ATOM     22  C   LIG    1       -9.973   9.752   0.822  0.00  0.00    -0.000 C 
BRANCH  22  23
ATOM     23  C   LIG    1      -11.485   9.521   0.856  0.00  0.00    -0.002 C 
BRANCH  23  24
ATOM     24  C   LIG    1      -12.203  10.864   1.001  0.00  0.00    -0.019 C 
BRANCH  24  25
ATOM     25  C   LIG    1      -13.715  10.632   1.035  0.00  0.00    -0.080 C 
BRANCH  25  26
ATOM     26  N   LIG    1      -14.394  11.935   1.197  0.00  0.00    +0.376 N 
ATOM     27  H   LIG    1      -13.983  12.428   1.999  0.00  0.00    -0.083 HD
ATOM     28  C   LIG    1      -15.835  11.726   1.448  0.00  0.00    -0.097 C 
ATOM     29  C   LIG    1      -14.206  12.756  -0.018  0.00  0.00    -0.097 C 
ENDBRANCH  25  26
ENDBRANCH  24  25
ENDBRANCH  23  24
ENDBRANCH  22  23
ENDBRANCH  21  22
ENDBRANCH  20  21
ENDBRANCH  19  20
ENDBRANCH  18  19
ENDBRANCH  17  18
ENDBRANCH   5  17
TORSDOF 13
