REMARK  Name = ZINC03814201
REMARK                            x       y       z     vdW  Elec       q    Type
REMARK                         _______ _______ _______ _____ _____    ______ ____
ROOT
ATOM      1  C   LIG    1        3.167  -1.306  -7.031  0.00  0.00    +0.134 C 
ATOM      2  O   LIG    1        3.764  -2.356  -7.013  0.00  0.00    -0.297 OA
ENDROOT
BRANCH   1   3
ATOM      3  C   LIG    1        2.461  -0.819  -5.792  0.00  0.00    +0.079 C 
BRANCH   3   4
ATOM      4  C   LIG    1        2.656  -1.833  -4.662  0.00  0.00    +0.042 C 
BRANCH   4   8
ATOM      5  C   LIG    1        0.656  -0.455  -1.148  0.00  0.00    +0.016 A 
ATOM      6  C   LIG    1       -0.015  -1.249  -2.059  0.00  0.00    +0.022 A 
ATOM      7  C   LIG    1        0.632  -1.695  -3.196  0.00  0.00    +0.005 A 
ATOM      8  C   LIG    1        1.950  -1.346  -3.423  0.00  0.00    -0.047 A 
ATOM      9  C   LIG    1        2.621  -0.551  -2.513  0.00  0.00    +0.005 A 
ATOM     10  C   LIG    1        1.973  -0.102  -1.378  0.00  0.00    +0.022 A 
BRANCH   5  12
ATOM     11  C   LIG    1       -0.018   1.465   0.010  0.00  0.00    +0.110 C 
ATOM     12  N   LIG    1        0.002  -0.004   0.002  0.00  0.00    -0.384 NA
ATOM     13  C   LIG    1        0.713  -0.491   1.192  0.00  0.00    +0.110 C 
BRANCH  12  14
ATOM     14  C   LIG    1       -1.376  -0.512   0.012  0.00  0.00    +0.114 C 
BRANCH  14  15
ATOM     15  C   LIG    1       -2.082  -0.026   1.252  0.00  0.00    -0.017 C 
ATOM     16  C   LIG    1       -3.211   0.629   1.149  0.00  0.00    +0.005 C 
ENDBRANCH  14  15
ENDBRANCH  12  14
ENDBRANCH   5  12
ENDBRANCH   4   8
ENDBRANCH   3   4
ENDBRANCH   1   3
BRANCH   1  17
ATOM     17  C   LIG    1        3.127  -0.483  -8.293  0.00  0.00    +0.079 C 
BRANCH  17  18
ATOM     18  C   LIG    1        3.915  -1.198  -9.393  0.00  0.00    +0.042 C 
BRANCH  18  19
ATOM     19  C   LIG    1        3.875  -0.375 -10.655  0.00  0.00    -0.047 A 
ATOM     20  C   LIG    1        2.859  -0.566 -11.572  0.00  0.00    +0.005 A 
ATOM     21  C   LIG    1        2.823   0.189 -12.730  0.00  0.00    +0.022 A 
ATOM     22  C   LIG    1        3.802   1.134 -12.970  0.00  0.00    +0.016 A 
ATOM     23  C   LIG    1        4.818   1.326 -12.052  0.00  0.00    +0.022 A 
ATOM     24  C   LIG    1        4.852   0.574 -10.892  0.00  0.00    +0.005 A 
BRANCH  22  25
ATOM     25  N   LIG    1        3.766   1.897 -14.141  0.00  0.00    -0.384 NA
ATOM     26  C   LIG    1        2.513   2.663 -14.188  0.00  0.00    +0.110 C 
ATOM     27  C   LIG    1        3.839   1.007 -15.307  0.00  0.00    +0.110 C 
BRANCH  25  28
ATOM     28  C   LIG    1        4.907   2.822 -14.159  0.00  0.00    +0.114 C 
BRANCH  28  29
ATOM     29  C   LIG    1        4.867   3.644 -15.421  0.00  0.00    -0.017 C 
ATOM     30  C   LIG    1        4.879   4.952 -15.351  0.00  0.00    +0.005 C 
ENDBRANCH  28  29
ENDBRANCH  25  28
ENDBRANCH  22  25
ENDBRANCH  18  19
ENDBRANCH  17  18
ENDBRANCH   1  17
TORSDOF 12
