REMARK  Name = ZINC03818809
REMARK                            x       y       z     vdW  Elec       q    Type
REMARK                         _______ _______ _______ _____ _____    ______ ____
ROOT
ATOM      1  C   LIG    1       -1.765   5.281   0.045  0.00  0.00    +0.105 A 
ATOM      2  C   LIG    1       -0.425   5.263   0.033  0.00  0.00    +0.053 A 
ATOM      3  C   LIG    1       -0.036   3.847   0.022  0.00  0.00    +0.021 A 
ATOM      4  C   LIG    1        1.183   3.174   0.007  0.00  0.00    +0.020 A 
ATOM      5  C   LIG    1        1.194   1.784   0.000  0.00  0.00    -0.017 A 
ATOM      6  C   LIG    1       -0.013   1.076   0.008  0.00  0.00    +0.012 A 
ATOM      7  C   LIG    1       -1.208   1.735   0.017  0.00  0.00    +0.047 A 
ATOM      8  C   LIG    1       -1.242   3.125   0.030  0.00  0.00    +0.135 A 
ATOM      9  O   LIG    1       -2.246   4.026   0.044  0.00  0.00    -0.460 OA
ENDROOT
BRANCH   5  10
ATOM     10  C   LIG    1        2.483   1.052  -0.016  0.00  0.00    -0.018 A 
ATOM     11  C   LIG    1        3.686   1.760  -0.029  0.00  0.00    +0.010 A 
ATOM     12  C   LIG    1        4.883   1.082  -0.039  0.00  0.00    +0.019 A 
ATOM     13  C   LIG    1        4.894  -0.316  -0.046  0.00  0.00    +0.052 A 
ATOM     14  C   LIG    1        3.689  -1.023  -0.039  0.00  0.00    +0.019 A 
ATOM     15  C   LIG    1        2.493  -0.343  -0.024  0.00  0.00    +0.010 A 
BRANCH  13  16
ATOM     16  C   LIG    1        6.140  -1.022  -0.062  0.00  0.00    +0.099 C 
ATOM     17  N   LIG    1        7.128  -1.583  -0.075  0.00  0.00    -0.191 NA
ENDBRANCH  13  16
ENDBRANCH   5  10
BRANCH   1  18
ATOM     18  C   LIG    1       -2.610   6.528   0.060  0.00  0.00    +0.056 C 
BRANCH  18  19
ATOM     19  C   LIG    1       -2.909   6.958  -1.378  0.00  0.00    -0.071 C 
BRANCH  19  22
ATOM     20  C   LIG    1       -3.217  10.148  -2.737  0.00  0.00    -0.013 C 
ATOM     21  C   LIG    1       -3.844   8.753  -2.716  0.00  0.00    -0.072 C 
ATOM     22  N   LIG    1       -3.739   8.191  -1.357  0.00  0.00    +0.382 N 
ATOM     23  H   LIG    1       -3.298   8.881  -0.737  0.00  0.00    -0.081 HD
ATOM     24  C   LIG    1       -5.094   7.886  -0.862  0.00  0.00    -0.078 C 
ATOM     25  C   LIG    1       -6.018   8.847  -1.652  0.00  0.00    -0.020 C 
ATOM     26  C   LIG    1       -5.347   8.847  -3.051  0.00  0.00    -0.017 C 
ENDBRANCH  19  22
ENDBRANCH  18  19
ENDBRANCH   1  18
TORSDOF 5
