REMARK  Name = ZINC03776693
REMARK                            x       y       z     vdW  Elec       q    Type
REMARK                         _______ _______ _______ _____ _____    ______ ____
ROOT
ATOM      1  N   LIG    1       -1.347  -0.564   0.143  0.00  0.00    -0.298 N 
ATOM      2  C   LIG    1       -2.072  -0.844   1.268  0.00  0.00    +0.019 C 
ATOM      3  C   LIG    1       -1.601  -0.328   2.603  0.00  0.00    +0.061 C 
ATOM      4  C   LIG    1       -3.198  -1.574   1.199  0.00  0.00    +0.065 C 
ATOM      5  C   LIG    1       -3.705  -2.119  -0.105  0.00  0.00    +0.098 C 
ATOM      6  C   LIG    1       -3.046  -1.428  -1.265  0.00  0.00    +0.077 C 
ATOM      7  C   LIG    1       -1.921  -0.694  -1.101  0.00  0.00    +0.130 C 
ENDROOT
BRANCH   5   8
ATOM      8  C   LIG    1       -3.408  -3.595  -0.174  0.00  0.00    -0.017 A 
ATOM      9  C   LIG    1       -2.101  -4.041  -0.101  0.00  0.00    +0.006 A 
ATOM     10  C   LIG    1       -1.828  -5.394  -0.165  0.00  0.00    +0.000 A 
ATOM     11  C   LIG    1       -2.861  -6.303  -0.302  0.00  0.00    +0.001 A 
ATOM     12  C   LIG    1       -4.167  -5.859  -0.375  0.00  0.00    +0.020 A 
ATOM     13  C   LIG    1       -4.442  -4.504  -0.306  0.00  0.00    +0.045 A 
ATOM     14 CL   LIG    1       -6.083  -3.945  -0.391  0.00  0.00    -0.083 Cl
ENDBRANCH   5   8
BRANCH   1  16
ATOM     15  C   LIG    1        0.083   1.407   0.366  0.00  0.00    +0.024 C 
ATOM     16  C   LIG    1        0.043  -0.118   0.263  0.00  0.00    +0.107 C 
ENDBRANCH   1  16
BRANCH   4  17
ATOM     17  C   LIG    1       -3.924  -1.835   2.385  0.00  0.00    +0.338 C 
ATOM     18  O   LIG    1       -3.527  -1.401   3.450  0.00  0.00    -0.245 OA
BRANCH  17  19
ATOM     19  O   LIG    1       -5.058  -2.566   2.335  0.00  0.00    -0.459 OA
BRANCH  19  20
ATOM     20  C   LIG    1       -5.739  -2.791   3.571  0.00  0.00    +0.171 C 
ATOM     21  C   LIG    1       -6.473  -4.132   3.512  0.00  0.00    +0.052 C 
ATOM     22  C   LIG    1       -6.750  -1.667   3.807  0.00  0.00    +0.052 C 
ENDBRANCH  19  20
ENDBRANCH  17  19
ENDBRANCH   4  17
BRANCH   6  23
ATOM     23  C   LIG    1       -3.636  -1.546  -2.600  0.00  0.00    +0.336 C 
ATOM     24  O   LIG    1       -3.174  -0.902  -3.532  0.00  0.00    -0.245 OA
BRANCH  23  25
ATOM     25  O   LIG    1       -4.592  -2.290  -2.783  0.00  0.00    -0.477 OA
ATOM     26  H   LIG    1       -4.946  -2.783  -2.069  0.00  0.00    +0.295 HD
ENDBRANCH  23  25
ENDBRANCH   6  23
BRANCH   7  27
ATOM     27  C   LIG    1       -1.297  -0.029  -2.272  0.00  0.00    +0.352 C 
ATOM     28  O   LIG    1       -1.568   1.135  -2.529  0.00  0.00    -0.244 OA
BRANCH  27  29
ATOM     29  O   LIG    1       -0.513  -0.644  -2.978  0.00  0.00    -0.476 OA
ATOM     30  H   LIG    1       -0.305  -1.536  -2.781  0.00  0.00    +0.295 HD
ENDBRANCH  27  29
ENDBRANCH   7  27
TORSDOF 9
