REMARK  Name = ZINC03784182
REMARK                            x       y       z     vdW  Elec       q    Type
REMARK                         _______ _______ _______ _____ _____    ______ ____
ROOT
ATOM      1  C   LIG    1        0.606  -0.607  -1.055  0.00  0.00    +0.124 A 
ATOM      2  C   LIG    1        1.173   0.164  -2.062  0.00  0.00    +0.046 A 
ATOM      3  C   LIG    1        1.786  -0.445  -3.136  0.00  0.00    +0.012 A 
ATOM      4  C   LIG    1        1.836  -1.836  -3.211  0.00  0.00    -0.017 A 
ATOM      5  C   LIG    1        1.266  -2.607  -2.200  0.00  0.00    +0.016 A 
ATOM      6  C   LIG    1        0.659  -1.992  -1.125  0.00  0.00    +0.001 A 
ENDROOT
BRANCH   4   7
ATOM      7  C   LIG    1        2.494  -2.494  -4.366  0.00  0.00    -0.017 A 
ATOM      8  C   LIG    1        2.536  -3.896  -4.437  0.00  0.00    +0.009 A 
ATOM      9  C   LIG    1        3.133  -4.522  -5.483  0.00  0.00    +0.009 A 
ATOM     10  C   LIG    1        3.720  -3.765  -6.515  0.00  0.00    -0.017 A 
ATOM     11  C   LIG    1        4.340  -4.391  -7.605  0.00  0.00    +0.023 A 
ATOM     12  C   LIG    1        4.909  -3.617  -8.605  0.00  0.00    +0.059 A 
ATOM     13  C   LIG    1        4.866  -2.211  -8.531  0.00  0.00    +0.015 A 
ATOM     14  C   LIG    1        4.270  -1.588  -7.484  0.00  0.00    +0.009 A 
ATOM     15  C   LIG    1        3.683  -2.347  -6.453  0.00  0.00    -0.017 A 
ATOM     16  C   LIG    1        3.057  -1.722  -5.366  0.00  0.00    +0.017 A 
BRANCH  12  17
ATOM     17  C   LIG    1        5.563  -4.269  -9.753  0.00  0.00    +0.337 C 
ATOM     18  O   LIG    1        5.603  -5.490  -9.822  0.00  0.00    -0.245 OA
BRANCH  17  19
ATOM     19  O   LIG    1        6.066  -3.591 -10.638  0.00  0.00    -0.477 OA
ATOM     20  H   LIG    1        6.035  -2.656 -10.586  0.00  0.00    +0.295 HD
ENDBRANCH  17  19
ENDBRANCH  12  17
ENDBRANCH   4   7
BRANCH   6  21
ATOM     21  C   LIG    1        0.049  -2.825  -0.027  0.00  0.00    -0.000 C 
ATOM     22  C   LIG    1       -1.447  -2.518   0.075  0.00  0.00    +0.015 C 
ATOM     23  C   LIG    1       -2.067  -3.363   1.189  0.00  0.00    -0.010 C 
ATOM     24  C   LIG    1       -1.872  -4.847   0.872  0.00  0.00    +0.007 C 
ATOM     25  C   LIG    1       -0.377  -5.155   0.769  0.00  0.00    -0.010 C 
ATOM     26  C   LIG    1        0.304  -4.824   2.099  0.00  0.00    +0.007 C 
ATOM     27  C   LIG    1        0.109  -3.340   2.417  0.00  0.00    -0.010 C 
ATOM     28  C   LIG    1       -1.386  -3.033   2.519  0.00  0.00    +0.007 C 
ATOM     29  C   LIG    1        0.729  -2.495   1.303  0.00  0.00    +0.015 C 
ATOM     30  C   LIG    1        0.243  -4.309  -0.345  0.00  0.00    +0.015 C 
ENDBRANCH   6  21
BRANCH   1  32
ATOM     31  C   LIG    1       -0.017   1.425   0.010  0.00  0.00    +0.277 C 
ATOM     32  O   LIG    1        0.002  -0.004   0.002  0.00  0.00    -0.495 OA
ENDBRANCH   1  32
TORSDOF 5
