REMARK  Name = ZINC03803136
REMARK                            x       y       z     vdW  Elec       q    Type
REMARK                         _______ _______ _______ _____ _____    ______ ____
ROOT
ATOM      1  C   LIG    1       -0.062   5.362   0.034  0.00  0.00    +0.044 C 
ATOM      2  C   LIG    1       -0.052   3.855   0.024  0.00  0.00    -0.047 A 
ATOM      3  C   LIG    1        1.152   3.170   0.008  0.00  0.00    +0.003 A 
ATOM      4  C   LIG    1        1.171   1.787   0.001  0.00  0.00    +0.001 A 
ATOM      5  C   LIG    1       -0.013   1.076   0.008  0.00  0.00    +0.013 A 
ATOM      6  C   LIG    1       -1.225   1.760   0.017  0.00  0.00    +0.040 A 
ATOM      7  C   LIG    1       -2.513   1.034   0.029  0.00  0.00    +0.244 C 
ATOM      8  O   LIG    1       -2.558  -0.140   0.341  0.00  0.00    -0.270 OA
ATOM      9  N   LIG    1       -3.638   1.693  -0.314  0.00  0.00    -0.311 N 
ATOM     10  H   LIG    1       -4.491   1.233  -0.274  0.00  0.00    +0.149 HD
ATOM     11  C   LIG    1       -3.595   3.087  -0.748  0.00  0.00    +0.109 C 
ATOM     12  C   LIG    1       -2.561   3.878   0.050  0.00  0.00    +0.055 C 
ATOM     13  C   LIG    1       -1.239   3.157   0.032  0.00  0.00    -0.031 A 
ENDROOT
TORSDOF 0
