REMARK  Name = ZINC03814419
REMARK                            x       y       z     vdW  Elec       q    Type
REMARK                         _______ _______ _______ _____ _____    ______ ____
ROOT
ATOM      1  C   LIG    1       -0.019   1.526   0.010  0.00  0.00    +0.015 C 
ATOM      2  C   LIG    1        0.002  -0.004   0.002  0.00  0.00    +0.011 C 
ATOM      3  C   LIG    1       -1.416  -0.538   0.074  0.00  0.00    +0.011 C 
ATOM      4  C   LIG    1       -2.077   0.101   1.306  0.00  0.00    +0.005 C 
ATOM      5  C   LIG    1       -1.298  -0.197   2.583  0.00  0.00    -0.000 C 
ATOM      6  C   LIG    1       -1.950   0.511   3.761  0.00  0.00    +0.019 C 
ATOM      7  C   LIG    1       -3.194  -0.265   4.204  0.00  0.00    +0.015 C 
ATOM      8  C   LIG    1       -3.892   0.489   5.339  0.00  0.00    +0.075 C 
ATOM      9  C   LIG    1       -2.915   0.666   6.480  0.00  0.00    +0.137 C 
ATOM     10  C   LIG    1       -1.590   1.337   6.187  0.00  0.00    +0.105 C 
ATOM     11  O   LIG    1       -3.185   0.283   7.593  0.00  0.00    -0.297 OA
ATOM     12  C   LIG    1       -1.030   0.685   4.932  0.00  0.00    -0.063 C 
ATOM     13  C   LIG    1        0.223   0.335   4.934  0.00  0.00    -0.027 C 
ATOM     14  C   LIG    1        0.895  -0.285   3.743  0.00  0.00    +0.031 C 
ATOM     15  C   LIG    1        0.175   0.215   2.465  0.00  0.00    +0.000 C 
ATOM     16  C   LIG    1        0.863  -0.503  -1.154  0.00  0.00    +0.132 C 
ATOM     17  C   LIG    1        2.304  -0.573  -0.591  0.00  0.00    +0.049 C 
ATOM     18  C   LIG    1        2.207  -0.191   0.912  0.00  0.00    +0.008 C 
ATOM     19  C   LIG    1        0.751  -0.527   1.257  0.00  0.00    +0.002 C 
ENDROOT
BRANCH  16  20
ATOM     20  O   LIG    1        0.803   0.414  -2.248  0.00  0.00    -0.376 OA
ATOM     21  H   LIG    1        1.332   0.149  -3.013  0.00  0.00    +0.211 HD
ENDBRANCH  16  20
BRANCH  16  22
ATOM     22  C   LIG    1        0.417  -1.839  -1.582  0.00  0.00    -0.070 C 
ATOM     23  C   LIG    1        0.062  -2.905  -1.923  0.00  0.00    +0.007 C 
ENDBRANCH  16  22
TORSDOF 2
