REMARK  Name = ZINC03847413
REMARK                            x       y       z     vdW  Elec       q    Type
REMARK                         _______ _______ _______ _____ _____    ______ ____
ROOT
ATOM      1  C   LIG    1        0.204   5.116  -0.583  0.00  0.00    +0.053 A 
ATOM      2  C   LIG    1        0.190   3.731  -0.507  0.00  0.00    -0.044 A 
ATOM      3  C   LIG    1        1.317   3.052  -0.095  0.00  0.00    -0.058 A 
ATOM      4  C   LIG    1        1.350   1.549  -0.003  0.00  0.00    -0.046 C 
ATOM      5  N   LIG    1       -0.013   1.001   0.011  0.00  0.00    +0.382 N 
ATOM      6  H   LIG    1        0.030  -0.023  -0.050  0.00  0.00    -0.085 HD
ATOM      7  H   LIG    1       -0.480   1.272   0.885  0.00  0.00    -0.085 HD
ATOM      8  C   LIG    1       -0.778   1.528  -1.135  0.00  0.00    -0.077 C 
ATOM      9  C   LIG    1        2.462   3.758   0.247  0.00  0.00    +0.051 A 
ATOM     10  C   LIG    1        2.481   5.139   0.174  0.00  0.00    +0.158 A 
ATOM     11  C   LIG    1       -1.077   3.006  -0.881  0.00  0.00    +0.016 C 
ATOM     12  C   LIG    1        1.344   5.824  -0.245  0.00  0.00    +0.158 A 
ENDROOT
BRANCH  10  13
ATOM     13  O   LIG    1        3.606   5.825   0.511  0.00  0.00    -0.503 OA
ATOM     14  H   LIG    1        3.652   6.071   1.445  0.00  0.00    +0.292 HD
ENDBRANCH  10  13
BRANCH  12  15
ATOM     15  O   LIG    1        1.353   7.181  -0.321  0.00  0.00    -0.503 OA
ATOM     16  H   LIG    1        1.077   7.623   0.493  0.00  0.00    +0.292 HD
ENDBRANCH  12  15
TORSDOF 2
