REMARK  Name = ZINC03812958
REMARK                            x       y       z     vdW  Elec       q    Type
REMARK                         _______ _______ _______ _____ _____    ______ ____
ROOT
ATOM      1  C   LIG    1        7.434  -2.768  -0.085  0.00  0.00    +0.148 C 
ENDROOT
BRANCH   1   5
ATOM      2  C   LIG    1        3.653  -0.776   0.032  0.00  0.00    -0.018 A 
ATOM      3  C   LIG    1        4.298  -1.123   1.218  0.00  0.00    +0.009 A 
ATOM      4  C   LIG    1        5.518  -1.766   1.174  0.00  0.00    +0.006 A 
ATOM      5  C   LIG    1        6.101  -2.066  -0.044  0.00  0.00    -0.020 A 
ATOM      6  C   LIG    1        5.466  -1.723  -1.224  0.00  0.00    +0.006 A 
ATOM      7  C   LIG    1        4.243  -1.085  -1.192  0.00  0.00    +0.009 A 
BRANCH   2  11
ATOM      8  C   LIG    1       -0.107   1.206   0.149  0.00  0.00    +0.000 A 
ATOM      9  C   LIG    1        0.530   0.868   1.329  0.00  0.00    +0.001 A 
ATOM     10  C   LIG    1        1.751   0.225   1.297  0.00  0.00    +0.008 A 
ATOM     11  C   LIG    1        2.341  -0.085   0.073  0.00  0.00    -0.018 A 
ATOM     12  C   LIG    1        1.694   0.258  -1.113  0.00  0.00    +0.008 A 
ATOM     13  C   LIG    1        0.473   0.901  -1.069  0.00  0.00    +0.001 A 
ENDBRANCH   2  11
ENDBRANCH   1   5
BRANCH   1  14
ATOM     14  N   LIG    1        7.627  -3.523   1.156  0.00  0.00    -0.327 N 
ATOM     15  C   LIG    1        6.833  -4.535   1.623  0.00  0.00    +0.105 A 
ATOM     16  C   LIG    1        7.370  -4.946   2.788  0.00  0.00    +0.101 A 
ATOM     17  N   LIG    1        8.462  -4.205   3.025  0.00  0.00    -0.352 N 
ATOM     18  H   LIG    1        9.042  -4.290   3.799  0.00  0.00    +0.166 HD
ATOM     19  C   LIG    1        8.626  -3.353   2.050  0.00  0.00    +0.174 A 
ENDBRANCH   1  14
BRANCH   1  20
ATOM     20  C   LIG    1        7.468  -3.713  -1.258  0.00  0.00    -0.020 A 
ATOM     21  C   LIG    1        6.463  -4.648  -1.421  0.00  0.00    +0.006 A 
ATOM     22  C   LIG    1        6.494  -5.515  -2.498  0.00  0.00    +0.000 A 
ATOM     23  C   LIG    1        7.530  -5.447  -3.411  0.00  0.00    +0.000 A 
ATOM     24  C   LIG    1        8.534  -4.511  -3.248  0.00  0.00    +0.000 A 
ATOM     25  C   LIG    1        8.501  -3.642  -2.174  0.00  0.00    +0.006 A 
ENDBRANCH   1  20
TORSDOF 4
