REMARK  Name = ZINC03830437
REMARK                            x       y       z     vdW  Elec       q    Type
REMARK                         _______ _______ _______ _____ _____    ______ ____
ROOT
ATOM      1  C   LIG    1       -2.151  -2.859  -0.406  0.00  0.00    +0.006 C 
ATOM      2  CA  LIG    1       -3.210  -2.064  -0.388  0.00  0.00    +0.125 C 
ATOM      3  N   LIG    1       -4.508  -2.597  -0.470  0.00  0.00    -0.249 N 
ATOM      4  C   LIG    1       -4.912  -4.009  -0.245  0.00  0.00    +0.169 C 
ATOM      5  S   LIG    1       -3.668  -5.037  -1.097  0.00  0.00    -0.131 S 
ATOM      6  CA  LIG    1       -6.155  -3.678  -1.043  0.00  0.00    +0.191 C 
ATOM      7  C   LIG    1       -5.741  -2.250  -0.812  0.00  0.00    +0.244 C 
ATOM      8  O   LIG    1       -6.316  -1.186  -0.904  0.00  0.00    -0.273 OA
ATOM      9  C   LIG    1       -2.119  -4.352  -0.468  0.00  0.00    +0.107 C 
ENDROOT
BRANCH   6  10
ATOM     10  N   LIG    1       -6.096  -4.102  -2.444  0.00  0.00    -0.296 N 
ATOM     11  H   LIG    1       -5.237  -4.209  -2.882  0.00  0.00    +0.150 HD
ATOM     12  C   LIG    1       -7.234  -4.342  -3.124  0.00  0.00    +0.268 C 
ATOM     13  O   LIG    1       -8.310  -4.207  -2.575  0.00  0.00    -0.268 OA
BRANCH  12  14
ATOM     14  C   LIG    1       -7.175  -4.771  -4.541  0.00  0.00    +0.190 C 
ATOM     15  N   LIG    1       -6.021  -4.915  -5.130  0.00  0.00    -0.078 NA
BRANCH  14  16
ATOM     16  C   LIG    1       -8.424  -5.035  -5.287  0.00  0.00    +0.107 A 
ATOM     17  C   LIG    1       -8.384  -5.653  -6.508  0.00  0.00    +0.078 A 
ATOM     18  S   LIG    1      -10.125  -5.702  -6.914  0.00  0.00    -0.060 S 
ATOM     19  C   LIG    1      -10.725  -4.902  -5.432  0.00  0.00    +0.156 A 
ATOM     20  N   LIG    1       -9.602  -4.678  -4.777  0.00  0.00    -0.223 NA
BRANCH  19  21
ATOM     21  N   LIG    1      -12.026  -4.602  -5.066  0.00  0.00    -0.338 N 
ATOM     22  H   LIG    1      -12.203  -4.160  -4.221  0.00  0.00    +0.144 HD
ATOM     23  H   LIG    1      -12.762  -4.833  -5.655  0.00  0.00    +0.144 HD
ENDBRANCH  19  21
ENDBRANCH  14  16
BRANCH  15  24
ATOM     24  O   LIG    1       -5.959  -5.428  -6.448  0.00  0.00    -0.396 OA
ATOM     25  C   LIG    1       -4.632  -5.533  -6.968  0.00  0.00    +0.313 C 
ENDBRANCH  15  24
ENDBRANCH  12  14
ENDBRANCH   6  10
BRANCH   2  26
ATOM     26  C   LIG    1       -3.026  -0.608  -0.279  0.00  0.00    +0.351 C 
ATOM     27  O   LIG    1       -1.901  -0.129  -0.318  0.00  0.00    -0.244 OA
BRANCH  26  28
ATOM     28  OXT LIG    1       -3.999   0.123  -0.150  0.00  0.00    -0.476 OA
ATOM     29  HXT LIG    1       -4.860  -0.244  -0.120  0.00  0.00    +0.295 HD
ENDBRANCH  26  28
ENDBRANCH   2  26
BRANCH   1  30
ATOM     30  C   LIG    1       -0.810  -2.172  -0.364  0.00  0.00    +0.266 C 
BRANCH  30  31
ATOM     31  O   LIG    1        0.228  -3.154  -0.345  0.00  0.00    -0.460 OA
BRANCH  31  33
ATOM     32  C   LIG    1        2.639  -3.683  -0.391  0.00  0.00    +0.136 C 
ATOM     33  C   LIG    1        1.492  -2.706  -0.407  0.00  0.00    +0.304 C 
ATOM     34  O   LIG    1        1.710  -1.520  -0.476  0.00  0.00    -0.251 OA
ENDBRANCH  31  33
ENDBRANCH  30  31
ENDBRANCH   1  30
TORSDOF 10
