REMARK  Name = ZINC03807246
REMARK                            x       y       z     vdW  Elec       q    Type
REMARK                         _______ _______ _______ _____ _____    ______ ____
ROOT
ATOM      1  C   LIG    1        5.935  -5.421   5.781  0.00  0.00    +0.163 C 
ENDROOT
BRANCH   1   2
ATOM      2  C   LIG    1        5.797  -4.448   6.923  0.00  0.00    +0.236 C 
ATOM      3  N   LIG    1        6.826  -4.254   7.771  0.00  0.00    -0.300 N 
ATOM      4  C   LIG    1        8.125  -4.897   7.532  0.00  0.00    +0.108 C 
ATOM      5  C   LIG    1        9.216  -3.822   7.538  0.00  0.00    +0.019 C 
ATOM      6  C   LIG    1        9.138  -3.029   8.845  0.00  0.00    +0.003 C 
ATOM      7  C   LIG    1        7.777  -2.337   8.943  0.00  0.00    +0.019 C 
ATOM      8  C   LIG    1        6.672  -3.390   8.950  0.00  0.00    +0.108 C 
ATOM      9  O   LIG    1        4.759  -3.839   7.078  0.00  0.00    -0.274 OA
ENDBRANCH   1   2
BRANCH   1  11
ATOM     10  C   LIG    1        5.280  -4.153   3.806  0.00  0.00    +0.229 C 
ATOM     11  N   LIG    1        4.970  -5.083   4.731  0.00  0.00    -0.303 N 
ATOM     12  H   LIG    1        4.109  -5.528   4.702  0.00  0.00    +0.150 HD
ATOM     13  O   LIG    1        6.356  -3.596   3.842  0.00  0.00    -0.274 OA
BRANCH  10  14
ATOM     14  C   LIG    1        4.287  -3.805   2.726  0.00  0.00    +0.201 C 
BRANCH  14  15
ATOM     15  N   LIG    1        4.857  -2.776   1.853  0.00  0.00    -0.181 NA
ATOM     16  H   LIG    1        5.639  -2.278   2.137  0.00  0.00    +0.149 HD
BRANCH  15  17
ATOM     17  S   LIG    1        4.165  -2.463   0.381  0.00  0.00    +0.059 S 
ATOM     18  O   LIG    1        4.919  -1.412  -0.207  0.00  0.00    -0.153 OA
ATOM     19  O   LIG    1        3.983  -3.720  -0.257  0.00  0.00    -0.153 OA
BRANCH  17  25
ATOM     20  C   LIG    1       -1.447   1.020   1.560  0.00  0.00    +0.001 A 
ATOM     21  C   LIG    1       -0.364   1.893   1.465  0.00  0.00    +0.001 A 
ATOM     22  C   LIG    1        0.893   1.426   1.228  0.00  0.00    +0.008 A 
ATOM     23  C   LIG    1        1.105   0.045   1.076  0.00  0.00    -0.016 A 
ATOM     24  C   LIG    1        2.388  -0.474   0.831  0.00  0.00    +0.037 A 
ATOM     25  C   LIG    1        2.555  -1.817   0.690  0.00  0.00    +0.106 A 
ATOM     26  C   LIG    1        1.472  -2.689   0.785  0.00  0.00    +0.029 A 
ATOM     27  C   LIG    1        0.215  -2.223   1.021  0.00  0.00    +0.010 A 
ATOM     28  C   LIG    1        0.003  -0.842   1.173  0.00  0.00    -0.018 A 
ATOM     29  C   LIG    1       -1.279  -0.323   1.418  0.00  0.00    +0.008 A 
ENDBRANCH  17  25
ENDBRANCH  15  17
ENDBRANCH  14  15
ENDBRANCH  10  14
ENDBRANCH   1  11
BRANCH   1  30
ATOM     30  C   LIG    1        5.664  -6.840   6.284  0.00  0.00    +0.067 C 
BRANCH  30  31
ATOM     31  C   LIG    1        5.944  -7.827   5.181  0.00  0.00    -0.045 A 
ATOM     32  C   LIG    1        4.934  -8.187   4.306  0.00  0.00    +0.004 A 
ATOM     33  C   LIG    1        5.184  -9.090   3.293  0.00  0.00    +0.016 A 
ATOM     34  C   LIG    1        6.458  -9.641   3.152  0.00  0.00    +0.061 A 
ATOM     35  C   LIG    1        7.472  -9.274   4.038  0.00  0.00    +0.016 A 
ATOM     36  C   LIG    1        7.210  -8.366   5.043  0.00  0.00    +0.004 A 
BRANCH  34  37
ATOM     37  C   LIG    1        6.732 -10.611   2.069  0.00  0.00    +0.266 C 
ATOM     38  N   LIG    1        7.949 -11.135   1.937  0.00  0.00    -0.288 N 
ATOM     39  H   LIG    1        8.129 -11.771   1.227  0.00  0.00    +0.301 HD
ATOM     40  H   LIG    1        8.656 -10.881   2.552  0.00  0.00    +0.301 HD
BRANCH  37  41
ATOM     41  N   LIG    1        5.763 -10.960   1.226  0.00  0.00    -0.250 N 
ATOM     42  H   LIG    1        5.942 -11.595   0.516  0.00  0.00    +0.288 HD
ATOM     43  H   LIG    1        4.876 -10.578   1.322  0.00  0.00    +0.288 HD
ENDBRANCH  37  41
ENDBRANCH  34  37
ENDBRANCH  30  31
ENDBRANCH   1  30
TORSDOF 10
