REMARK  Name = ZINC03783756
REMARK                            x       y       z     vdW  Elec       q    Type
REMARK                         _______ _______ _______ _____ _____    ______ ____
ROOT
ATOM      1  C   LIG    1        1.152  -2.231  -1.800  0.00  0.00    +0.059 C 
ATOM      2  C   LIG    1        2.196  -2.874  -2.454  0.00  0.00    +0.059 C 
ATOM      3  C   LIG    1        1.569  -3.868  -3.349  0.00  0.00    +0.252 C 
ATOM      4  N   LIG    1        0.235  -3.791  -3.209  0.00  0.00    -0.248 N 
ATOM      5  H   LIG    1       -0.403  -4.341  -3.689  0.00  0.00    +0.158 HD
ATOM      6  O   LIG    1        2.162  -4.628  -4.089  0.00  0.00    -0.270 OA
ATOM      7  C   LIG    1       -0.091  -2.851  -2.306  0.00  0.00    +0.252 C 
ATOM      8  O   LIG    1       -1.219  -2.557  -1.965  0.00  0.00    -0.270 OA
ENDROOT
BRANCH   2   9
ATOM      9  C   LIG    1        3.637  -2.616  -2.288  0.00  0.00    +0.016 A 
ATOM     10  C   LIG    1        4.452  -1.652  -3.048  0.00  0.00    +0.008 A 
ATOM     11  C   LIG    1        4.176  -0.750  -4.073  0.00  0.00    +0.010 A 
ATOM     12  C   LIG    1        5.188   0.033  -4.585  0.00  0.00    +0.001 A 
ATOM     13  C   LIG    1        6.477  -0.074  -4.083  0.00  0.00    +0.002 A 
ATOM     14  C   LIG    1        6.765  -0.962  -3.070  0.00  0.00    +0.026 A 
ATOM     15  C   LIG    1        5.757  -1.761  -2.539  0.00  0.00    +0.050 A 
ATOM     16  N   LIG    1        5.739  -2.717  -1.545  0.00  0.00    -0.343 N 
ATOM     17  C   LIG    1        6.892  -3.149  -0.743  0.00  0.00    +0.122 C 
ATOM     18  C   LIG    1        6.381  -3.862   0.515  0.00  0.00    +0.023 C 
ATOM     19  C   LIG    1        5.379  -4.947   0.110  0.00  0.00    -0.020 C 
ATOM     20  C   LIG    1        4.093  -4.281  -0.395  0.00  0.00    +0.055 C 
ATOM     21  C   LIG    1        4.474  -3.217  -1.399  0.00  0.00    +0.028 A 
BRANCH  19  22
ATOM     22  C   LIG    1        5.058  -5.827   1.320  0.00  0.00    -0.076 C 
BRANCH  22  23
ATOM     23  N   LIG    1        4.191  -6.937   0.902  0.00  0.00    +0.376 N 
ATOM     24  H   LIG    1        3.379  -6.570   0.429  0.00  0.00    -0.083 HD
ATOM     25  C   LIG    1        3.766  -7.698   2.085  0.00  0.00    -0.097 C 
ATOM     26  C   LIG    1        4.931  -7.821  -0.009  0.00  0.00    -0.097 C 
ENDBRANCH  22  23
ENDBRANCH  19  22
ENDBRANCH   2   9
BRANCH   1  30
ATOM     27  C   LIG    1        1.849   2.278   0.255  0.00  0.00    +0.149 C 
ATOM     28  N   LIG    1        1.568   0.846   0.130  0.00  0.00    -0.349 N 
ATOM     29  C   LIG    1        1.558   0.155  -1.043  0.00  0.00    +0.095 A 
ATOM     30  C   LIG    1        1.261  -1.154  -0.802  0.00  0.00    +0.013 A 
ATOM     31  C   LIG    1        1.071  -1.280   0.654  0.00  0.00    +0.008 A 
ATOM     32  C   LIG    1        0.756  -2.341   1.500  0.00  0.00    +0.010 A 
ATOM     33  C   LIG    1        0.663  -2.127   2.858  0.00  0.00    +0.001 A 
ATOM     34  C   LIG    1        0.867  -0.860   3.382  0.00  0.00    +0.002 A 
ATOM     35  C   LIG    1        1.174   0.201   2.557  0.00  0.00    +0.026 A 
ATOM     36  C   LIG    1        1.281   0.004   1.184  0.00  0.00    +0.049 A 
ENDBRANCH   1  30
TORSDOF 4
