REMARK  Name = ZINC03820029
REMARK                            x       y       z     vdW  Elec       q    Type
REMARK                         _______ _______ _______ _____ _____    ______ ____
ROOT
ATOM      1  N   LIG    1        1.411   1.851   0.013  0.00  0.00    -0.296 N 
ATOM      2  C   LIG    1        2.188   2.103  -1.109  0.00  0.00    +0.152 A 
ATOM      3  C   LIG    1        3.335   2.746  -0.655  0.00  0.00    +0.147 A 
ATOM      4  N   LIG    1        3.233   2.866   0.672  0.00  0.00    -0.313 N 
ATOM      5  H   LIG    1        3.937   3.300   1.281  0.00  0.00    +0.170 HD
ATOM      6  N   LIG    1        4.301   3.118  -1.576  0.00  0.00    -0.281 N 
ATOM      7  C   LIG    1        5.518   3.797  -1.126  0.00  0.00    +0.155 C 
ATOM      8  C   LIG    1        4.121   2.857  -2.884  0.00  0.00    +0.334 A 
ATOM      9  N   LIG    1        3.017   2.236  -3.334  0.00  0.00    -0.252 N 
ATOM     10  O   LIG    1        4.979   3.190  -3.679  0.00  0.00    -0.246 OA
ATOM     11  C   LIG    1        2.043   1.849  -2.484  0.00  0.00    +0.283 A 
ATOM     12  O   LIG    1        1.046   1.287  -2.904  0.00  0.00    -0.265 OA
ATOM     13  C   LIG    1        2.093   2.344   1.081  0.00  0.00    +0.179 A 
ENDROOT
BRANCH  13  14
ATOM     14  N   LIG    1        1.664   2.302   2.388  0.00  0.00    -0.304 N 
ATOM     15  C   LIG    1        1.487   3.656   2.927  0.00  0.00    +0.108 C 
ATOM     16  C   LIG    1        0.872   3.573   4.326  0.00  0.00    +0.017 C 
ATOM     17  C   LIG    1        1.795   2.758   5.236  0.00  0.00    -0.013 C 
ATOM     18  C   LIG    1        2.002   1.368   4.627  0.00  0.00    -0.057 C 
ATOM     19  C   LIG    1        2.583   1.515   3.219  0.00  0.00    +0.091 C 
BRANCH  18  20
ATOM     20  N   LIG    1        0.720   0.646   4.544  0.00  0.00    +0.381 N 
ATOM     21  H   LIG    1        0.885  -0.292   4.162  0.00  0.00    -0.090 HD
ATOM     22  H   LIG    1        0.076   1.145   3.933  0.00  0.00    -0.090 HD
ATOM     23  H   LIG    1        0.308   0.559   5.472  0.00  0.00    -0.090 HD
ENDBRANCH  18  20
ENDBRANCH  13  14
BRANCH   1  24
ATOM     24  C   LIG    1        0.104   1.190   0.041  0.00  0.00    +0.214 C 
BRANCH  24  27
ATOM     25  C   LIG    1        0.635  -2.885   0.305  0.00  0.00    +0.106 C 
ATOM     26  C   LIG    1        0.445  -1.429   0.211  0.00  0.00    -0.104 C 
ATOM     27  C   LIG    1        0.294  -0.267   0.136  0.00  0.00    -0.081 C 
ENDBRANCH  24  27
ENDBRANCH   1  24
BRANCH   9  28
ATOM     28  C   LIG    1        2.869   1.974  -4.768  0.00  0.00    +0.206 C 
BRANCH  28  29
ATOM     29  C   LIG    1        3.459   0.627  -5.096  0.00  0.00    +0.150 A 
ATOM     30  N   LIG    1        4.738   0.561  -5.436  0.00  0.00    -0.235 NA
ATOM     31  C   LIG    1        5.317  -0.586  -5.729  0.00  0.00    +0.049 A 
ATOM     32  C   LIG    1        6.775  -0.641  -6.108  0.00  0.00    +0.066 C 
ATOM     33  C   LIG    1        4.540  -1.757  -5.685  0.00  0.00    +0.021 A 
ATOM     34  C   LIG    1        5.073  -3.019  -5.987  0.00  0.00    +0.012 A 
ATOM     35  C   LIG    1        4.270  -4.118  -5.926  0.00  0.00    +0.001 A 
ATOM     36  C   LIG    1        2.928  -4.006  -5.569  0.00  0.00    +0.002 A 
ATOM     37  C   LIG    1        2.378  -2.797  -5.269  0.00  0.00    +0.028 A 
ATOM     38  C   LIG    1        3.173  -1.642  -5.321  0.00  0.00    +0.075 A 
ATOM     39  N   LIG    1        2.684  -0.429  -5.037  0.00  0.00    -0.230 NA
ENDBRANCH  28  29
ENDBRANCH   9  28
TORSDOF 6
