REMARK  Name = ZINC03847388
REMARK                            x       y       z     vdW  Elec       q    Type
REMARK                         _______ _______ _______ _____ _____    ______ ____
ROOT
ATOM      1  C   LIG    1        1.216  -0.675  -0.014  0.00  0.00    +0.045 A 
ATOM      2  C   LIG    1        2.395   0.041  -0.019  0.00  0.00    +0.005 A 
ATOM      3  C   LIG    1        2.376   1.428  -0.009  0.00  0.00    -0.061 A 
ATOM      4  C   LIG    1        1.170   2.097   0.002  0.00  0.00    -0.044 A 
ATOM      5  C   LIG    1        1.100   3.603   0.002  0.00  0.00    +0.016 C 
ATOM      6  C   LIG    1        2.452   4.187   0.412  0.00  0.00    -0.077 C 
ATOM      7  N   LIG    1        3.504   3.562  -0.411  0.00  0.00    +0.382 N 
ATOM      8  H   LIG    1        3.228   3.596  -1.399  0.00  0.00    -0.085 HD
ATOM      9  H   LIG    1        4.385   4.074  -0.284  0.00  0.00    -0.085 HD
ATOM     10  C   LIG    1       -0.017   1.381   0.010  0.00  0.00    +0.049 A 
ATOM     11  C   LIG    1        3.691   2.162  -0.005  0.00  0.00    -0.047 C 
ATOM     12  C   LIG    1        0.002  -0.004   0.002  0.00  0.00    +0.117 A 
ENDROOT
BRANCH  12  13
ATOM     13  O   LIG    1       -1.164  -0.703   0.010  0.00  0.00    -0.507 OA
ATOM     14  H   LIG    1       -1.510  -0.900  -0.871  0.00  0.00    +0.292 HD
ENDBRANCH  12  13
TORSDOF 1
