REMARK  Name = ZINC03806914
REMARK                            x       y       z     vdW  Elec       q    Type
REMARK                         _______ _______ _______ _____ _____    ______ ____
ROOT
ATOM      1  C   LIG    1        2.558  -2.603   0.587  0.00  0.00    +0.000 C 
ATOM      2  C   LIG    1        3.719  -1.833   0.567  0.00  0.00    +0.002 C 
ATOM      3  C   LIG    1        3.666  -0.488   0.365  0.00  0.00    +0.019 C 
ATOM      4  C   LIG    1        2.423   0.141   0.174  0.00  0.00    +0.058 C 
ATOM      5  N   LIG    1        2.409   1.503  -0.025  0.00  0.00    -0.310 NA
ATOM      6  H   LIG    1        3.273   2.058  -0.038  0.00  0.00    +0.122 HD
ATOM      7  C   LIG    1        1.182   2.075  -0.205  0.00  0.00    +0.063 C 
ATOM      8  C   LIG    1        1.230   3.570  -0.404  0.00  0.00    +0.050 C 
ATOM      9  C   LIG    1       -0.069   4.072  -1.028  0.00  0.00    +0.118 C 
ATOM     10  C   LIG    1       -1.243   3.540  -0.197  0.00  0.00    +0.063 C 
ATOM     11  C   LIG    1       -1.346   2.033  -0.420  0.00  0.00    +0.123 C 
ATOM     12  C   LIG    1       -0.010   1.373  -0.202  0.00  0.00    +0.052 C 
ATOM     13  C   LIG    1        0.002  -0.004   0.002  0.00  0.00    +0.062 C 
ATOM     14  C   LIG    1        1.246  -0.645   0.196  0.00  0.00    +0.023 C 
ATOM     15  C   LIG    1        1.336  -2.028   0.405  0.00  0.00    +0.006 C 
ENDROOT
BRANCH  13  16
ATOM     16  N   LIG    1       -1.179  -0.730   0.014  0.00  0.00    -0.327 NA
ATOM     17  H   LIG    1       -1.189  -1.634   0.365  0.00  0.00    +0.118 HD
ATOM     18  H   LIG    1       -1.996  -0.333  -0.328  0.00  0.00    +0.118 HD
ENDBRANCH  13  16
BRANCH   9  19
ATOM     19  O   LIG    1       -0.085   5.501  -1.022  0.00  0.00    -0.392 OA
ATOM     20  H   LIG    1        0.641   5.904  -1.517  0.00  0.00    +0.210 HD
ENDBRANCH   9  19
BRANCH  11  21
ATOM     21  O   LIG    1       -2.296   1.485   0.496  0.00  0.00    -0.391 OA
ATOM     22  H   LIG    1       -3.183   1.863   0.415  0.00  0.00    +0.210 HD
ENDBRANCH  11  21
TORSDOF 3
