REMARK  Name = ZINC03830683
REMARK                            x       y       z     vdW  Elec       q    Type
REMARK                         _______ _______ _______ _____ _____    ______ ____
ROOT
ATOM      1  C   LIG    1       -1.480   0.320  -1.724  0.00  0.00    +0.014 C 
ATOM      2  C   LIG    1       -0.661   1.545  -1.281  0.00  0.00    -0.019 C 
ATOM      3  C   LIG    1       -0.013   1.099   0.008  0.00  0.00    +0.010 C 
ATOM      4  C   LIG    1       -0.632   1.535   1.333  0.00  0.00    +0.001 C 
ATOM      5  C   LIG    1        0.034   2.860   1.804  0.00  0.00    +0.000 C 
ATOM      6  C   LIG    1       -0.347   3.951   0.878  0.00  0.00    +0.000 C 
ATOM      7  C   LIG    1        0.269   3.909  -0.491  0.00  0.00    +0.002 C 
ATOM      8  C   LIG    1       -0.845   4.017  -1.527  0.00  0.00    -0.020 C 
ATOM      9  C   LIG    1       -0.215   4.018  -2.927  0.00  0.00    +0.037 C 
ATOM     10  C   LIG    1        0.594   2.761  -3.119  0.00  0.00    -0.043 A 
ATOM     11  C   LIG    1        1.575   2.774  -4.103  0.00  0.00    +0.007 A 
ATOM     12  C   LIG    1        2.382   1.675  -4.304  0.00  0.00    +0.045 A 
ATOM     13  C   LIG    1        2.215   0.545  -3.518  0.00  0.00    +0.117 A 
ATOM     14  C   LIG    1        1.231   0.528  -2.541  0.00  0.00    +0.049 A 
ATOM     15  C   LIG    1        0.411   1.629  -2.354  0.00  0.00    -0.036 A 
ATOM     16  C   LIG    1       -1.619   2.674  -1.431  0.00  0.00    -0.061 C 
ENDROOT
BRANCH  16  17
ATOM     17  N   LIG    1       -2.697   2.686  -0.453  0.00  0.00    +0.381 N 
ATOM     18  H   LIG    1       -2.298   2.782   0.488  0.00  0.00    -0.090 HD
ATOM     19  H   LIG    1       -3.225   1.816  -0.504  0.00  0.00    -0.090 HD
ATOM     20  H   LIG    1       -3.321   3.471  -0.631  0.00  0.00    -0.090 HD
ENDBRANCH  16  17
BRANCH  13  21
ATOM     21  O   LIG    1        3.010  -0.542  -3.704  0.00  0.00    -0.507 OA
ATOM     22  H   LIG    1        3.817  -0.534  -3.172  0.00  0.00    +0.292 HD
ENDBRANCH  13  21
TORSDOF 2
