REMARK  Name = ZINC03871723
REMARK                            x       y       z     vdW  Elec       q    Type
REMARK                         _______ _______ _______ _____ _____    ______ ____
ROOT
ATOM      1  C   LIG    1        7.434  -2.768  -0.085  0.00  0.00    +0.148 C 
ENDROOT
BRANCH   1   5
ATOM      2  C   LIG    1        3.410  -1.361  -0.413  0.00  0.00    -0.018 A 
ATOM      3  C   LIG    1        4.036  -1.406   0.831  0.00  0.00    +0.009 A 
ATOM      4  C   LIG    1        5.335  -1.861   0.931  0.00  0.00    +0.006 A 
ATOM      5  C   LIG    1        6.016  -2.272  -0.200  0.00  0.00    -0.020 A 
ATOM      6  C   LIG    1        5.399  -2.230  -1.438  0.00  0.00    +0.006 A 
ATOM      7  C   LIG    1        4.098  -1.783  -1.549  0.00  0.00    +0.009 A 
BRANCH   2  11
ATOM      8  C   LIG    1       -0.592   0.038  -0.739  0.00  0.00    +0.000 A 
ATOM      9  C   LIG    1        0.026   0.001   0.498  0.00  0.00    +0.001 A 
ATOM     10  C   LIG    1        1.325  -0.452   0.610  0.00  0.00    +0.008 A 
ATOM     11  C   LIG    1        2.013  -0.873  -0.526  0.00  0.00    -0.018 A 
ATOM     12  C   LIG    1        1.385  -0.834  -1.770  0.00  0.00    +0.008 A 
ATOM     13  C   LIG    1        0.086  -0.379  -1.869  0.00  0.00    +0.001 A 
ENDBRANCH   2  11
ENDBRANCH   1   5
BRANCH   1  14
ATOM     14  N   LIG    1        7.744  -3.633  -1.226  0.00  0.00    -0.327 N 
ATOM     15  C   LIG    1        7.098  -4.790  -1.567  0.00  0.00    +0.105 A 
ATOM     16  C   LIG    1        7.700  -5.261  -2.675  0.00  0.00    +0.101 A 
ATOM     17  N   LIG    1        8.687  -4.414  -3.003  0.00  0.00    -0.352 N 
ATOM     18  H   LIG    1        9.283  -4.513  -3.762  0.00  0.00    +0.166 HD
ATOM     19  C   LIG    1        8.716  -3.434  -2.142  0.00  0.00    +0.174 A 
ENDBRANCH   1  14
BRANCH   1  20
ATOM     20  C   LIG    1        7.591  -3.549   1.194  0.00  0.00    -0.020 A 
ATOM     21  C   LIG    1        6.734  -4.598   1.473  0.00  0.00    +0.006 A 
ATOM     22  C   LIG    1        6.878  -5.314   2.646  0.00  0.00    +0.000 A 
ATOM     23  C   LIG    1        7.878  -4.983   3.541  0.00  0.00    +0.000 A 
ATOM     24  C   LIG    1        8.736  -3.935   3.261  0.00  0.00    +0.000 A 
ATOM     25  C   LIG    1        8.595  -3.221   2.086  0.00  0.00    +0.006 A 
ENDBRANCH   1  20
TORSDOF 4
