REMARK  Name = ZINC03831151
REMARK                            x       y       z     vdW  Elec       q    Type
REMARK                         _______ _______ _______ _____ _____    ______ ____
ROOT
ATOM      1  C   LIG    1        5.832   0.750   0.129  0.00  0.00    +0.077 C 
ENDROOT
BRANCH   1   2
ATOM      2  C   LIG    1        4.648  -0.177   0.235  0.00  0.00    -0.034 A 
ATOM      3  C   LIG    1        4.832  -1.546   0.138  0.00  0.00    +0.005 A 
ATOM      4  C   LIG    1        3.751  -2.404   0.235  0.00  0.00    +0.001 A 
ATOM      5  C   LIG    1        2.482  -1.901   0.428  0.00  0.00    +0.008 A 
ATOM      6  C   LIG    1        2.288  -0.521   0.527  0.00  0.00    -0.025 A 
ATOM      7  C   LIG    1        3.384   0.341   0.423  0.00  0.00    +0.012 A 
BRANCH   6   8
ATOM      8  C   LIG    1        0.935   0.024   0.733  0.00  0.00    +0.010 C 
ATOM      9  C   LIG    1       -0.117  -0.806   0.827  0.00  0.00    +0.028 C 
BRANCH   9  10
ATOM     10  C   LIG    1       -1.470  -0.261   1.026  0.00  0.00    +0.065 A 
ATOM     11  C   LIG    1       -2.562  -1.145   1.117  0.00  0.00    +0.028 A 
ATOM     12  C   LIG    1       -3.818  -0.652   1.302  0.00  0.00    +0.012 A 
ATOM     13  C   LIG    1       -3.982   0.745   1.397  0.00  0.00    +0.001 A 
ATOM     14  C   LIG    1       -5.249   1.317   1.587  0.00  0.00    +0.011 A 
ATOM     15  C   LIG    1       -5.372   2.670   1.675  0.00  0.00    +0.021 A 
ATOM     16  C   LIG    1       -4.254   3.498   1.578  0.00  0.00    +0.043 A 
ATOM     17 CL   LIG    1       -4.452   5.219   1.694  0.00  0.00    -0.083 Cl
ATOM     18  C   LIG    1       -3.009   2.977   1.394  0.00  0.00    +0.048 A 
ATOM     19  C   LIG    1       -2.843   1.584   1.299  0.00  0.00    +0.073 A 
ATOM     20  N   LIG    1       -1.633   1.048   1.123  0.00  0.00    -0.247 NA
ENDBRANCH   9  10
ENDBRANCH   6   8
ENDBRANCH   1   2
BRANCH   1  21
ATOM     21  C   LIG    1        6.831   0.430   1.243  0.00  0.00    +0.023 C 
BRANCH  21  22
ATOM     22  C   LIG    1        7.972   1.449   1.212  0.00  0.00    +0.037 C 
BRANCH  22  28
ATOM     23  C   LIG    1       10.049   0.478   2.215  0.00  0.00    -0.013 A 
ATOM     24  C   LIG    1       10.891   0.260   3.290  0.00  0.00    +0.007 A 
ATOM     25  C   LIG    1       10.573   0.775   4.532  0.00  0.00    +0.000 A 
ATOM     26  C   LIG    1        9.414   1.508   4.701  0.00  0.00    +0.000 A 
ATOM     27  C   LIG    1        8.575   1.731   3.625  0.00  0.00    +0.004 A 
ATOM     28  C   LIG    1        8.889   1.211   2.384  0.00  0.00    -0.041 A 
BRANCH  23  30
ATOM     29  C   LIG    1       10.850   1.050  -0.061  0.00  0.00    +0.046 C 
ATOM     30  C   LIG    1       10.395  -0.084   0.860  0.00  0.00    +0.086 C 
ATOM     31  C   LIG    1       11.524  -1.107   1.005  0.00  0.00    +0.046 C 
BRANCH  30  32
ATOM     32  O   LIG    1        9.245  -0.720   0.300  0.00  0.00    -0.384 OA
ATOM     33  H   LIG    1        8.901  -1.450   0.832  0.00  0.00    +0.211 HD
ENDBRANCH  30  32
ENDBRANCH  23  30
ENDBRANCH  22  28
ENDBRANCH  21  22
ENDBRANCH   1  21
BRANCH   1  34
ATOM     34  S   LIG    1        6.632   0.526  -1.484  0.00  0.00    -0.152 S 
BRANCH  34  35
ATOM     35  C   LIG    1        5.383   1.083  -2.675  0.00  0.00    +0.077 C 
BRANCH  35  36
ATOM     36  C   LIG    1        5.935   0.946  -4.095  0.00  0.00    -0.010 C 
ATOM     37  C   LIG    1        6.338   2.230  -4.823  0.00  0.00    +0.009 C 
ATOM     38  C   LIG    1        5.074   1.478  -5.242  0.00  0.00    +0.009 C 
BRANCH  36  39
ATOM     39  C   LIG    1        6.769  -0.308  -4.361  0.00  0.00    +0.128 C 
BRANCH  39  40
ATOM     40  C   LIG    1        5.899  -1.530  -4.215  0.00  0.00    +0.305 C 
ATOM     41  O   LIG    1        4.708  -1.407  -4.048  0.00  0.00    -0.251 OA
BRANCH  40  42
ATOM     42  O   LIG    1        6.446  -2.755  -4.271  0.00  0.00    -0.481 OA
ATOM     43  H   LIG    1        7.369  -2.850  -4.401  0.00  0.00    +0.295 HD
ENDBRANCH  40  42
ENDBRANCH  39  40
ENDBRANCH  36  39
ENDBRANCH  35  36
ENDBRANCH  34  35
ENDBRANCH   1  34
TORSDOF 14
