REMARK  Name = ZINC03812548
REMARK                            x       y       z     vdW  Elec       q    Type
REMARK                         _______ _______ _______ _____ _____    ______ ____
ROOT
ATOM      1  N   LIG    1        6.936   0.035  -1.908  0.00  0.00    -0.299 NA
ATOM      2  C   LIG    1        6.511  -0.201  -3.294  0.00  0.00    +0.103 C 
ATOM      3  C   LIG    1        7.365   0.650  -4.240  0.00  0.00    +0.120 C 
ATOM      4  N   LIG    1        8.783   0.368  -3.968  0.00  0.00    -0.327 N 
ATOM      5  C   LIG    1        9.255   0.450  -2.578  0.00  0.00    +0.120 C 
ATOM      6  C   LIG    1        8.326  -0.393  -1.698  0.00  0.00    +0.103 C 
ENDROOT
BRANCH   4   7
ATOM      7  C   LIG    1        9.658   0.031  -5.004  0.00  0.00    +0.030 A 
ATOM      8  C   LIG    1        9.174  -0.152  -6.293  0.00  0.00    +0.025 A 
ATOM      9  C   LIG    1       10.041  -0.484  -7.314  0.00  0.00    +0.030 A 
ATOM     10  C   LIG    1       11.391  -0.635  -7.055  0.00  0.00    +0.105 A 
ATOM     11  C   LIG    1       11.877  -0.453  -5.773  0.00  0.00    +0.030 A 
ATOM     12  C   LIG    1       11.015  -0.115  -4.748  0.00  0.00    +0.025 A 
BRANCH  10  13
ATOM     13  S   LIG    1       12.495  -1.061  -8.361  0.00  0.00    +0.056 S 
ATOM     14  O   LIG    1       11.715  -1.709  -9.356  0.00  0.00    -0.153 OA
ATOM     15  O   LIG    1       13.623  -1.677  -7.755  0.00  0.00    -0.153 OA
BRANCH  13  16
ATOM     16  N   LIG    1       13.032   0.356  -9.029  0.00  0.00    -0.204 NA
ATOM     17  H   LIG    1       13.655   0.337  -9.772  0.00  0.00    +0.144 HD
ATOM     18  H   LIG    1       12.722   1.206  -8.678  0.00  0.00    +0.144 HD
ENDBRANCH  13  16
ENDBRANCH  10  13
ENDBRANCH   4   7
BRANCH   1  19
ATOM     19  C   LIG    1        6.032  -0.628  -0.960  0.00  0.00    +0.087 C 
BRANCH  19  20
ATOM     20  C   LIG    1        4.648   0.018  -1.038  0.00  0.00    +0.052 C 
BRANCH  20  29
ATOM     21  C   LIG    1       -0.019   1.426  -0.009  0.00  0.00    +0.000 A 
ATOM     22  C   LIG    1        1.177   2.120  -0.007  0.00  0.00    +0.000 A 
ATOM     23  C   LIG    1        2.373   1.430  -0.022  0.00  0.00    +0.006 A 
ATOM     24  C   LIG    1        2.380   0.044  -0.040  0.00  0.00    -0.016 A 
ATOM     25  C   LIG    1        1.187  -0.648  -0.045  0.00  0.00    -0.040 A 
ATOM     26  C   LIG    1        1.154  -2.155  -0.077  0.00  0.00    +0.063 C 
ATOM     27  C   LIG    1        2.522  -2.711   0.323  0.00  0.00    +0.165 C 
ATOM     28  O   LIG    1        3.528  -2.034  -0.438  0.00  0.00    -0.372 OA
ATOM     29  C   LIG    1        3.706  -0.673  -0.050  0.00  0.00    +0.150 C 
ATOM     30  C   LIG    1       -0.013   0.045  -0.027  0.00  0.00    +0.004 A 
ENDBRANCH  20  29
ENDBRANCH  19  20
ENDBRANCH   1  19
TORSDOF 6
