REMARK  Name = ZINC03819138
REMARK                            x       y       z     vdW  Elec       q    Type
REMARK                         _______ _______ _______ _____ _____    ______ ____
ROOT
ATOM      1  C   LIG    1        2.385  -6.524  -1.208  0.00  0.00    -0.024 A 
ATOM      2  C   LIG    1        2.354  -7.104   0.046  0.00  0.00    +0.011 A 
ATOM      3  C   LIG    1        3.524  -7.552   0.630  0.00  0.00    -0.016 A 
ATOM      4  C   LIG    1        4.727  -7.412  -0.036  0.00  0.00    +0.008 A 
ATOM      5  C   LIG    1        4.761  -6.828  -1.288  0.00  0.00    +0.020 A 
ATOM      6  C   LIG    1        3.589  -6.384  -1.875  0.00  0.00    +0.044 A 
ATOM      7 CL   LIG    1        3.631  -5.651  -3.448  0.00  0.00    -0.083 Cl
ENDROOT
BRANCH   3   8
ATOM      8  C   LIG    1        3.488  -8.188   1.996  0.00  0.00    +0.180 C 
ATOM      9  C   LIG    1        3.543  -9.711   1.851  0.00  0.00    +0.179 C 
ATOM     10  C   LIG    1        3.567 -10.348   3.244  0.00  0.00    +0.177 C 
ATOM     11  C   LIG    1        4.763  -9.796   4.025  0.00  0.00    +0.176 C 
ATOM     12  C   LIG    1        4.661  -8.269   4.086  0.00  0.00    +0.175 C 
ATOM     13  O   LIG    1        4.612  -7.743   2.759  0.00  0.00    -0.361 OA
BRANCH   9  14
ATOM     14  O   LIG    1        2.390 -10.165   1.138  0.00  0.00    -0.386 OA
ATOM     15  H   LIG    1        2.359 -11.123   1.010  0.00  0.00    +0.210 HD
ENDBRANCH   9  14
BRANCH  10  16
ATOM     16  O   LIG    1        3.691 -11.767   3.121  0.00  0.00    -0.386 OA
ATOM     17  H   LIG    1        3.719 -12.234   3.967  0.00  0.00    +0.210 HD
ENDBRANCH  10  16
BRANCH  11  18
ATOM     18  O   LIG    1        4.754 -10.328   5.351  0.00  0.00    -0.386 OA
ATOM     19  H   LIG    1        4.816 -11.292   5.388  0.00  0.00    +0.210 HD
ENDBRANCH  11  18
BRANCH  12  20
ATOM     20  C   LIG    1        5.883  -7.705   4.814  0.00  0.00    +0.190 C 
BRANCH  20  21
ATOM     21  O   LIG    1        5.732  -6.293   4.972  0.00  0.00    -0.392 OA
ATOM     22  H   LIG    1        6.472  -5.867   5.427  0.00  0.00    +0.210 HD
ENDBRANCH  20  21
ENDBRANCH  12  20
ENDBRANCH   3   8
BRANCH   1  23
ATOM     23  C   LIG    1        1.109  -6.040  -1.847  0.00  0.00    +0.071 C 
BRANCH  23  27
ATOM     24  C   LIG    1        0.777  -1.810  -1.336  0.00  0.00    +0.121 A 
ATOM     25  C   LIG    1        0.253  -2.669  -0.381  0.00  0.00    +0.046 A 
ATOM     26  C   LIG    1        0.357  -4.036  -0.551  0.00  0.00    +0.007 A 
ATOM     27  C   LIG    1        0.992  -4.548  -1.667  0.00  0.00    -0.043 A 
ATOM     28  C   LIG    1        1.520  -3.695  -2.618  0.00  0.00    +0.007 A 
ATOM     29  C   LIG    1        1.414  -2.327  -2.455  0.00  0.00    +0.046 A 
BRANCH  24  30
ATOM     30  O   LIG    1        0.671  -0.465  -1.174  0.00  0.00    -0.492 OA
BRANCH  30  32
ATOM     31  C   LIG    1       -0.019   1.526   0.010  0.00  0.00    +0.048 C 
ATOM     32  C   LIG    1        0.002  -0.004   0.002  0.00  0.00    +0.225 C 
ENDBRANCH  30  32
ENDBRANCH  24  30
ENDBRANCH  23  27
ENDBRANCH   1  23
TORSDOF 10
