REMARK  Name = ZINC03869897
REMARK                            x       y       z     vdW  Elec       q    Type
REMARK                         _______ _______ _______ _____ _____    ______ ____
ROOT
ATOM      1  C   LIG    1       -1.483   2.728  -1.284  0.00  0.00    +0.180 C 
ENDROOT
BRANCH   1   2
ATOM      2  O   LIG    1       -0.413   3.667  -1.401  0.00  0.00    -0.386 OA
ATOM      3  H   LIG    1       -0.374   4.311  -0.680  0.00  0.00    +0.210 HD
ENDBRANCH   1   2
BRANCH   1   4
ATOM      4  C   LIG    1       -2.818   3.475  -1.273  0.00  0.00    +0.206 C 
BRANCH   4   5
ATOM      5  O   LIG    1       -3.015   4.116  -2.535  0.00  0.00    -0.284 OA
BRANCH   5   6
ATOM      6  P   LIG    1       -4.320   4.995  -2.878  0.00  0.00    +0.472 P 
ATOM      7  O   LIG    1       -5.536   4.184  -2.644  0.00  0.00    -0.228 OA
BRANCH   6   8
ATOM      8  O   LIG    1       -4.268   5.453  -4.420  0.00  0.00    -0.303 OA
ATOM      9  H   LIG    1       -4.248   4.668  -4.990  0.00  0.00    +0.222 HD
ENDBRANCH   6   8
BRANCH   6  10
ATOM     10  O   LIG    1       -4.354   6.297  -1.932  0.00  0.00    -0.303 OA
ATOM     11  H   LIG    1       -4.385   6.021  -1.002  0.00  0.00    +0.222 HD
ENDBRANCH   6  10
ENDBRANCH   5   6
ENDBRANCH   4   5
ENDBRANCH   1   4
BRANCH   1  12
ATOM     12  C   LIG    1       -1.329   1.940   0.019  0.00  0.00    +0.253 C 
BRANCH  12  13
ATOM     13  O   LIG    1       -2.400   1.000   0.136  0.00  0.00    -0.378 OA
ATOM     14  H   LIG    1       -2.439   0.356  -0.584  0.00  0.00    +0.211 HD
ENDBRANCH  12  13
BRANCH  12  15
ATOM     15  C   LIG    1       -0.014   1.204   0.009  0.00  0.00    +0.336 C 
ATOM     16  O   LIG    1        0.002  -0.004   0.002  0.00  0.00    -0.248 OA
BRANCH  15  17
ATOM     17  O   LIG    1        1.139   1.891   0.001  0.00  0.00    -0.479 OA
ATOM     18  H   LIG    1        1.126   2.828   0.006  0.00  0.00    +0.295 HD
ENDBRANCH  15  17
ENDBRANCH  12  15
ENDBRANCH   1  12
TORSDOF 10
