REMARK  Name = ZINC03818556
REMARK                            x       y       z     vdW  Elec       q    Type
REMARK                         _______ _______ _______ _____ _____    ______ ____
ROOT
ATOM      1  C   LIG    1       -5.612   0.457   0.206  0.00  0.00    +0.087 C 
ENDROOT
BRANCH   1   2
ATOM      2  C   LIG    1       -4.116   0.295   0.124  0.00  0.00    +0.231 A 
ATOM      3  N   LIG    1       -3.222   1.236   0.293  0.00  0.00    -0.187 NA
ATOM      4  C   LIG    1       -2.023   0.632   0.128  0.00  0.00    +0.257 A 
ATOM      5  N   LIG    1       -2.258  -0.626  -0.133  0.00  0.00    -0.051 NA
ATOM      6  O   LIG    1       -3.453  -0.836  -0.134  0.00  0.00    -0.337 OA
BRANCH   4   7
ATOM      7  C   LIG    1       -0.691   1.279   0.220  0.00  0.00    +0.282 C 
ATOM      8  N   LIG    1        0.427   0.550   0.032  0.00  0.00    -0.323 N 
ATOM      9  H   LIG    1        1.298   0.973   0.088  0.00  0.00    +0.145 HD
ATOM     10  H   LIG    1        0.360  -0.398  -0.164  0.00  0.00    +0.145 HD
ATOM     11  O   LIG    1       -0.607   2.466   0.465  0.00  0.00    -0.267 OA
ENDBRANCH   4   7
ENDBRANCH   1   2
BRANCH   1  12
ATOM     12  C   LIG    1       -6.163  -0.446   1.312  0.00  0.00    +0.013 C 
BRANCH  12  13
ATOM     13  C   LIG    1       -7.660  -0.180   1.489  0.00  0.00    +0.001 C 
BRANCH  13  14
ATOM     14  C   LIG    1       -8.183  -0.985   2.680  0.00  0.00    +0.003 C 
BRANCH  14  18
ATOM     15  C   LIG    1      -11.940   0.116   4.523  0.00  0.00    +0.000 C 
ATOM     16  C   LIG    1      -11.725  -1.351   4.146  0.00  0.00    +0.000 C 
ATOM     17  C   LIG    1      -10.229  -1.617   3.968  0.00  0.00    +0.003 C 
ATOM     18  C   LIG    1       -9.679  -0.719   2.858  0.00  0.00    -0.011 C 
ATOM     19  C   LIG    1       -9.895   0.748   3.236  0.00  0.00    +0.003 C 
ATOM     20  C   LIG    1      -11.391   1.014   3.413  0.00  0.00    +0.000 C 
ENDBRANCH  14  18
ENDBRANCH  13  14
ENDBRANCH  12  13
ENDBRANCH   1  12
BRANCH   1  21
ATOM     21  C   LIG    1       -6.242   0.066  -1.133  0.00  0.00    +0.110 C 
BRANCH  21  22
ATOM     22  C   LIG    1       -5.805   1.040  -2.196  0.00  0.00    +0.236 C 
ATOM     23  N   LIG    1       -6.141   0.827  -3.484  0.00  0.00    -0.197 N 
ATOM     24  H   LIG    1       -6.664   0.047  -3.726  0.00  0.00    +0.182 HD
ATOM     25  O   LIG    1       -5.152   2.016  -1.894  0.00  0.00    -0.274 OA
BRANCH  23  26
ATOM     26  O   LIG    1       -5.731   1.742  -4.484  0.00  0.00    -0.295 OA
ATOM     27  H   LIG    1       -6.019   1.506  -5.376  0.00  0.00    +0.241 HD
ENDBRANCH  23  26
ENDBRANCH  21  22
ENDBRANCH   1  21
TORSDOF 9
