REMARK  Name = ZINC03826221
REMARK                            x       y       z     vdW  Elec       q    Type
REMARK                         _______ _______ _______ _____ _____    ______ ____
ROOT
ATOM      1  C   LIG    1        1.052   1.500   0.299  0.00  0.00    +0.325 C 
ENDROOT
BRANCH   1   2
ATOM      2  C   LIG    1        1.807   0.780  -0.788  0.00  0.00    +0.350 C 
ATOM      3  O   LIG    1        1.689  -0.415  -0.916  0.00  0.00    -0.247 OA
BRANCH   2   4
ATOM      4  O   LIG    1        2.607   1.468  -1.618  0.00  0.00    -0.478 OA
ATOM      5  H   LIG    1        2.698   2.395  -1.519  0.00  0.00    +0.295 HD
ENDBRANCH   2   4
ENDBRANCH   1   2
BRANCH   1   6
ATOM      6  O   LIG    1        0.151   0.591   0.935  0.00  0.00    -0.444 OA
BRANCH   6  11
ATOM      7  C   LIG    1       -2.628   1.169  -1.171  0.00  0.00    +0.224 A 
ATOM      8  C   LIG    1       -3.568   0.309  -0.614  0.00  0.00    +0.134 A 
ATOM      9  C   LIG    1       -3.197  -0.451   0.489  0.00  0.00    +0.224 A 
ATOM     10  N   LIG    1       -1.964  -0.332   0.972  0.00  0.00    -0.159 NA
ATOM     11  C   LIG    1       -1.096   0.496   0.416  0.00  0.00    +0.325 A 
ATOM     12  N   LIG    1       -1.416   1.239  -0.631  0.00  0.00    -0.159 NA
BRANCH   7  14
ATOM     13  C   LIG    1       -1.925   2.787  -2.760  0.00  0.00    +0.279 C 
ATOM     14  O   LIG    1       -2.946   1.929  -2.247  0.00  0.00    -0.479 OA
ENDBRANCH   7  14
BRANCH   9  15
ATOM     15  O   LIG    1       -4.081  -1.303   1.065  0.00  0.00    -0.479 OA
ATOM     16  C   LIG    1       -3.622  -2.049   2.194  0.00  0.00    +0.279 C 
ENDBRANCH   9  15
ENDBRANCH   6  11
ENDBRANCH   1   6
BRANCH   1  17
ATOM     17  C   LIG    1        2.040   2.046   1.332  0.00  0.00    +0.166 C 
BRANCH  17  18
ATOM     18  C   LIG    1        1.281   2.623   2.498  0.00  0.00    -0.007 A 
ATOM     19  C   LIG    1        0.095   3.301   2.284  0.00  0.00    +0.007 A 
ATOM     20  C   LIG    1       -0.604   3.826   3.355  0.00  0.00    +0.000 A 
ATOM     21  C   LIG    1       -0.113   3.682   4.639  0.00  0.00    +0.000 A 
ATOM     22  C   LIG    1        1.075   3.008   4.853  0.00  0.00    +0.000 A 
ATOM     23  C   LIG    1        1.772   2.478   3.783  0.00  0.00    +0.007 A 
ENDBRANCH  17  18
BRANCH  17  24
ATOM     24  C   LIG    1        2.884   3.122   0.700  0.00  0.00    -0.007 A 
ATOM     25  C   LIG    1        2.280   4.223   0.121  0.00  0.00    +0.007 A 
ATOM     26  C   LIG    1        3.054   5.213  -0.455  0.00  0.00    +0.000 A 
ATOM     27  C   LIG    1        4.432   5.097  -0.461  0.00  0.00    +0.000 A 
ATOM     28  C   LIG    1        5.035   3.994   0.114  0.00  0.00    +0.000 A 
ATOM     29  C   LIG    1        4.261   3.007   0.694  0.00  0.00    +0.007 A 
ENDBRANCH  17  24
BRANCH  17  30
ATOM     30  O   LIG    1        2.884   0.987   1.790  0.00  0.00    -0.363 OA
ATOM     31  C   LIG    1        2.174  -0.122   2.346  0.00  0.00    +0.195 C 
ENDBRANCH  17  30
ENDBRANCH   1  17
TORSDOF 10
