REMARK  Name = ZINC03804932
REMARK                            x       y       z     vdW  Elec       q    Type
REMARK                         _______ _______ _______ _____ _____    ______ ____
ROOT
ATOM      1  C   LIG    1       -1.048   2.431   0.020  0.00  0.00    +0.027 A 
ATOM      2  C   LIG    1       -0.775   3.792   0.026  0.00  0.00    +0.042 A 
ATOM      3 CL   LIG    1       -2.078   4.939   0.043  0.00  0.00    -0.084 Cl
ATOM      4  C   LIG    1        0.532   4.232   0.013  0.00  0.00    +0.036 A 
ATOM      5  C   LIG    1        1.583   3.314   0.001  0.00  0.00    +0.080 A 
ATOM      6  C   LIG    1        1.308   1.936   0.000  0.00  0.00    +0.137 A 
ATOM      7  O   LIG    1        2.157   0.871  -0.009  0.00  0.00    -0.487 OA
ATOM      8  C   LIG    1        1.428  -0.277  -0.465  0.00  0.00    +0.181 C 
ATOM      9  C   LIG    1        2.042  -1.572  -0.012  0.00  0.00    +0.045 C 
ATOM     10  C   LIG    1        1.758  -1.877   1.454  0.00  0.00    +0.004 C 
ATOM     11  C   LIG    1        0.240  -1.893   1.660  0.00  0.00    +0.001 C 
ATOM     12  C   LIG    1       -0.300  -0.493   1.406  0.00  0.00    +0.012 C 
ATOM     13  C   LIG    1        0.002  -0.004   0.002  0.00  0.00    +0.063 C 
ATOM     14  C   LIG    1       -0.019   1.520   0.010  0.00  0.00    +0.003 A 
ENDROOT
BRANCH   5  15
ATOM     15  C   LIG    1        2.980   3.789  -0.012  0.00  0.00    +0.248 C 
ATOM     16  N   LIG    1        3.242   5.111  -0.011  0.00  0.00    -0.310 N 
ATOM     17  H   LIG    1        2.512   5.750  -0.003  0.00  0.00    +0.149 HD
ATOM     18  O   LIG    1        3.894   2.987  -0.023  0.00  0.00    -0.270 OA
BRANCH  16  19
ATOM     19  C   LIG    1        4.629   5.582  -0.024  0.00  0.00    +0.060 C 
ATOM     20  C   LIG    1        5.164   5.641   1.410  0.00  0.00    -0.056 C 
ATOM     21  N   LIG    1        5.565   7.021   1.755  0.00  0.00    +0.381 N 
ATOM     22  H   LIG    1        5.920   7.034   2.719  0.00  0.00    -0.082 HD
ATOM     23  C   LIG    1        6.636   7.480   0.844  0.00  0.00    -0.078 C 
ATOM     24  C   LIG    1        6.146   7.465  -0.624  0.00  0.00    -0.014 C 
ATOM     25  C   LIG    1        4.400   7.926   1.660  0.00  0.00    -0.078 C 
ATOM     26  C   LIG    1        3.843   7.932   0.234  0.00  0.00    -0.014 C 
ATOM     27  C   LIG    1        4.688   6.989  -0.632  0.00  0.00    +0.004 C 
ENDBRANCH  16  19
ENDBRANCH   5  15
TORSDOF 2
