REMARK  Name = ZINC03782835
REMARK                            x       y       z     vdW  Elec       q    Type
REMARK                         _______ _______ _______ _____ _____    ______ ____
ROOT
ATOM      1  C   LIG    1       -3.833  -1.207  -0.791  0.00  0.00    +0.164 C 
ENDROOT
BRANCH   1   2
ATOM      2  C   LIG    1       -2.891  -0.071  -1.096  0.00  0.00    +0.236 C 
ATOM      3  N   LIG    1       -3.345   1.031  -1.726  0.00  0.00    -0.300 N 
ATOM      4  C   LIG    1       -4.724   1.091  -2.229  0.00  0.00    +0.110 C 
ATOM      5  C   LIG    1       -5.396   2.351  -1.663  0.00  0.00    +0.050 C 
ATOM      6  C   LIG    1       -4.546   3.576  -2.010  0.00  0.00    +0.122 C 
ATOM      7  C   LIG    1       -3.164   3.438  -1.369  0.00  0.00    +0.050 C 
ATOM      8  C   LIG    1       -2.468   2.193  -1.927  0.00  0.00    +0.110 C 
ATOM      9  O   LIG    1       -1.724  -0.149  -0.775  0.00  0.00    -0.274 OA
BRANCH   6  10
ATOM     10  O   LIG    1       -5.186   4.754  -1.516  0.00  0.00    -0.365 OA
BRANCH  10  11
ATOM     11  C   LIG    1       -6.090   5.358  -2.444  0.00  0.00    +0.280 C 
BRANCH  11  12
ATOM     12  C   LIG    1       -6.703   6.586  -1.821  0.00  0.00    +0.331 C 
ATOM     13  O   LIG    1       -6.397   6.910  -0.698  0.00  0.00    -0.248 OA
BRANCH  12  14
ATOM     14  O   LIG    1       -7.588   7.319  -2.514  0.00  0.00    -0.479 OA
ATOM     15  H   LIG    1       -7.825   7.067  -3.385  0.00  0.00    +0.295 HD
ENDBRANCH  12  14
ENDBRANCH  11  12
ENDBRANCH  10  11
ENDBRANCH   6  10
ENDBRANCH   1   2
BRANCH   1  16
ATOM     16  N   LIG    1       -3.061  -2.418  -0.505  0.00  0.00    -0.300 N 
ATOM     17  H   LIG    1       -2.151  -2.347  -0.176  0.00  0.00    +0.150 HD
ATOM     18  C   LIG    1       -3.615  -3.632  -0.697  0.00  0.00    +0.245 C 
ATOM     19  O   LIG    1       -4.756  -3.721  -1.109  0.00  0.00    -0.270 OA
BRANCH  18  20
ATOM     20  C   LIG    1       -2.836  -4.855  -0.408  0.00  0.00    +0.037 A 
ATOM     21  C   LIG    1       -1.525  -4.753   0.060  0.00  0.00    +0.014 A 
ATOM     22  C   LIG    1       -0.801  -5.893   0.334  0.00  0.00    +0.016 A 
ATOM     23  C   LIG    1       -1.375  -7.149   0.134  0.00  0.00    +0.061 A 
ATOM     24  C   LIG    1       -2.683  -7.251  -0.338  0.00  0.00    +0.016 A 
ATOM     25  C   LIG    1       -3.410  -6.112  -0.607  0.00  0.00    +0.014 A 
BRANCH  23  26
ATOM     26  C   LIG    1       -0.594  -8.374   0.424  0.00  0.00    +0.266 C 
ATOM     27  N   LIG    1       -1.195  -9.535   0.214  0.00  0.00    -0.288 N 
ATOM     28  H   LIG    1       -2.160  -9.557  -0.134  0.00  0.00    +0.301 HD
ATOM     29  H   LIG    1       -0.699 -10.407   0.399  0.00  0.00    +0.301 HD
BRANCH  26  30
ATOM     30  N   LIG    1        0.699  -8.274   0.890  0.00  0.00    -0.250 N 
ATOM     31  H   LIG    1        1.210  -9.076   1.080  0.00  0.00    +0.288 HD
ATOM     32  H   LIG    1        1.098  -7.400   1.029  0.00  0.00    +0.288 HD
ENDBRANCH  26  30
ENDBRANCH  23  26
ENDBRANCH  18  20
ENDBRANCH   1  16
BRANCH   1  33
ATOM     33  C   LIG    1       -4.689  -0.847   0.425  0.00  0.00    +0.067 C 
BRANCH  33  39
ATOM     34  C   LIG    1       -6.968  -1.803   0.033  0.00  0.00    +0.007 A 
ATOM     35  C   LIG    1       -7.923  -2.783   0.224  0.00  0.00    +0.045 A 
ATOM     36  C   LIG    1       -7.643  -3.873   1.034  0.00  0.00    +0.117 A 
ATOM     37  C   LIG    1       -6.403  -3.980   1.646  0.00  0.00    +0.045 A 
ATOM     38  C   LIG    1       -5.450  -3.001   1.448  0.00  0.00    +0.007 A 
ATOM     39  C   LIG    1       -5.731  -1.914   0.640  0.00  0.00    -0.045 A 
BRANCH  36  40
ATOM     40  O   LIG    1       -8.583  -4.836   1.228  0.00  0.00    -0.507 OA
ATOM     41  H   LIG    1       -9.163  -4.674   1.984  0.00  0.00    +0.292 HD
ENDBRANCH  36  40
ENDBRANCH  33  39
ENDBRANCH   1  33
TORSDOF 12
