REMARK  Name = ZINC03775013
REMARK                            x       y       z     vdW  Elec       q    Type
REMARK                         _______ _______ _______ _____ _____    ______ ____
ROOT
ATOM      1  C   LIG    1        4.815   3.424   2.363  0.00  0.00    +0.033 A 
ATOM      2  C   LIG    1        3.991   2.387   2.100  0.00  0.00    +0.102 A 
ATOM      3  N   LIG    1        2.728   2.627   1.631  0.00  0.00    -0.274 N 
ATOM      4  C   LIG    1        2.296   3.887   1.440  0.00  0.00    +0.331 A 
ATOM      5  N   LIG    1        3.094   4.939   1.700  0.00  0.00    -0.275 N 
ATOM      6  H   LIG    1        2.757   5.868   1.552  0.00  0.00    +0.173 HD
ATOM      7  O   LIG    1        1.168   4.078   1.028  0.00  0.00    -0.246 OA
ATOM      8  C   LIG    1        4.347   4.744   2.158  0.00  0.00    +0.257 A 
ATOM      9  O   LIG    1        5.070   5.695   2.393  0.00  0.00    -0.267 OA
ENDROOT
BRANCH   3  10
ATOM     10  C1* LIG    1        1.836   1.502   1.340  0.00  0.00    +0.226 C 
ATOM     11  C2* LIG    1        0.622   1.532   2.289  0.00  0.00    +0.088 C 
ATOM     12  C3* LIG    1       -0.599   1.616   1.341  0.00  0.00    +0.150 C 
ATOM     13  C4* LIG    1       -0.013   1.086   0.008  0.00  0.00    +0.175 C 
ATOM     14  O4* LIG    1        1.331   1.613  -0.002  0.00  0.00    -0.348 OA
BRANCH  12  15
ATOM     15  O3* LIG    1       -1.661   0.777   1.801  0.00  0.00    -0.389 OA
ATOM     16  H3* LIG    1       -2.060   1.068   2.632  0.00  0.00    +0.210 HD
ENDBRANCH  12  15
BRANCH  13  17
ATOM     17  C5* LIG    1       -0.809   1.619  -1.185  0.00  0.00    +0.190 C 
BRANCH  17  18
ATOM     18  O5* LIG    1       -0.286   1.063  -2.393  0.00  0.00    -0.392 OA
ATOM     19  H5* LIG    1       -0.744   1.358  -3.192  0.00  0.00    +0.210 HD
ENDBRANCH  17  18
ENDBRANCH  13  17
ENDBRANCH   3  10
BRANCH   1  20
ATOM     20  C   LIG    1        6.211   3.178   2.874  0.00  0.00    +0.042 C 
BRANCH  20  22
ATOM     21  C   LIG    1        8.610   2.933   2.219  0.00  0.00    +0.004 C 
ATOM     22  C   LIG    1        7.192   3.182   1.700  0.00  0.00    +0.001 C 
ENDBRANCH  20  22
ENDBRANCH   1  20
TORSDOF 6
