REMARK  Name = ZINC03851344
REMARK                            x       y       z     vdW  Elec       q    Type
REMARK                         _______ _______ _______ _____ _____    ______ ____
ROOT
ATOM      1  C   LIG    1        2.470   3.339   1.236  0.00  0.00    +0.006 A 
ATOM      2  C   LIG    1        2.597   4.602   1.765  0.00  0.00    +0.049 A 
ATOM      3  C   LIG    1        1.655   5.593   1.520  0.00  0.00    +0.159 A 
ATOM      4  C   LIG    1        0.583   5.254   0.685  0.00  0.00    +0.166 A 
ATOM      5  C   LIG    1        0.479   3.962   0.152  0.00  0.00    +0.013 A 
ATOM      6  C   LIG    1       -0.697   4.006  -0.806  0.00  0.00    +0.053 C 
ATOM      7  C   LIG    1       -0.183   4.111  -2.204  0.00  0.00    -0.014 C 
ATOM      8  C   LIG    1       -0.426   5.084  -3.017  0.00  0.00    +0.001 C 
ATOM      9  C   LIG    1       -1.266   6.270  -2.667  0.00  0.00    +0.141 C 
ATOM     10  C   LIG    1       -2.140   6.005  -1.457  0.00  0.00    +0.081 C 
ATOM     11  C   LIG    1       -1.435   5.268  -0.351  0.00  0.00    +0.191 C 
ATOM     12  C   LIG    1       -1.591   2.795  -0.635  0.00  0.00    +0.000 C 
ATOM     13  C   LIG    1       -0.900   1.513  -1.001  0.00  0.00    -0.081 C 
ATOM     14  N   LIG    1       -0.025   0.974   0.038  0.00  0.00    +0.382 N 
ATOM     15  H   LIG    1        0.042  -0.043  -0.086  0.00  0.00    -0.085 HD
ATOM     16  H   LIG    1       -0.439   1.180   0.955  0.00  0.00    -0.085 HD
ATOM     17  C   LIG    1        1.335   1.543  -0.002  0.00  0.00    -0.046 C 
ATOM     18  O   LIG    1       -0.414   6.064   0.265  0.00  0.00    -0.484 OA
ATOM     19  C   LIG    1        1.382   2.981   0.425  0.00  0.00    -0.057 A 
ENDROOT
BRANCH   3  20
ATOM     20  O   LIG    1        1.768   6.834   2.065  0.00  0.00    -0.503 OA
ATOM     21  H   LIG    1        2.265   7.459   1.520  0.00  0.00    +0.292 HD
ENDBRANCH   3  20
BRANCH   9  22
ATOM     22  O   LIG    1       -0.411   7.380  -2.386  0.00  0.00    -0.388 OA
ATOM     23  H   LIG    1        0.157   7.636  -3.126  0.00  0.00    +0.210 HD
ENDBRANCH   9  22
TORSDOF 2
