REMARK  Name = ZINC03814313
REMARK                            x       y       z     vdW  Elec       q    Type
REMARK                         _______ _______ _______ _____ _____    ______ ____
ROOT
ATOM      1  C   LIG    1       -0.017   1.386   0.010  0.00  0.00    +0.036 C 
ATOM      2  C   LIG    1        1.178   2.082   0.002  0.00  0.00    +0.084 C 
ATOM      3  N   LIG    1        2.338   1.457  -0.013  0.00  0.00    -0.297 NA
ATOM      4  H   LIG    1        3.156   1.979  -0.018  0.00  0.00    +0.124 HD
ATOM      5  C   LIG    1        2.417   0.134  -0.021  0.00  0.00    +0.171 C 
ATOM      6  C   LIG    1        1.252  -0.647  -0.013  0.00  0.00    +0.158 C 
ATOM      7  N   LIG    1        1.639  -1.948  -0.024  0.00  0.00    -0.268 NA
ATOM      8  C   LIG    1        2.938  -2.013  -0.037  0.00  0.00    +0.182 C 
ATOM      9  N   LIG    1        3.468  -0.758  -0.036  0.00  0.00    -0.276 N 
ATOM     10  C   LIG    1        0.002  -0.004   0.002  0.00  0.00    +0.080 C 
ENDROOT
BRANCH   9  11
ATOM     11  C1* LIG    1        4.893  -0.418  -0.049  0.00  0.00    +0.240 C 
ATOM     12  C2* LIG    1        5.410  -0.216   1.393  0.00  0.00    +0.193 C 
ATOM     13  C3* LIG    1        6.837  -0.809   1.366  0.00  0.00    +0.178 C 
ATOM     14  C4* LIG    1        7.012  -1.300  -0.088  0.00  0.00    +0.177 C 
ATOM     15  O4* LIG    1        5.668  -1.519  -0.571  0.00  0.00    -0.348 OA
BRANCH  12  16
ATOM     16  O2* LIG    1        5.450   1.175   1.720  0.00  0.00    -0.385 OA
ATOM     17  H2* LIG    1        5.767   1.359   2.615  0.00  0.00    +0.210 HD
ENDBRANCH  12  16
BRANCH  13  18
ATOM     18  O3* LIG    1        7.803   0.196   1.678  0.00  0.00    -0.386 OA
ATOM     19  H3* LIG    1        8.716  -0.122   1.676  0.00  0.00    +0.210 HD
ENDBRANCH  13  18
BRANCH  14  20
ATOM     20  C5* LIG    1        7.812  -2.604  -0.118  0.00  0.00    +0.190 C 
BRANCH  20  21
ATOM     21  O5* LIG    1        8.062  -2.978  -1.474  0.00  0.00    -0.392 OA
ATOM     22  H5* LIG    1        8.566  -3.798  -1.569  0.00  0.00    +0.210 HD
ENDBRANCH  20  21
ENDBRANCH  14  20
ENDBRANCH   9  11
BRANCH  10  23
ATOM     23  N   LIG    1       -1.180  -0.736   0.010  0.00  0.00    -0.325 NA
ATOM     24  H   LIG    1       -1.151  -1.706   0.004  0.00  0.00    +0.119 HD
ATOM     25  H   LIG    1       -2.035  -0.278   0.021  0.00  0.00    +0.119 HD
ENDBRANCH  10  23
TORSDOF 6
