REMARK  Name = ZINC03801072
REMARK                            x       y       z     vdW  Elec       q    Type
REMARK                         _______ _______ _______ _____ _____    ______ ____
ROOT
ATOM      1  C   LIG    1       -0.736   3.141   0.025  0.00  0.00    +0.059 C 
ATOM      2  C   LIG    1        0.654   3.160   0.012  0.00  0.00    +0.059 C 
ATOM      3  C   LIG    1        1.083   1.746   0.001  0.00  0.00    +0.252 C 
ATOM      4  N   LIG    1       -0.011   0.966   0.007  0.00  0.00    -0.248 N 
ATOM      5  H   LIG    1        0.002  -0.004   0.002  0.00  0.00    +0.158 HD
ATOM      6  O   LIG    1        2.233   1.354  -0.012  0.00  0.00    -0.270 OA
ATOM      7  C   LIG    1       -1.126   1.716   0.016  0.00  0.00    +0.252 C 
ATOM      8  O   LIG    1       -2.265   1.293   0.018  0.00  0.00    -0.270 OA
ENDROOT
BRANCH   2   9
ATOM      9  C   LIG    1        1.523   4.349   0.009  0.00  0.00    +0.016 A 
ATOM     10  C   LIG    1        2.034   5.057  -1.163  0.00  0.00    +0.008 A 
ATOM     11  C   LIG    1        1.872   4.845  -2.532  0.00  0.00    +0.010 A 
ATOM     12  C   LIG    1        2.515   5.731  -3.379  0.00  0.00    +0.001 A 
ATOM     13  C   LIG    1        3.282   6.778  -2.896  0.00  0.00    +0.002 A 
ATOM     14  C   LIG    1        3.447   7.009  -1.541  0.00  0.00    +0.026 A 
ATOM     15  C   LIG    1        2.814   6.128  -0.666  0.00  0.00    +0.050 A 
ATOM     16  N   LIG    1        2.786   6.066   0.700  0.00  0.00    -0.343 N 
ATOM     17  C   LIG    1        3.464   6.981   1.631  0.00  0.00    +0.122 C 
ATOM     18  C   LIG    1        2.834   6.838   3.019  0.00  0.00    +0.023 C 
ATOM     19  C   LIG    1        2.799   5.359   3.415  0.00  0.00    -0.021 C 
ATOM     20  C   LIG    1        1.766   4.633   2.544  0.00  0.00    +0.055 C 
ATOM     21  C   LIG    1        2.017   5.004   1.101  0.00  0.00    +0.028 A 
BRANCH  19  22
ATOM     22  C   LIG    1        2.406   5.233   4.888  0.00  0.00    -0.083 C 
BRANCH  22  23
ATOM     23  N   LIG    1        3.475   5.809   5.721  0.00  0.00    +0.378 N 
ATOM     24  H   LIG    1        4.343   5.281   5.570  0.00  0.00    -0.090 HD
ATOM     25  H   LIG    1        3.220   5.753   6.706  0.00  0.00    -0.090 HD
ATOM     26  H   LIG    1        3.631   6.783   5.466  0.00  0.00    -0.090 HD
ENDBRANCH  22  23
ENDBRANCH  19  22
ENDBRANCH   2   9
BRANCH   1  30
ATOM     27  C   LIG    1       -3.326   7.151  -1.476  0.00  0.00    +0.149 C 
ATOM     28  N   LIG    1       -2.797   6.093  -0.612  0.00  0.00    -0.349 N 
ATOM     29  C   LIG    1       -1.922   5.129  -1.010  0.00  0.00    +0.095 A 
ATOM     30  C   LIG    1       -1.637   4.306   0.039  0.00  0.00    +0.013 A 
ATOM     31  C   LIG    1       -2.412   4.807   1.188  0.00  0.00    +0.008 A 
ATOM     32  C   LIG    1       -2.548   4.400   2.513  0.00  0.00    +0.010 A 
ATOM     33  C   LIG    1       -3.377   5.103   3.361  0.00  0.00    +0.001 A 
ATOM     34  C   LIG    1       -4.073   6.210   2.900  0.00  0.00    +0.002 A 
ATOM     35  C   LIG    1       -3.941   6.629   1.593  0.00  0.00    +0.026 A 
ATOM     36  C   LIG    1       -3.114   5.931   0.721  0.00  0.00    +0.049 A 
ENDBRANCH   1  30
TORSDOF 4
