REMARK  Name = ZINC03792122
REMARK                            x       y       z     vdW  Elec       q    Type
REMARK                         _______ _______ _______ _____ _____    ______ ____
ROOT
ATOM      1  C   LIG    1       -1.534   5.127  -2.264  0.00  0.00    +0.000 A 
ATOM      2  C   LIG    1       -1.443   5.817  -1.069  0.00  0.00    +0.000 A 
ATOM      3  C   LIG    1       -1.125   5.139   0.090  0.00  0.00    +0.004 A 
ATOM      4  C   LIG    1       -0.895   3.769   0.067  0.00  0.00    -0.042 A 
ATOM      5  C   LIG    1       -0.990   3.083  -1.123  0.00  0.00    -0.044 A 
ATOM      6  C   LIG    1       -0.762   1.597  -1.221  0.00  0.00    +0.037 C 
ATOM      7  C   LIG    1       -0.013   1.086   0.008  0.00  0.00    +0.027 C 
ATOM      8  C   LIG    1       -0.741   1.585   1.261  0.00  0.00    +0.078 C 
ATOM      9  C   LIG    1       -0.539   3.096   1.366  0.00  0.00    +0.057 C 
ATOM     10  C   LIG    1       -1.309   3.767  -2.289  0.00  0.00    +0.004 A 
ENDROOT
BRANCH   8  11
ATOM     11  N   LIG    1       -0.186   0.930   2.448  0.00  0.00    -0.311 N 
ATOM     12  H   LIG    1        0.722   0.589   2.435  0.00  0.00    +0.149 HD
ATOM     13  C   LIG    1       -0.938   0.800   3.559  0.00  0.00    +0.228 C 
ATOM     14  O   LIG    1       -2.074   1.226   3.577  0.00  0.00    -0.275 OA
BRANCH  13  15
ATOM     15  C   LIG    1       -0.368   0.125   4.780  0.00  0.00    +0.204 C 
ATOM     16 CL   LIG    1       -1.607   0.107   6.090  0.00  0.00    -0.116 Cl
ENDBRANCH  13  15
ENDBRANCH   8  11
TORSDOF 2
