REMARK  Name = ZINC03825778
REMARK                            x       y       z     vdW  Elec       q    Type
REMARK                         _______ _______ _______ _____ _____    ______ ____
ROOT
ATOM      1  C   LIG    1        1.833   1.761   0.220  0.00  0.00    +0.220 C 
ATOM      2  N   LIG    1        2.654   1.122  -0.636  0.00  0.00    -0.286 N 
ATOM      3  C   LIG    1        4.043   1.484  -0.929  0.00  0.00    +0.080 C 
ATOM      4  C   LIG    1        4.748   2.124   0.245  0.00  0.00    +0.023 C 
ATOM      5  C   LIG    1        4.924   1.130   1.394  0.00  0.00    +0.002 C 
ATOM      6  C   LIG    1        5.744  -0.060   0.883  0.00  0.00    +0.000 C 
ATOM      7  C   LIG    1        4.954  -0.760  -0.220  0.00  0.00    +0.005 C 
ATOM      8  C   LIG    1        4.725   0.181  -1.386  0.00  0.00    +0.012 C 
ATOM      9  C   LIG    1        3.581  -0.457  -2.233  0.00  0.00    +0.037 C 
ATOM     10  C   LIG    1        2.316  -0.069  -1.437  0.00  0.00    +0.163 C 
ATOM     11  O   LIG    1        2.228   2.732   0.830  0.00  0.00    -0.275 OA
ENDROOT
BRANCH  10  12
ATOM     12  C   LIG    1        1.912  -1.200  -0.527  0.00  0.00    +0.237 C 
ATOM     13  N   LIG    1        1.322  -2.299  -1.040  0.00  0.00    -0.290 N 
ATOM     14  C   LIG    1        0.824  -3.366  -0.189  0.00  0.00    +0.119 C 
ATOM     15  C   LIG    1        0.198  -4.557  -0.956  0.00  0.00    +0.089 C 
ATOM     16  S   LIG    1        0.980  -4.316  -2.613  0.00  0.00    -0.140 S 
ATOM     17  C   LIG    1        1.143  -2.477  -2.497  0.00  0.00    +0.177 C 
ATOM     18  O   LIG    1        2.118  -1.123   0.665  0.00  0.00    -0.274 OA
ENDBRANCH  10  12
BRANCH   1  21
ATOM     19  C   LIG    1       -0.462   2.039   1.403  0.00  0.00    +0.032 C 
ATOM     20  C   LIG    1       -0.714   2.152  -0.103  0.00  0.00    +0.022 C 
ATOM     21  C   LIG    1        0.422   1.270   0.419  0.00  0.00    +0.083 C 
BRANCH  19  25
ATOM     22  C   LIG    1       -3.267  -0.209   3.710  0.00  0.00    +0.000 A 
ATOM     23  C   LIG    1       -2.285   0.530   4.344  0.00  0.00    +0.000 A 
ATOM     24  C   LIG    1       -1.377   1.257   3.597  0.00  0.00    +0.004 A 
ATOM     25  C   LIG    1       -1.451   1.246   2.217  0.00  0.00    -0.044 A 
ATOM     26  C   LIG    1       -2.437   0.512   1.583  0.00  0.00    +0.004 A 
ATOM     27  C   LIG    1       -3.341  -0.220   2.330  0.00  0.00    +0.000 A 
ENDBRANCH  19  25
ENDBRANCH   1  21
TORSDOF 3
