REMARK  Name = ZINC03650260
REMARK                            x       y       z     vdW  Elec       q    Type
REMARK                         _______ _______ _______ _____ _____    ______ ____
ROOT
ATOM      1  C   LIG    1       -0.318   1.777   3.848  0.00  0.00    -0.064 C 
ATOM      2  C   LIG    1       -0.325   3.301   3.682  0.00  0.00    -0.010 C 
ATOM      3  C   LIG    1       -0.880   3.923   4.961  0.00  0.00    +0.034 C 
ATOM      4  C   LIG    1       -0.163   3.380   6.169  0.00  0.00    -0.041 A 
ATOM      5  C   LIG    1       -0.275   4.088   7.360  0.00  0.00    +0.004 A 
ATOM      6  C   LIG    1        0.347   3.639   8.506  0.00  0.00    +0.004 A 
ATOM      7  C   LIG    1        1.090   2.475   8.475  0.00  0.00    +0.046 A 
ATOM      8  C   LIG    1        1.206   1.767   7.290  0.00  0.00    +0.123 A 
ATOM      9  C   LIG    1        0.579   2.222   6.132  0.00  0.00    -0.004 A 
ATOM     10  C   LIG    1        0.749   1.408   4.876  0.00  0.00    +0.024 C 
ENDROOT
BRANCH   1  11
ATOM     11  N   LIG    1        0.020   1.148   2.553  0.00  0.00    +0.382 N 
ATOM     12  H   LIG    1        0.974   1.421   2.289  0.00  0.00    -0.081 HD
BRANCH  11  13
ATOM     13  C   LIG    1       -0.917   1.609   1.508  0.00  0.00    -0.079 C 
BRANCH  13  15
ATOM     14  C   LIG    1       -3.314   1.940   0.884  0.00  0.00    +0.002 C 
ATOM     15  C   LIG    1       -2.365   1.389   1.950  0.00  0.00    -0.022 C 
ENDBRANCH  13  15
ENDBRANCH  11  13
BRANCH  11  16
ATOM     16  C   LIG    1       -0.043  -0.323   2.675  0.00  0.00    -0.079 C 
BRANCH  16  17
ATOM     17  C   LIG    1        0.735  -0.945   1.514  0.00  0.00    -0.022 C 
ATOM     18  C   LIG    1        0.632  -2.470   1.589  0.00  0.00    +0.002 C 
ENDBRANCH  16  17
ENDBRANCH  11  16
ENDBRANCH   1  11
BRANCH   8  19
ATOM     19  O   LIG    1        1.936   0.622   7.257  0.00  0.00    -0.495 OA
ATOM     20  C   LIG    1        2.554   0.210   8.479  0.00  0.00    +0.277 C 
ENDBRANCH   8  19
TORSDOF 6
