REMARK  Name = ZINC03812851
REMARK                            x       y       z     vdW  Elec       q    Type
REMARK                         _______ _______ _______ _____ _____    ______ ____
ROOT
ATOM      1  N   UNK A  1        0.705  -0.583  -1.095  0.00  0.00    +0.395 N 
ATOM      2  H   UNK A  1        0.283  -0.092  -1.869  0.00  0.00    -0.084 HD
ATOM      3  H   UNK A  1        0.574  -1.576  -1.215  0.00  0.00    -0.084 HD
ENDROOT
BRANCH   1   5
ATOM      4  C   UNK A  1       -1.446  -0.308   0.044  0.00  0.00    -0.004 C 
ATOM      5  C   UNK A  1        0.072  -0.153   0.160  0.00  0.00    +0.014 C 
BRANCH   5   6
ATOM      6  C   UNK A  1        0.579  -1.005   1.295  0.00  0.00    +0.202 C 
ATOM      7  N   PRO A  2        0.134  -0.791   2.549  0.00  0.00    -0.289 N 
ATOM      8  CD  PRO A  2       -0.849   0.233   2.949  0.00  0.00    +0.108 C 
ATOM      9  CG  PRO A  2       -0.562   0.494   4.448  0.00  0.00    +0.021 C 
ATOM     10  CB  PRO A  2       -0.201  -0.930   4.949  0.00  0.00    +0.035 C 
ATOM     11  CA  PRO A  2        0.542  -1.544   3.744  0.00  0.00    +0.184 C 
ATOM     12  O   UNK A  1        1.387  -1.883   1.080  0.00  0.00    -0.277 OA
BRANCH  11  13
ATOM     13  C   PRO A  2        0.164  -2.995   3.589  0.00  0.00    +0.325 C 
ATOM     14  O   PRO A  2        0.575  -3.820   4.387  0.00  0.00    -0.249 OA
BRANCH  13  15
ATOM     15  OXT PRO A  2       -0.554  -3.343   2.667  0.00  0.00    -0.479 OA
ATOM     16  HXT PRO A  2       -0.870  -2.708   2.054  0.00  0.00    +0.295 HD
ENDBRANCH  13  15
ENDBRANCH  11  13
ENDBRANCH   5   6
ENDBRANCH   1   5
BRANCH   1  17
ATOM     17  C   UNK A  1        2.142  -0.280  -1.047  0.00  0.00    +0.040 C 
BRANCH  17  18
ATOM     18  C   UNK A  1        2.340   1.214  -1.035  0.00  0.00    +0.291 C 
ATOM     19  O   UNK A  1        1.387   1.957  -1.196  0.00  0.00    -0.253 OA
BRANCH  18  20
ATOM     20  O   UNK A  1        3.454   1.679  -0.864  0.00  0.00    -0.482 OA
ATOM     21  H   UNK A  1        4.187   1.108  -0.740  0.00  0.00    +0.295 HD
ENDBRANCH  18  20
ENDBRANCH  17  18
BRANCH  17  22
ATOM     22  C   UNK A  1        2.829  -0.876  -2.277  0.00  0.00    -0.000 C 
BRANCH  22  23
ATOM     23  C   UNK A  1        2.735  -2.402  -2.225  0.00  0.00    +0.034 C 
BRANCH  23  24
ATOM     24  C   UNK A  1        3.412  -2.990  -3.436  0.00  0.00    -0.047 A 
ATOM     25  C   UNK A  1        2.689  -3.210  -4.593  0.00  0.00    +0.003 A 
ATOM     26  C   UNK A  1        3.310  -3.749  -5.705  0.00  0.00    +0.000 A 
ATOM     27  C   UNK A  1        4.655  -4.066  -5.659  0.00  0.00    +0.000 A 
ATOM     28  C   UNK A  1        5.378  -3.845  -4.502  0.00  0.00    +0.000 A 
ATOM     29  C   UNK A  1        4.758  -3.302  -3.392  0.00  0.00    +0.003 A 
ENDBRANCH  23  24
ENDBRANCH  22  23
ENDBRANCH  17  22
ENDBRANCH   1  17
TORSDOF 10
