REMARK  Name = ZINC03786250
REMARK                            x       y       z     vdW  Elec       q    Type
REMARK                         _______ _______ _______ _____ _____    ______ ____
ROOT
ATOM      1  C   LIG    1       -0.769  -5.497   4.564  0.00  0.00    +0.280 C 
ATOM      2  C   LIG    1        0.258  -6.226   5.387  0.00  0.00    +0.263 C 
ATOM      3  N   LIG    1        0.435  -5.962   6.679  0.00  0.00    -0.260 N 
ATOM      4  C   LIG    1       -0.238  -4.982   7.393  0.00  0.00    +0.046 A 
ATOM      5  C   LIG    1        0.501  -4.238   8.314  0.00  0.00    +0.024 A 
ATOM      6  C   LIG    1       -0.100  -3.249   9.062  0.00  0.00    +0.002 A 
ATOM      7  C   LIG    1       -1.450  -2.982   8.904  0.00  0.00    +0.001 A 
ATOM      8  C   LIG    1       -2.194  -3.705   8.001  0.00  0.00    +0.012 A 
ATOM      9  C   LIG    1       -1.596  -4.716   7.232  0.00  0.00    +0.022 A 
ATOM     10  C   LIG    1       -2.451  -5.445   6.282  0.00  0.00    +0.077 C 
ATOM     11  O   LIG    1        0.944  -7.075   4.858  0.00  0.00    -0.271 OA
ATOM     12  N   LIG    1       -2.100  -5.795   5.093  0.00  0.00    -0.251 NA
ENDROOT
BRANCH   1  16
ATOM     13  N   LIG    1       -0.345  -1.978   3.587  0.00  0.00    -0.269 N 
ATOM     14  H   LIG    1       -0.081  -1.573   4.428  0.00  0.00    +0.156 HD
ATOM     15  C   LIG    1       -0.571  -3.305   3.519  0.00  0.00    +0.306 C 
ATOM     16  N   LIG    1       -0.524  -4.055   4.638  0.00  0.00    -0.270 N 
ATOM     17  H   LIG    1       -0.328  -3.639   5.492  0.00  0.00    +0.153 HD
ATOM     18  O   LIG    1       -0.816  -3.826   2.448  0.00  0.00    -0.252 OA
BRANCH  13  24
ATOM     19  C   LIG    1       -2.665  -1.037  -0.644  0.00  0.00    +0.044 C 
ATOM     20  C   LIG    1       -1.608  -0.705   0.377  0.00  0.00    -0.049 A 
ATOM     21  C   LIG    1       -0.780   0.386   0.184  0.00  0.00    +0.003 A 
ATOM     22  C   LIG    1        0.192   0.694   1.118  0.00  0.00    +0.002 A 
ATOM     23  C   LIG    1        0.339  -0.088   2.247  0.00  0.00    +0.023 A 
ATOM     24  C   LIG    1       -0.491  -1.184   2.444  0.00  0.00    +0.035 A 
ATOM     25  C   LIG    1       -1.470  -1.487   1.506  0.00  0.00    +0.026 A 
ENDBRANCH  13  24
ENDBRANCH   1  16
BRANCH  10  26
ATOM     26  C   LIG    1       -3.818  -5.804   6.725  0.00  0.00    +0.001 A 
ATOM     27  C   LIG    1       -4.823  -6.029   5.785  0.00  0.00    +0.010 A 
ATOM     28  C   LIG    1       -6.094  -6.363   6.204  0.00  0.00    +0.001 A 
ATOM     29  C   LIG    1       -6.373  -6.474   7.554  0.00  0.00    +0.000 A 
ATOM     30  C   LIG    1       -5.381  -6.252   8.492  0.00  0.00    +0.001 A 
ATOM     31  C   LIG    1       -4.104  -5.923   8.085  0.00  0.00    +0.010 A 
ENDBRANCH  10  26
BRANCH   3  32
ATOM     32  C   LIG    1        1.418  -6.770   7.405  0.00  0.00    +0.193 C 
BRANCH  32  33
ATOM     33  C   LIG    1        2.770  -6.110   7.324  0.00  0.00    +0.181 C 
ATOM     34  O   LIG    1        2.900  -5.067   6.719  0.00  0.00    -0.290 OA
BRANCH  33  35
ATOM     35  C   LIG    1        3.933  -6.731   7.978  0.00  0.00    +0.022 A 
ATOM     36  C   LIG    1        3.764  -7.859   8.787  0.00  0.00    +0.012 A 
ATOM     37  C   LIG    1        4.859  -8.435   9.397  0.00  0.00    +0.001 A 
ATOM     38  C   LIG    1        6.122  -7.900   9.209  0.00  0.00    +0.000 A 
ATOM     39  C   LIG    1        6.296  -6.784   8.411  0.00  0.00    +0.004 A 
ATOM     40  C   LIG    1        5.212  -6.199   7.790  0.00  0.00    -0.040 A 
ATOM     41  C   LIG    1        5.405  -4.987   6.915  0.00  0.00    +0.044 C 
ENDBRANCH  33  35
ENDBRANCH  32  33
ENDBRANCH   3  32
TORSDOF 6
