REMARK  Name = ZINC03869510
REMARK                            x       y       z     vdW  Elec       q    Type
REMARK                         _______ _______ _______ _____ _____    ______ ____
ROOT
ATOM      1  O   LIG    1       -4.877   1.200   0.030  0.00  0.00    -0.418 OA
ENDROOT
BRANCH   1   2
ATOM      2  C   LIG    1       -3.708   1.895   0.020  0.00  0.00    +0.178 A 
ATOM      3  C   LIG    1       -3.140   2.310   1.210  0.00  0.00    +0.065 A 
ATOM      4  C   LIG    1       -1.942   3.028   1.198  0.00  0.00    +0.066 A 
ATOM      5  C   LIG    1       -1.315   3.317  -0.018  0.00  0.00    +0.064 A 
ATOM      6  C   LIG    1       -1.884   2.896  -1.204  0.00  0.00    +0.163 A 
ATOM      7  C   LIG    1       -3.082   2.184  -1.190  0.00  0.00    +0.202 A 
BRANCH   4   8
ATOM      8  C   LIG    1       -1.336   3.476   2.466  0.00  0.00    +0.337 C 
ATOM      9  O   LIG    1       -1.882   3.224   3.522  0.00  0.00    -0.245 OA
BRANCH   8  10
ATOM     10  O   LIG    1       -0.175   4.159   2.454  0.00  0.00    -0.477 OA
ATOM     11  H   LIG    1        0.246   4.353   1.639  0.00  0.00    +0.295 HD
ENDBRANCH   8  10
ENDBRANCH   4   8
BRANCH   6  12
ATOM     12  O   LIG    1       -1.274   3.176  -2.387  0.00  0.00    -0.503 OA
ATOM     13  H   LIG    1       -0.647   2.499  -2.676  0.00  0.00    +0.292 HD
ENDBRANCH   6  12
BRANCH   7  14
ATOM     14  O   LIG    1       -3.639   1.772  -2.358  0.00  0.00    -0.501 OA
ATOM     15  H   LIG    1       -3.350   0.894  -2.644  0.00  0.00    +0.292 HD
ENDBRANCH   7  14
ENDBRANCH   1   2
BRANCH   1  16
ATOM     16  C   LIG    1       -4.793  -0.140  -0.082  0.00  0.00    +0.345 C 
ATOM     17  O   LIG    1       -3.706  -0.682  -0.087  0.00  0.00    -0.245 OA
BRANCH  16  19
ATOM     18  C   LIG    1       -5.936  -2.338  -0.316  0.00  0.00    +0.064 A 
ATOM     19  C   LIG    1       -6.021  -0.948  -0.199  0.00  0.00    +0.067 A 
ATOM     20  C   LIG    1       -7.273  -0.326  -0.188  0.00  0.00    +0.064 A 
ATOM     21  C   LIG    1       -8.422  -1.085  -0.302  0.00  0.00    +0.163 A 
ATOM     22  C   LIG    1       -8.334  -2.470  -0.418  0.00  0.00    +0.201 A 
ATOM     23  C   LIG    1       -7.088  -3.093  -0.424  0.00  0.00    +0.163 A 
BRANCH  21  24
ATOM     24  O   LIG    1       -9.640  -0.480  -0.296  0.00  0.00    -0.503 OA
ATOM     25  H   LIG    1      -10.025  -0.381   0.585  0.00  0.00    +0.292 HD
ENDBRANCH  21  24
BRANCH  22  26
ATOM     26  O   LIG    1       -9.465  -3.215  -0.524  0.00  0.00    -0.501 OA
ATOM     27  H   LIG    1       -9.826  -3.507   0.324  0.00  0.00    +0.292 HD
ENDBRANCH  22  26
BRANCH  23  28
ATOM     28  O   LIG    1       -7.006  -4.446  -0.538  0.00  0.00    -0.503 OA
ATOM     29  H   LIG    1       -7.016  -4.913   0.309  0.00  0.00    +0.292 HD
ENDBRANCH  23  28
ENDBRANCH  16  19
ENDBRANCH   1  16
TORSDOF 10
