REMARK  Name = ZINC03812548
REMARK                            x       y       z     vdW  Elec       q    Type
REMARK                         _______ _______ _______ _____ _____    ______ ____
ROOT
ATOM      1  N   LIG    1        6.937   0.035  -1.907  0.00  0.00    +0.382 N 
ATOM      2  H   LIG    1        6.947   1.028  -1.724  0.00  0.00    -0.082 HD
ATOM      3  C   LIG    1        6.465  -0.201  -3.277  0.00  0.00    -0.060 C 
ATOM      4  C   LIG    1        7.340   0.584  -4.261  0.00  0.00    +0.086 C 
ATOM      5  N   LIG    1        8.745   0.214  -4.031  0.00  0.00    -0.333 N 
ATOM      6  C   LIG    1        9.259   0.265  -2.654  0.00  0.00    +0.086 C 
ATOM      7  C   LIG    1        8.293  -0.504  -1.746  0.00  0.00    -0.060 C 
ENDROOT
BRANCH   5   8
ATOM      8  C   LIG    1        9.568  -0.173  -5.091  0.00  0.00    +0.030 A 
ATOM      9  C   LIG    1        9.038  -0.323  -6.366  0.00  0.00    +0.025 A 
ATOM     10  C   LIG    1        9.855  -0.705  -7.411  0.00  0.00    +0.030 A 
ATOM     11  C   LIG    1       11.200  -0.940  -7.190  0.00  0.00    +0.105 A 
ATOM     12  C   LIG    1       11.731  -0.792  -5.922  0.00  0.00    +0.030 A 
ATOM     13  C   LIG    1       10.921  -0.404  -4.873  0.00  0.00    +0.025 A 
BRANCH  11  14
ATOM     14  S   LIG    1       12.238  -1.429  -8.527  0.00  0.00    +0.056 S 
ATOM     15  O   LIG    1       11.393  -2.026  -9.501  0.00  0.00    -0.153 OA
ATOM     16  O   LIG    1       13.342  -2.115  -7.953  0.00  0.00    -0.153 OA
BRANCH  14  17
ATOM     17  N   LIG    1       12.842  -0.046  -9.209  0.00  0.00    -0.204 NA
ATOM     18  H   LIG    1       13.443  -0.102  -9.969  0.00  0.00    +0.144 HD
ATOM     19  H   LIG    1       12.596   0.820  -8.848  0.00  0.00    +0.144 HD
ENDBRANCH  14  17
ENDBRANCH  11  14
ENDBRANCH   5   8
BRANCH   1  20
ATOM     20  C   LIG    1        6.032  -0.627  -0.958  0.00  0.00    -0.076 C 
BRANCH  20  21
ATOM     21  C   LIG    1        4.648   0.019  -1.038  0.00  0.00    +0.018 C 
BRANCH  21  30
ATOM     22  C   LIG    1       -0.019   1.427  -0.011  0.00  0.00    +0.000 A 
ATOM     23  C   LIG    1        1.177   2.121  -0.010  0.00  0.00    +0.000 A 
ATOM     24  C   LIG    1        2.372   1.431  -0.023  0.00  0.00    +0.006 A 
ATOM     25  C   LIG    1        2.380   0.045  -0.040  0.00  0.00    -0.016 A 
ATOM     26  C   LIG    1        1.187  -0.647  -0.045  0.00  0.00    -0.040 A 
ATOM     27  C   LIG    1        1.155  -2.153  -0.077  0.00  0.00    +0.063 C 
ATOM     28  C   LIG    1        2.522  -2.709   0.325  0.00  0.00    +0.165 C 
ATOM     29  O   LIG    1        3.529  -2.033  -0.437  0.00  0.00    -0.372 OA
ATOM     30  C   LIG    1        3.706  -0.671  -0.049  0.00  0.00    +0.147 C 
ATOM     31  C   LIG    1       -0.013   0.046  -0.028  0.00  0.00    +0.004 A 
ENDBRANCH  21  30
ENDBRANCH  20  21
ENDBRANCH   1  20
TORSDOF 6
