REMARK  Name = ZINC03847474
REMARK                            x       y       z     vdW  Elec       q    Type
REMARK                         _______ _______ _______ _____ _____    ______ ____
ROOT
ATOM      1  C   LIG    1        1.245   2.071  -0.141  0.00  0.00    +0.036 A 
ATOM      2  C   LIG    1        1.133   1.444   1.098  0.00  0.00    +0.012 A 
ATOM      3  C   LIG    1        1.122   0.065   1.176  0.00  0.00    +0.001 A 
ATOM      4  C   LIG    1        1.222  -0.703   0.029  0.00  0.00    +0.001 A 
ATOM      5  C   LIG    1        1.335  -0.099  -1.210  0.00  0.00    +0.016 A 
ATOM      6  C   LIG    1        1.348   1.290  -1.308  0.00  0.00    +0.070 A 
ENDROOT
BRANCH   1   7
ATOM      7  C   LIG    1        1.258   3.547  -0.229  0.00  0.00    +0.194 C 
ATOM      8  O   LIG    1        0.221   4.171  -0.115  0.00  0.00    -0.287 OA
BRANCH   7  13
ATOM      9  C   LIG    1        6.213   6.334  -1.115  0.00  0.00    +0.044 C 
ATOM     10  C   LIG    1        4.915   5.604  -0.883  0.00  0.00    -0.050 A 
ATOM     11  C   LIG    1        3.750   6.321  -0.672  0.00  0.00    +0.004 A 
ATOM     12  C   LIG    1        2.559   5.659  -0.459  0.00  0.00    +0.012 A 
ATOM     13  C   LIG    1        2.530   4.262  -0.457  0.00  0.00    +0.022 A 
ATOM     14  C   LIG    1        3.711   3.545  -0.666  0.00  0.00    +0.012 A 
ATOM     15  C   LIG    1        4.894   4.220  -0.882  0.00  0.00    +0.004 A 
ENDBRANCH   7  13
ENDBRANCH   1   7
BRANCH   6  16
ATOM     16  C   LIG    1        1.474   1.941  -2.629  0.00  0.00    +0.337 C 
ATOM     17  O   LIG    1        1.380   3.148  -2.723  0.00  0.00    -0.245 OA
BRANCH  16  18
ATOM     18  O   LIG    1        1.694   1.195  -3.729  0.00  0.00    -0.477 OA
ATOM     19  H   LIG    1        1.767   0.264  -3.657  0.00  0.00    +0.295 HD
ENDBRANCH  16  18
ENDBRANCH   6  16
TORSDOF 4
