REMARK  Name = ZINC03789195
REMARK                            x       y       z     vdW  Elec       q    Type
REMARK                         _______ _______ _______ _____ _____    ______ ____
ROOT
ATOM      1  C   LIG    1        0.052   1.516  -0.001  0.00  0.00    +0.012 C 
ATOM      2  C   LIG    1        0.060  -0.011  -0.004  0.00  0.00    -0.023 C 
ATOM      3  C   LIG    1       -1.384  -0.518   0.068  0.00  0.00    +0.010 C 
ATOM      4  C   LIG    1       -2.007  -0.093   1.396  0.00  0.00    +0.032 C 
ATOM      5  C   LIG    1       -1.247  -0.715   2.558  0.00  0.00    +0.123 C 
ATOM      6  C   LIG    1        0.244  -0.384   2.530  0.00  0.00    +0.020 C 
ATOM      7  C   LIG    1        0.478   1.023   3.079  0.00  0.00    +0.016 C 
ATOM      8  C   LIG    1        0.711  -0.512  -1.285  0.00  0.00    -0.020 C 
ATOM      9  C   LIG    1        0.660  -2.034  -1.350  0.00  0.00    +0.010 C 
ATOM     10  C   LIG    1        1.402  -2.621  -2.542  0.00  0.00    +0.038 C 
ATOM     11  C   LIG    1        1.065  -1.883  -3.841  0.00  0.00    +0.092 C 
ATOM     12  C   LIG    1        1.284  -0.374  -3.593  0.00  0.00    +0.024 C 
ATOM     13  C   LIG    1        2.603  -0.268  -2.773  0.00  0.00    +0.010 C 
ATOM     14  C   LIG    1        0.151   0.049  -2.600  0.00  0.00    +0.014 C 
ATOM     15  C   LIG    1        2.163   0.009  -1.338  0.00  0.00    -0.004 C 
ATOM     16  C   LIG    1        2.959  -0.640  -0.227  0.00  0.00    +0.004 C 
ATOM     17  C   LIG    1        2.327  -0.182   1.105  0.00  0.00    +0.005 C 
ATOM     18  C   LIG    1        0.859  -0.592   1.162  0.00  0.00    +0.006 C 
ENDROOT
BRANCH   5  19
ATOM     19  O   LIG    1       -1.417  -2.137   2.535  0.00  0.00    -0.391 OA
ATOM     20  H   LIG    1       -2.337  -2.424   2.610  0.00  0.00    +0.210 HD
ENDBRANCH   5  19
BRANCH  11  21
ATOM     21  O   LIG    1       -0.298  -2.135  -4.204  0.00  0.00    -0.386 OA
ATOM     22  H   LIG    1       -0.500  -3.069  -4.351  0.00  0.00    +0.210 HD
ENDBRANCH  11  21
BRANCH   6  23
ATOM     23  C   LIG    1        0.925  -1.371   3.513  0.00  0.00    +0.165 C 
BRANCH  23  24
ATOM     24  O   LIG    1        0.383  -1.189   4.822  0.00  0.00    -0.394 OA
ATOM     25  H   LIG    1        0.764  -1.775   5.491  0.00  0.00    +0.209 HD
ENDBRANCH  23  24
ENDBRANCH   6  23
BRANCH  11  26
ATOM     26  C   LIG    1        1.979  -2.370  -4.973  0.00  0.00    +0.190 C 
BRANCH  26  27
ATOM     27  O   LIG    1        1.790  -3.773  -5.167  0.00  0.00    -0.392 OA
ATOM     28  H   LIG    1        2.337  -4.150  -5.869  0.00  0.00    +0.210 HD
ENDBRANCH  26  27
ENDBRANCH  11  26
TORSDOF 6
