REMARK  Name = ZINC03860533
REMARK                            x       y       z     vdW  Elec       q    Type
REMARK                         _______ _______ _______ _____ _____    ______ ____
ROOT
ATOM      1  C   LIG    1       -1.109   0.331  -4.464  0.00  0.00    +0.074 C 
ATOM      2  C   LIG    1       -0.724   0.291  -2.984  0.00  0.00    +0.166 C 
ATOM      3  C   LIG    1        0.530   1.140  -2.761  0.00  0.00    +0.074 C 
ATOM      4  O   LIG    1       -1.797   0.812  -2.197  0.00  0.00    -0.341 OA
ATOM      5  C   LIG    1       -2.479  -0.310  -1.602  0.00  0.00    +0.186 C 
ATOM      6  C   LIG    1       -2.688   0.007  -0.108  0.00  0.00    +0.178 C 
ATOM      7  O   LIG    1       -1.851  -0.868   0.653  0.00  0.00    -0.346 OA
ATOM      8  C   LIG    1       -0.806  -1.367  -0.195  0.00  0.00    +0.254 C 
ATOM      9  C   LIG    1       -1.413  -1.438  -1.605  0.00  0.00    +0.202 C 
ATOM     10  O   LIG    1       -0.459  -1.059  -2.596  0.00  0.00    -0.339 OA
ENDROOT
BRANCH   8  11
ATOM     11  N   LIG    1        0.338  -0.451  -0.182  0.00  0.00    -0.286 N 
ATOM     12  C   LIG    1        0.329   0.844   0.244  0.00  0.00    +0.203 A 
ATOM     13  N   LIG    1        1.516   1.362   0.115  0.00  0.00    -0.231 NA
ATOM     14  C   LIG    1        2.359   0.435  -0.399  0.00  0.00    +0.147 A 
ATOM     15  C   LIG    1        3.721   0.422  -0.745  0.00  0.00    +0.147 A 
ATOM     16  N   LIG    1        4.238  -0.698  -1.240  0.00  0.00    -0.219 NA
ATOM     17  C   LIG    1        3.497  -1.778  -1.407  0.00  0.00    +0.225 A 
ATOM     18  N   LIG    1        2.217  -1.812  -1.098  0.00  0.00    -0.216 NA
ATOM     19  C   LIG    1        1.613  -0.740  -0.596  0.00  0.00    +0.167 A 
BRANCH  15  20
ATOM     20  N   LIG    1        4.506   1.549  -0.574  0.00  0.00    -0.341 N 
ATOM     21  H   LIG    1        5.445   1.528  -0.816  0.00  0.00    +0.144 HD
ATOM     22  H   LIG    1        4.133   2.301  -1.118  0.00  0.00    +0.144 HD
ENDBRANCH  15  20
ENDBRANCH   8  11
BRANCH   6  23
ATOM     23  C   LIG    1       -4.153  -0.221   0.269  0.00  0.00    +0.190 C 
BRANCH  23  24
ATOM     24  O   LIG    1       -4.366   0.186   1.622  0.00  0.00    -0.392 OA
ATOM     25  H   LIG    1       -5.275   0.069   1.930  0.00  0.00    +0.210 HD
ENDBRANCH  23  24
ENDBRANCH   6  23
TORSDOF 4
