REMARK  Name = ZINC03870318
REMARK                            x       y       z     vdW  Elec       q    Type
REMARK                         _______ _______ _______ _____ _____    ______ ____
ROOT
ATOM      1  N   LIG    1       -1.317  -1.695  -1.150  0.00  0.00    -0.298 NA
ATOM      2  C   LIG    1       -1.179  -0.990  -2.414  0.00  0.00    +0.089 C 
ATOM      3  C   LIG    1       -0.759  -1.951  -3.531  0.00  0.00    +0.052 C 
ATOM      4  C   LIG    1       -2.006  -2.607  -4.088  0.00  0.00    -0.020 A 
ATOM      5  C   LIG    1       -2.704  -3.509  -3.323  0.00  0.00    -0.030 A 
ATOM      6  C   LIG    1       -2.222  -3.845  -1.927  0.00  0.00    +0.063 C 
ATOM      7  C   LIG    1       -3.844  -4.115  -3.819  0.00  0.00    +0.053 A 
ATOM      8  C   LIG    1       -4.283  -3.808  -5.098  0.00  0.00    +0.160 A 
ATOM      9  C   LIG    1       -3.577  -2.894  -5.874  0.00  0.00    +0.177 A 
ATOM     10  C   LIG    1       -2.435  -2.292  -5.366  0.00  0.00    +0.089 A 
ATOM     11 CL   LIG    1       -1.548  -1.150  -6.327  0.00  0.00    -0.079 Cl
ATOM     12  C   LIG    1       -2.435  -2.617  -1.036  0.00  0.00    +0.097 C 
ENDROOT
BRANCH   6  13
ATOM     13  C   LIG    1       -0.758  -4.198  -1.966  0.00  0.00    -0.039 A 
ATOM     14  C   LIG    1        0.062  -3.864  -0.904  0.00  0.00    +0.004 A 
ATOM     15  C   LIG    1        1.405  -4.188  -0.940  0.00  0.00    +0.000 A 
ATOM     16  C   LIG    1        1.929  -4.847  -2.037  0.00  0.00    +0.000 A 
ATOM     17  C   LIG    1        1.108  -5.182  -3.098  0.00  0.00    +0.000 A 
ATOM     18  C   LIG    1       -0.236  -4.862  -3.060  0.00  0.00    +0.004 A 
ENDBRANCH   6  13
BRANCH   8  19
ATOM     19  O   LIG    1       -5.403  -4.399  -5.594  0.00  0.00    -0.503 OA
ATOM     20  H   LIG    1       -6.218  -3.913  -5.410  0.00  0.00    +0.292 HD
ENDBRANCH   8  19
BRANCH   9  21
ATOM     21  O   LIG    1       -4.006  -2.591  -7.129  0.00  0.00    -0.502 OA
ATOM     22  H   LIG    1       -4.622  -1.847  -7.165  0.00  0.00    +0.292 HD
ENDBRANCH   9  21
BRANCH   1  23
ATOM     23  C   LIG    1       -1.289  -0.758  -0.019  0.00  0.00    +0.111 C 
BRANCH  23  25
ATOM     24  C   LIG    1       -0.013   1.323  -0.042  0.00  0.00    +0.005 C 
ATOM     25  C   LIG    1        0.005   0.014  -0.037  0.00  0.00    -0.019 C 
ENDBRANCH  23  25
ENDBRANCH   1  23
TORSDOF 5
