REMARK  Name = ZINC03805142
REMARK                            x       y       z     vdW  Elec       q    Type
REMARK                         _______ _______ _______ _____ _____    ______ ____
ROOT
ATOM      1  O   LIG    1        2.288   1.099   2.181  0.00  0.00    -0.492 OA
ENDROOT
BRANCH   1   4
ATOM      2  C   LIG    1        3.640   0.911   5.551  0.00  0.00    +0.023 A 
ATOM      3  C   LIG    1        3.216   0.499   4.298  0.00  0.00    +0.048 A 
ATOM      4  C   LIG    1        2.716   1.456   3.421  0.00  0.00    +0.138 A 
ATOM      5  C   LIG    1        2.665   2.781   3.828  0.00  0.00    +0.156 A 
ATOM      6  N   LIG    1        3.073   3.131   5.032  0.00  0.00    -0.260 NA
ATOM      7  C   LIG    1        3.553   2.249   5.886  0.00  0.00    +0.111 A 
ENDBRANCH   1   4
BRANCH   1   8
ATOM      8  C   LIG    1        1.789   2.142   1.342  0.00  0.00    +0.213 C 
BRANCH   8   9
ATOM      9  C   LIG    1        1.358   1.552  -0.003  0.00  0.00    -0.035 C 
ATOM     10  N   LIG    1        0.068   1.076  -0.083  0.00  0.00    +0.383 N 
ATOM     11  H   LIG    1        0.018   0.053  -0.016  0.00  0.00    -0.085 HD
ATOM     12  H   LIG    1       -0.554   1.496   0.617  0.00  0.00    -0.085 HD
ATOM     13  C   LIG    1       -0.175   1.539  -1.357  0.00  0.00    -0.084 C 
ATOM     14  C   LIG    1        0.869   2.607  -1.005  0.00  0.00    -0.032 C 
ENDBRANCH   8   9
ENDBRANCH   1   8
TORSDOF 3
