REMARK  Name = ZINC03830713
REMARK                            x       y       z     vdW  Elec       q    Type
REMARK                         _______ _______ _______ _____ _____    ______ ____
ROOT
ATOM      1  C   LIG    1        3.809  -5.851  -5.469  0.00  0.00    +0.051 C 
ATOM      2  C   LIG    1        5.282  -5.518  -5.819  0.00  0.00    +0.129 C 
ATOM      3  C   LIG    1        5.620  -6.593  -6.882  0.00  0.00    +0.106 C 
ATOM      4  C   LIG    1        4.905  -7.842  -6.398  0.00  0.00    +0.140 C 
ATOM      5  O   LIG    1        5.196  -8.983  -6.668  0.00  0.00    -0.297 OA
ATOM      6  C   LIG    1        3.757  -7.393  -5.514  0.00  0.00    +0.068 C 
ENDROOT
BRANCH   1   8
ATOM      7  C   LIG    1        2.462  -4.527  -3.922  0.00  0.00    -0.000 C 
ATOM      8  C   LIG    1        3.467  -5.351  -4.089  0.00  0.00    -0.022 C 
BRANCH   7   9
ATOM      9  C   LIG    1        2.119  -4.026  -2.542  0.00  0.00    +0.137 C 
BRANCH   9  10
ATOM     10  O   LIG    1        3.097  -4.494  -1.610  0.00  0.00    -0.388 OA
ATOM     11  H   LIG    1        3.997  -4.201  -1.804  0.00  0.00    +0.210 HD
ENDBRANCH   9  10
BRANCH   9  12
ATOM     12  C   LIG    1        2.106  -2.497  -2.544  0.00  0.00    +0.035 C 
BRANCH  12  13
ATOM     13  C   LIG    1        1.638  -1.989  -1.178  0.00  0.00    +0.003 C 
BRANCH  13  14
ATOM     14  C   LIG    1        1.625  -0.459  -1.180  0.00  0.00    -0.000 C 
BRANCH  14  16
ATOM     15  C   LIG    1        1.143   1.578   0.184  0.00  0.00    +0.004 C 
ATOM     16  C   LIG    1        1.157   0.048   0.186  0.00  0.00    -0.003 C 
ENDBRANCH  14  16
ENDBRANCH  13  14
ENDBRANCH  12  13
ENDBRANCH   9  12
ENDBRANCH   7   9
ENDBRANCH   1   8
BRANCH   2  17
ATOM     17  O   LIG    1        5.388  -4.203  -6.368  0.00  0.00    -0.391 OA
ATOM     18  H   LIG    1        6.290  -3.947  -6.604  0.00  0.00    +0.210 HD
ENDBRANCH   2  17
BRANCH   6  19
ATOM     19  C   LIG    1        2.425  -7.854  -6.107  0.00  0.00    +0.038 C 
BRANCH  19  20
ATOM     20  C   LIG    1        2.335  -9.356  -6.034  0.00  0.00    -0.030 C 
ATOM     21  C   LIG    1        1.289  -9.924  -5.486  0.00  0.00    -0.031 C 
BRANCH  21  22
ATOM     22  C   LIG    1        0.102  -9.087  -5.083  0.00  0.00    +0.027 C 
BRANCH  22  23
ATOM     23  C   LIG    1       -1.166  -9.660  -5.721  0.00  0.00    +0.015 C 
BRANCH  23  24
ATOM     24  C   LIG    1       -2.371  -8.810  -5.312  0.00  0.00    +0.121 C 
BRANCH  24  25
ATOM     25  C   LIG    1       -3.619  -9.374  -5.940  0.00  0.00    +0.305 C 
ATOM     26  O   LIG    1       -3.551 -10.364  -6.649  0.00  0.00    -0.251 OA
BRANCH  25  27
ATOM     27  O   LIG    1       -4.697  -8.841  -5.739  0.00  0.00    -0.481 OA
ATOM     28  H   LIG    1       -4.749  -8.080  -5.195  0.00  0.00    +0.295 HD
ENDBRANCH  25  27
ENDBRANCH  24  25
ENDBRANCH  23  24
ENDBRANCH  22  23
ENDBRANCH  21  22
ENDBRANCH  19  20
ENDBRANCH   6  19
TORSDOF 15
