REMARK  Name = ZINC03716177
REMARK                            x       y       z     vdW  Elec       q    Type
REMARK                         _______ _______ _______ _____ _____    ______ ____
ROOT
ATOM      1  C   LIG    1       -0.013   1.076   0.008  0.00  0.00    +0.001 A 
ATOM      2  C   LIG    1       -1.235   1.746   0.018  0.00  0.00    +0.001 A 
ATOM      3  C   LIG    1       -1.288   3.105   0.031  0.00  0.00    +0.008 A 
ATOM      4  C   LIG    1       -0.095   3.848   0.024  0.00  0.00    -0.016 A 
ATOM      5  C   LIG    1       -0.112   5.253   0.031  0.00  0.00    +0.031 A 
ATOM      6  C   LIG    1        1.078   5.946   0.023  0.00  0.00    +0.030 A 
ATOM      7  C   LIG    1        2.301   5.265   0.008  0.00  0.00    +0.024 A 
ATOM      8  C   LIG    1        2.344   3.907   0.000  0.00  0.00    +0.010 A 
ATOM      9  C   LIG    1        1.149   3.167   0.008  0.00  0.00    -0.018 A 
ATOM     10  C   LIG    1        1.163   1.762   0.000  0.00  0.00    +0.008 A 
ENDROOT
BRANCH   6  11
ATOM     11  N   LIG    1        1.064   7.342   0.030  0.00  0.00    -0.333 N 
ATOM     12  C   LIG    1        0.307   7.856   1.180  0.00  0.00    +0.086 C 
ATOM     13  C   LIG    1        0.249   9.383   1.108  0.00  0.00    -0.063 C 
ATOM     14  N   LIG    1        1.619   9.930   1.104  0.00  0.00    +0.381 N 
ATOM     15  H   LIG    1        1.575  10.954   1.048  0.00  0.00    -0.086 HD
ATOM     16  H   LIG    1        2.096   9.654   1.970  0.00  0.00    -0.086 HD
ATOM     17  C   LIG    1        2.373   9.410  -0.053  0.00  0.00    -0.063 C 
ATOM     18  C   LIG    1        2.431   7.882   0.019  0.00  0.00    +0.086 C 
ENDBRANCH   6  11
TORSDOF 1
