REMARK  Name = ZINC03819618
REMARK                            x       y       z     vdW  Elec       q    Type
REMARK                         _______ _______ _______ _____ _____    ______ ____
ROOT
ATOM      1  C   LIG    1        3.556   4.417   0.106  0.00  0.00    +0.097 C 
ATOM      2  C   LIG    1        3.144   5.484   0.863  0.00  0.00    +0.095 C 
ATOM      3  N   LIG    1        2.127   5.295   1.756  0.00  0.00    -0.272 N 
ATOM      4  C   LIG    1        2.436   5.152   3.060  0.00  0.00    +0.251 C 
ATOM      5  O   LIG    1        1.550   5.067   3.888  0.00  0.00    -0.270 OA
ATOM      6  C   LIG    1        0.719   5.242   1.362  0.00  0.00    +0.124 C 
ATOM      7  C   LIG    1        0.563   4.364   0.113  0.00  0.00    +0.009 C 
ATOM      8  C   LIG    1       -0.901   3.948  -0.043  0.00  0.00    +0.017 C 
ATOM      9  C   LIG    1        1.006   5.150  -1.123  0.00  0.00    +0.017 C 
ATOM     10  C   LIG    1        1.422   3.137   0.264  0.00  0.00    -0.007 A 
ATOM     11  C   LIG    1        1.015   1.753   0.450  0.00  0.00    +0.004 A 
ATOM     12  C   LIG    1       -0.219   1.105   0.558  0.00  0.00    +0.010 A 
ATOM     13  C   LIG    1       -0.265  -0.248   0.735  0.00  0.00    +0.001 A 
ATOM     14  C   LIG    1        0.906  -0.990   0.809  0.00  0.00    +0.002 A 
ATOM     15  C   LIG    1        2.135  -0.373   0.704  0.00  0.00    +0.026 A 
ATOM     16  C   LIG    1        2.207   1.002   0.524  0.00  0.00    +0.047 A 
ATOM     17  N   LIG    1        3.263   1.883   0.390  0.00  0.00    -0.354 N 
ATOM     18  H   LIG    1        4.201   1.635   0.395  0.00  0.00    +0.166 HD
ATOM     19  C   LIG    1        2.785   3.158   0.247  0.00  0.00    +0.059 A 
ENDROOT
BRANCH   4  20
ATOM     20  C   LIG    1        3.849   5.099   3.482  0.00  0.00    +0.040 A 
ATOM     21  C   LIG    1        4.781   5.980   2.927  0.00  0.00    +0.016 A 
ATOM     22  C   LIG    1        6.098   5.931   3.329  0.00  0.00    +0.042 A 
ATOM     23  C   LIG    1        6.503   5.002   4.275  0.00  0.00    +0.158 A 
ATOM     24  F   LIG    1        7.797   4.955   4.661  0.00  0.00    -0.202 F 
ATOM     25  C   LIG    1        5.584   4.120   4.827  0.00  0.00    +0.159 A 
ATOM     26  F   LIG    1        5.985   3.217   5.748  0.00  0.00    -0.202 F 
ATOM     27  C   LIG    1        4.261   4.165   4.435  0.00  0.00    +0.054 A 
ENDBRANCH   4  20
BRANCH   1  28
ATOM     28  C   LIG    1        4.706   4.516  -0.800  0.00  0.00    +0.342 C 
ATOM     29  O   LIG    1        5.318   5.562  -0.894  0.00  0.00    -0.245 OA
BRANCH  28  30
ATOM     30  O   LIG    1        5.084   3.446  -1.530  0.00  0.00    -0.461 OA
BRANCH  30  32
ATOM     31  C   LIG    1        6.506   2.306  -3.145  0.00  0.00    +0.048 C 
ATOM     32  C   LIG    1        6.230   3.617  -2.405  0.00  0.00    +0.229 C 
ENDBRANCH  30  32
ENDBRANCH  28  30
ENDBRANCH   1  28
TORSDOF 4
