REMARK  Name = ZINC03871723
REMARK                            x       y       z     vdW  Elec       q    Type
REMARK                         _______ _______ _______ _____ _____    ______ ____
ROOT
ATOM      1  C   LIG    1        3.407  -1.371  -0.418  0.00  0.00    -0.018 A 
ATOM      2  C   LIG    1        4.032  -1.414   0.827  0.00  0.00    +0.009 A 
ATOM      3  C   LIG    1        5.332  -1.867   0.929  0.00  0.00    +0.006 A 
ATOM      4  C   LIG    1        6.015  -2.276  -0.202  0.00  0.00    -0.020 A 
ATOM      5  C   LIG    1        5.400  -2.234  -1.441  0.00  0.00    +0.006 A 
ATOM      6  C   LIG    1        4.098  -1.790  -1.553  0.00  0.00    +0.009 A 
ENDROOT
BRANCH   1  10
ATOM      7  C   LIG    1       -0.598   0.019  -0.749  0.00  0.00    +0.000 A 
ATOM      8  C   LIG    1        0.019  -0.017   0.488  0.00  0.00    +0.001 A 
ATOM      9  C   LIG    1        1.319  -0.467   0.602  0.00  0.00    +0.008 A 
ATOM     10  C   LIG    1        2.010  -0.886  -0.533  0.00  0.00    -0.018 A 
ATOM     11  C   LIG    1        1.383  -0.848  -1.778  0.00  0.00    +0.008 A 
ATOM     12  C   LIG    1        0.084  -0.395  -1.879  0.00  0.00    +0.001 A 
ENDBRANCH   1  10
BRANCH   4  13
ATOM     13  C   LIG    1        7.434  -2.768  -0.085  0.00  0.00    +0.148 C 
BRANCH  13  14
ATOM     14  C   LIG    1        7.591  -3.549   1.194  0.00  0.00    -0.020 A 
ATOM     15  C   LIG    1        6.734  -4.598   1.473  0.00  0.00    +0.006 A 
ATOM     16  C   LIG    1        6.878  -5.314   2.646  0.00  0.00    +0.000 A 
ATOM     17  C   LIG    1        7.878  -4.983   3.541  0.00  0.00    +0.000 A 
ATOM     18  C   LIG    1        8.736  -3.935   3.261  0.00  0.00    +0.000 A 
ATOM     19  C   LIG    1        8.595  -3.221   2.086  0.00  0.00    +0.006 A 
ENDBRANCH  13  14
BRANCH  13  20
ATOM     20  N   LIG    1        7.747  -3.632  -1.226  0.00  0.00    -0.325 N 
ATOM     21  C   LIG    1        8.737  -3.430  -2.150  0.00  0.00    +0.107 A 
ATOM     22  C   LIG    1        8.675  -4.457  -3.018  0.00  0.00    +0.130 A 
ATOM     23  N   LIG    1        7.674  -5.264  -2.636  0.00  0.00    -0.244 NA
ATOM     24  C   LIG    1        7.117  -4.779  -1.560  0.00  0.00    +0.200 A 
ENDBRANCH  13  20
ENDBRANCH   4  13
TORSDOF 4
