REMARK  Name = ZINC03831004
REMARK                            x       y       z     vdW  Elec       q    Type
REMARK                         _______ _______ _______ _____ _____    ______ ____
ROOT
ATOM      1  C   LIG    1        0.056   1.278  -0.158  0.00  0.00    -0.095 C 
ATOM      2  N   LIG    1        0.058  -0.191  -0.180  0.00  0.00    +0.382 N 
ATOM      3  H   LIG    1       -0.877  -0.530  -0.010  0.00  0.00    -0.081 HD
ATOM      4  C   LIG    1        0.514  -0.658  -1.494  0.00  0.00    -0.066 C 
ATOM      5  C   LIG    1        0.441  -2.186  -1.550  0.00  0.00    -0.015 C 
ATOM      6  C   LIG    1        1.338  -2.774  -0.458  0.00  0.00    -0.003 C 
ATOM      7  C   LIG    1        0.900  -2.222   0.901  0.00  0.00    -0.015 C 
ATOM      8  C   LIG    1        0.957  -0.693   0.867  0.00  0.00    -0.061 C 
ENDROOT
BRANCH   4   9
ATOM      9  C   LIG    1        1.959  -0.209  -1.722  0.00  0.00    +0.021 C 
BRANCH   9  10
ATOM     10  C   LIG    1        2.388  -0.573  -3.145  0.00  0.00    +0.143 C 
BRANCH  10  11
ATOM     11  C   LIG    1        3.744   0.022  -3.428  0.00  0.00    -0.019 A 
ATOM     12  C   LIG    1        4.888  -0.659  -3.056  0.00  0.00    +0.006 A 
ATOM     13  C   LIG    1        6.132  -0.114  -3.316  0.00  0.00    +0.000 A 
ATOM     14  C   LIG    1        6.231   1.112  -3.947  0.00  0.00    +0.000 A 
ATOM     15  C   LIG    1        5.086   1.792  -4.319  0.00  0.00    +0.000 A 
ATOM     16  C   LIG    1        3.843   1.245  -4.064  0.00  0.00    +0.006 A 
ENDBRANCH  10  11
BRANCH  10  17
ATOM     17  O   LIG    1        2.455  -1.994  -3.274  0.00  0.00    -0.387 OA
ATOM     18  H   LIG    1        3.083  -2.415  -2.670  0.00  0.00    +0.210 HD
ENDBRANCH  10  17
ENDBRANCH   9  10
ENDBRANCH   4   9
BRANCH   8  19
ATOM     19  C   LIG    1        0.520  -0.136   2.223  0.00  0.00    +0.064 C 
BRANCH  19  20
ATOM     20  C   LIG    1        1.507  -0.559   3.281  0.00  0.00    +0.162 C 
ATOM     21  O   LIG    1        2.438  -1.279   2.988  0.00  0.00    -0.292 OA
BRANCH  20  22
ATOM     22  C   LIG    1        1.341  -0.099   4.668  0.00  0.00    +0.017 A 
ATOM     23  C   LIG    1        0.265   0.727   5.011  0.00  0.00    +0.011 A 
ATOM     24  C   LIG    1        0.116   1.154   6.314  0.00  0.00    +0.001 A 
ATOM     25  C   LIG    1        1.027   0.767   7.281  0.00  0.00    +0.000 A 
ATOM     26  C   LIG    1        2.095  -0.049   6.950  0.00  0.00    +0.001 A 
ATOM     27  C   LIG    1        2.254  -0.489   5.653  0.00  0.00    +0.011 A 
ENDBRANCH  20  22
ENDBRANCH  19  20
ENDBRANCH   8  19
TORSDOF 7
