REMARK  Name = ZINC03870709
REMARK                            x       y       z     vdW  Elec       q    Type
REMARK                         _______ _______ _______ _____ _____    ______ ____
ROOT
ATOM      1  CA  THR A  1        1.417   1.866  -0.001  0.00  0.00    -0.014 C 
ATOM      2  N   THR A  1        0.011   1.459   0.010  0.00  0.00    +0.389 N 
ATOM      3  H1  THR A  1       -0.454   1.812   0.855  0.00  0.00    -0.085 HD
ATOM      4  H2  THR A  1       -0.470   1.822  -0.822  0.00  0.00    -0.085 HD
ATOM      5  CA  THR A  1        0.002  -0.004   0.002  0.00  0.00    -0.014 C 
ATOM      6  CB  THR A  1        1.151  -0.372  -0.961  0.00  0.00    +0.130 C 
ATOM      7  CG2 THR A  1        2.082   0.858  -0.963  0.00  0.00    +0.130 C 
ENDROOT
BRANCH   6   8
ATOM      8  OG1 THR A  1        0.641  -0.613  -2.274  0.00  0.00    -0.391 OA
ATOM      9  HG1 THR A  1        1.318  -0.849  -2.922  0.00  0.00    +0.210 HD
ENDBRANCH   6   8
BRANCH   7  10
ATOM     10  OG1 THR A  1        3.380   0.499  -0.486  0.00  0.00    -0.391 OA
ATOM     11  HG1 THR A  1        3.828  -0.166  -1.027  0.00  0.00    +0.210 HD
ENDBRANCH   7  10
BRANCH   1  12
ATOM     12  C   THR A  1        1.583   3.293  -0.526  0.00  0.00    +0.143 C 
BRANCH  12  13
ATOM     13  O   THR A  1        0.994   4.212   0.397  0.00  0.00    -0.397 OA
ATOM     14  H   THR A  1        1.062   5.138   0.127  0.00  0.00    +0.209 HD
ENDBRANCH  12  13
ENDBRANCH   1  12
BRANCH   5  15
ATOM     15  C   THR A  1       -1.329  -0.553  -0.517  0.00  0.00    +0.143 C 
BRANCH  15  16
ATOM     16  O   THR A  1       -2.369  -0.234   0.410  0.00  0.00    -0.397 OA
ATOM     17  H   THR A  1       -3.243  -0.552   0.145  0.00  0.00    +0.209 HD
ENDBRANCH  15  16
ENDBRANCH   5  15
TORSDOF 6
