REMARK  Name = ZINC03846907
REMARK                            x       y       z     vdW  Elec       q    Type
REMARK                         _______ _______ _______ _____ _____    ______ ____
ROOT
ATOM      1  C   LIG    1        2.310  -2.486  -2.583  0.00  0.00    +0.027 A 
ATOM      2  C   LIG    1        3.496  -1.788  -2.588  0.00  0.00    +0.048 A 
ATOM      3  C   LIG    1        3.553  -0.484  -2.099  0.00  0.00    +0.128 A 
ATOM      4  C   LIG    1        2.400   0.121  -1.597  0.00  0.00    +0.076 A 
ATOM      5  C   LIG    1        1.183  -0.593  -1.589  0.00  0.00    +0.057 A 
ATOM      6  C   LIG    1       -0.034   0.045  -1.059  0.00  0.00    +0.200 C 
ATOM      7  C   LIG    1       -0.041   1.502  -0.829  0.00  0.00    +0.078 A 
ATOM      8  C   LIG    1        1.176   2.217  -0.839  0.00  0.00    +0.057 A 
ATOM      9  C   LIG    1        1.169   3.598  -0.623  0.00  0.00    +0.038 A 
ATOM     10  C   LIG    1       -0.041   4.257  -0.399  0.00  0.00    +0.056 A 
ATOM     11  C   LIG    1       -1.226   3.558  -0.389  0.00  0.00    +0.160 A 
ATOM     12  C   LIG    1       -1.239   2.181  -0.608  0.00  0.00    +0.156 A 
ATOM     13  O   LIG    1       -1.022  -0.621  -0.813  0.00  0.00    -0.286 OA
ATOM     14  C   LIG    1        2.441   1.500  -1.077  0.00  0.00    +0.200 C 
ATOM     15  O   LIG    1        3.507   2.040  -0.847  0.00  0.00    -0.286 OA
ATOM     16  C   LIG    1        1.145  -1.899  -2.085  0.00  0.00    +0.036 A 
ENDROOT
BRANCH   9  17
ATOM     17  N   LIG    1        2.360   4.310  -0.632  0.00  0.00    -0.357 N 
ATOM     18  H   LIG    1        2.398   5.195  -0.236  0.00  0.00    +0.142 HD
ATOM     19  H   LIG    1        3.154   3.923  -1.034  0.00  0.00    +0.142 HD
ENDBRANCH   9  17
BRANCH  11  20
ATOM     20  S   LIG    1       -2.741   4.411  -0.103  0.00  0.00    +0.113 S 
ATOM     21  O   LIG    1       -3.562   3.537   0.659  0.00  0.00    -0.142 OA
ATOM     22  O   LIG    1       -3.151   4.942  -1.356  0.00  0.00    -0.142 OA
BRANCH  20  23
ATOM     23  O   LIG    1       -2.425   5.602   0.791  0.00  0.00    -0.250 OA
ATOM     24  H   LIG    1       -1.864   6.229   0.308  0.00  0.00    +0.245 HD
ENDBRANCH  20  23
ENDBRANCH  11  20
BRANCH  16  25
ATOM     25  N   LIG    1       -0.047  -2.610  -2.082  0.00  0.00    -0.357 N 
ATOM     26  H   LIG    1       -0.036  -3.576  -2.176  0.00  0.00    +0.142 HD
ATOM     27  H   LIG    1       -0.891  -2.142  -1.987  0.00  0.00    +0.142 HD
ENDBRANCH  16  25
BRANCH   3  28
ATOM     28  O   LIG    1        4.727   0.195  -2.109  0.00  0.00    -0.506 OA
ATOM     29  H   LIG    1        4.881   0.702  -2.918  0.00  0.00    +0.292 HD
ENDBRANCH   3  28
BRANCH  12  30
ATOM     30  O   LIG    1       -2.413   1.503  -0.602  0.00  0.00    -0.504 OA
ATOM     31  H   LIG    1       -2.671   1.170   0.269  0.00  0.00    +0.292 HD
ENDBRANCH  12  30
TORSDOF 6
