REMARK  Name = ZINC03789788
REMARK                            x       y       z     vdW  Elec       q    Type
REMARK                         _______ _______ _______ _____ _____    ______ ____
ROOT
ATOM      1  C   LIG    1        0.407   0.841  -0.005  0.00  0.00    +0.088 C 
ENDROOT
BRANCH   1   2
ATOM      2  C   LIG    1       -1.083   0.797   0.215  0.00  0.00    +0.217 C 
ATOM      3  N   LIG    1       -1.589   0.139   1.277  0.00  0.00    -0.303 N 
ATOM      4  H   LIG    1       -0.992  -0.255   1.932  0.00  0.00    +0.149 HD
ATOM      5  O   LIG    1       -1.828   1.354  -0.564  0.00  0.00    -0.275 OA
BRANCH   3   6
ATOM      6  C   LIG    1       -3.039   0.019   1.442  0.00  0.00    +0.163 C 
BRANCH   6   7
ATOM      7  C   LIG    1       -3.575   1.263   2.103  0.00  0.00    +0.233 C 
ATOM      8  N   LIG    1       -4.905   1.440   2.229  0.00  0.00    -0.317 N 
ATOM      9  H   LIG    1       -5.517   0.766   1.894  0.00  0.00    +0.148 HD
ATOM     10  C   LIG    1       -5.425   2.649   2.872  0.00  0.00    +0.128 C 
ATOM     11  O   LIG    1       -2.808   2.104   2.522  0.00  0.00    -0.274 OA
ENDBRANCH   6   7
BRANCH   6  12
ATOM     12  C   LIG    1       -3.354  -1.198   2.314  0.00  0.00    +0.067 C 
BRANCH  12  13
ATOM     13  C   LIG    1       -2.929  -2.454   1.597  0.00  0.00    -0.045 A 
ATOM     14  C   LIG    1       -3.819  -3.113   0.770  0.00  0.00    +0.004 A 
ATOM     15  C   LIG    1       -3.428  -4.262   0.109  0.00  0.00    +0.000 A 
ATOM     16  C   LIG    1       -2.149  -4.758   0.283  0.00  0.00    +0.000 A 
ATOM     17  C   LIG    1       -1.260  -4.102   1.114  0.00  0.00    +0.000 A 
ATOM     18  C   LIG    1       -1.650  -2.950   1.772  0.00  0.00    +0.004 A 
ENDBRANCH  12  13
ENDBRANCH   6  12
ENDBRANCH   3   6
ENDBRANCH   1   2
BRANCH   1  19
ATOM     19  C   LIG    1        1.007   1.996   0.799  0.00  0.00    +0.016 C 
BRANCH  19  21
ATOM     20  C   LIG    1        3.122   2.956   1.720  0.00  0.00    +0.007 C 
ATOM     21  C   LIG    1        2.510   1.769   0.974  0.00  0.00    -0.016 C 
ATOM     22  C   LIG    1        2.742   0.487   1.776  0.00  0.00    +0.007 C 
ENDBRANCH  19  21
ENDBRANCH   1  19
BRANCH   1  23
ATOM     23  C   LIG    1        0.697   1.050  -1.493  0.00  0.00    +0.099 C 
BRANCH  23  24
ATOM     24  C   LIG    1        2.177   1.246  -1.693  0.00  0.00    +0.240 C 
ATOM     25  N   LIG    1        2.627   2.287  -2.422  0.00  0.00    -0.197 N 
ATOM     26  H   LIG    1        1.997   2.910  -2.817  0.00  0.00    +0.182 HD
ATOM     27  O   LIG    1        2.965   0.467  -1.199  0.00  0.00    -0.273 OA
BRANCH  25  28
ATOM     28  O   LIG    1        4.018   2.471  -2.611  0.00  0.00    -0.295 OA
ATOM     29  H   LIG    1        4.243   3.244  -3.147  0.00  0.00    +0.241 HD
ENDBRANCH  25  28
ENDBRANCH  23  24
BRANCH  23  30
ATOM     30  C   LIG    1        0.234  -0.177  -2.280  0.00  0.00    +0.088 C 
BRANCH  30  31
ATOM     31  S   LIG    1        0.441   0.130  -4.056  0.00  0.00    -0.117 S 
BRANCH  31  32
ATOM     32  C   LIG    1       -0.129  -1.355  -4.814  0.00  0.00    +0.045 A 
ATOM     33  C   LIG    1       -0.196  -1.672  -6.139  0.00  0.00    +0.022 A 
ATOM     34  C   LIG    1       -0.685  -2.914  -6.502  0.00  0.00    +0.009 A 
ATOM     35  C   LIG    1       -1.079  -3.775  -5.534  0.00  0.00    +0.046 A 
ATOM     36  S   LIG    1       -0.760  -2.839  -4.048  0.00  0.00    -0.090 S 
ENDBRANCH  31  32
ENDBRANCH  30  31
ENDBRANCH  23  30
ENDBRANCH   1  23
TORSDOF 13
