REMARK  Name = ZINC03861600
REMARK                            x       y       z     vdW  Elec       q    Type
REMARK                         _______ _______ _______ _____ _____    ______ ____
ROOT
ATOM      1  C   LIG    1        1.254  -2.157  -0.022  0.00  0.00    +0.006 A 
ATOM      2  C   LIG    1        0.950  -2.929   1.186  0.00  0.00    +0.030 A 
ATOM      3  C   LIG    1        0.622  -2.284   2.386  0.00  0.00    +0.016 A 
ATOM      4  C   LIG    1        0.342  -3.022   3.499  0.00  0.00    +0.050 A 
ATOM      5  C   LIG    1        0.380  -4.414   3.451  0.00  0.00    +0.162 A 
ATOM      6  C   LIG    1        0.704  -5.072   2.271  0.00  0.00    +0.202 A 
ATOM      7  C   LIG    1        0.992  -4.336   1.126  0.00  0.00    +0.181 A 
ATOM      8  O   LIG    1        1.306  -4.963  -0.026  0.00  0.00    -0.447 OA
ATOM      9  C   LIG    1        1.592  -4.290  -1.161  0.00  0.00    +0.181 A 
ATOM     10  C   LIG    1        1.906  -4.989  -2.313  0.00  0.00    +0.207 A 
ATOM     11  C   LIG    1        2.204  -4.293  -3.493  0.00  0.00    +0.224 A 
ATOM     12  C   LIG    1        2.184  -2.885  -3.513  0.00  0.00    +0.055 A 
ATOM     13  C   LIG    1        1.876  -2.190  -2.388  0.00  0.00    +0.016 A 
ATOM     14  O   LIG    1        2.506  -4.967  -4.602  0.00  0.00    -0.284 OA
ATOM     15  C   LIG    1        1.569  -2.875  -1.197  0.00  0.00    +0.030 A 
ENDROOT
BRANCH   1  20
ATOM     16  C   LIG    1       -0.017   1.374   0.010  0.00  0.00    +0.001 A 
ATOM     17  C   LIG    1        1.171   2.086   0.002  0.00  0.00    +0.002 A 
ATOM     18  C   LIG    1        2.385   1.422  -0.013  0.00  0.00    +0.030 A 
ATOM     19  C   LIG    1        2.420   0.043  -0.021  0.00  0.00    +0.125 A 
ATOM     20  C   LIG    1        1.225  -0.683  -0.013  0.00  0.00    +0.011 A 
ATOM     21  C   LIG    1        0.002  -0.004   0.002  0.00  0.00    +0.010 A 
BRANCH  19  22
ATOM     22  S   LIG    1        3.966  -0.801  -0.041  0.00  0.00    +0.110 S 
ATOM     23  O   LIG    1        3.753  -2.058  -0.741  0.00  0.00    -0.142 OA
ATOM     24  O   LIG    1        4.351  -1.010   1.347  0.00  0.00    -0.142 OA
BRANCH  22  25
ATOM     25  O   LIG    1        4.908   0.059  -0.741  0.00  0.00    -0.250 OA
ATOM     26  H   LIG    1        5.023   0.884  -0.245  0.00  0.00    +0.245 HD
ENDBRANCH  22  25
ENDBRANCH  19  22
ENDBRANCH   1  20
BRANCH   5  27
ATOM     27  O   LIG    1        0.099  -5.134   4.567  0.00  0.00    -0.503 OA
ATOM     28  H   LIG    1       -0.836  -5.358   4.665  0.00  0.00    +0.292 HD
ENDBRANCH   5  27
BRANCH   6  29
ATOM     29  O   LIG    1        0.738  -6.432   2.235  0.00  0.00    -0.501 OA
ATOM     30  H   LIG    1       -0.106  -6.840   2.000  0.00  0.00    +0.292 HD
ENDBRANCH   6  29
BRANCH  10  31
ATOM     31  O   LIG    1        1.928  -6.351  -2.300  0.00  0.00    -0.501 OA
ATOM     32  H   LIG    1        2.158  -6.749  -3.151  0.00  0.00    +0.292 HD
ENDBRANCH  10  31
TORSDOF 6
