REMARK  Name = ZINC03832327
REMARK                            x       y       z     vdW  Elec       q    Type
REMARK                         _______ _______ _______ _____ _____    ______ ____
ROOT
ATOM      1  C   LIG    1       -1.092   6.552  -3.922  0.00  0.00    +0.225 A 
ATOM      2  N   LIG    1       -1.079   6.431  -5.237  0.00  0.00    -0.219 NA
ATOM      3  C   LIG    1       -0.728   5.290  -5.820  0.00  0.00    +0.147 A 
ATOM      4  C   LIG    1       -0.368   4.204  -5.004  0.00  0.00    +0.147 A 
ATOM      5  C   LIG    1       -0.404   4.381  -3.611  0.00  0.00    +0.166 A 
ATOM      6  N   LIG    1       -0.008   3.185  -3.067  0.00  0.00    -0.309 N 
ATOM      7  C   LIG    1        0.243   2.330  -4.099  0.00  0.00    +0.202 A 
ATOM      8  N   LIG    1        0.031   2.930  -5.234  0.00  0.00    -0.231 NA
ATOM      9  N   LIG    1       -0.762   5.563  -3.119  0.00  0.00    -0.216 NA
ENDROOT
BRANCH   6  10
ATOM     10  C   LIG    1        0.116   2.881  -1.639  0.00  0.00    +0.122 C 
ATOM     11  C   LIG    1        1.568   2.472  -1.289  0.00  0.00    +0.036 C 
ATOM     12  C   LIG    1        1.426   1.633  -0.003  0.00  0.00    +0.048 C 
ATOM     13  C   LIG    1       -0.013   1.086   0.008  0.00  0.00    +0.150 C 
ATOM     14  C   LIG    1       -0.694   1.612  -1.272  0.00  0.00    +0.166 C 
BRANCH  13  15
ATOM     15  O   LIG    1       -0.708   1.559   1.163  0.00  0.00    -0.389 OA
ATOM     16  H   LIG    1       -1.624   1.257   1.222  0.00  0.00    +0.210 HD
ENDBRANCH  13  15
BRANCH  14  17
ATOM     17  O   LIG    1       -2.058   1.948  -1.011  0.00  0.00    -0.387 OA
ATOM     18  H   LIG    1       -2.598   1.200  -0.720  0.00  0.00    +0.210 HD
ENDBRANCH  14  17
BRANCH  12  19
ATOM     19  C   LIG    1        2.426   0.475  -0.019  0.00  0.00    +0.162 C 
BRANCH  19  20
ATOM     20  O   LIG    1        2.342  -0.244   1.214  0.00  0.00    -0.395 OA
ATOM     21  H   LIG    1        2.950  -0.993   1.274  0.00  0.00    +0.209 HD
ENDBRANCH  19  20
ENDBRANCH  12  19
ENDBRANCH   6  10
BRANCH   3  22
ATOM     22  N   LIG    1       -0.718   5.173  -7.199  0.00  0.00    -0.341 N 
ATOM     23  H   LIG    1       -0.969   5.929  -7.752  0.00  0.00    +0.144 HD
ATOM     24  H   LIG    1        0.205   4.944  -7.507  0.00  0.00    +0.144 HD
ENDBRANCH   3  22
TORSDOF 6
