REMARK  Name = ZINC03792165
REMARK                            x       y       z     vdW  Elec       q    Type
REMARK                         _______ _______ _______ _____ _____    ______ ____
ROOT
ATOM      1  C   LIG    1       -0.070   5.328   0.032  0.00  0.00    -0.018 A 
ATOM      2  C   LIG    1        1.089   6.041   0.331  0.00  0.00    +0.009 A 
ATOM      3  C   LIG    1        1.066   7.421   0.332  0.00  0.00    +0.004 A 
ATOM      4  C   LIG    1       -0.108   8.096   0.048  0.00  0.00    -0.046 A 
ATOM      5  C   LIG    1       -1.263   7.393  -0.244  0.00  0.00    +0.004 A 
ATOM      6  C   LIG    1       -1.250   6.013  -0.253  0.00  0.00    +0.009 A 
ENDROOT
BRANCH   4   7
ATOM      7  C   LIG    1       -0.128   9.603   0.058  0.00  0.00    +0.005 C 
ATOM      8  C   LIG    1       -1.437  10.094   0.682  0.00  0.00    -0.070 C 
ATOM      9  N   LIG    1       -2.197  10.912  -0.287  0.00  0.00    +0.380 N 
ATOM     10  H   LIG    1       -3.068  11.229   0.154  0.00  0.00    -0.082 HD
ATOM     11  C   LIG    1       -1.403  12.094  -0.685  0.00  0.00    -0.079 C 
ATOM     12  C   LIG    1       -0.093  11.659  -1.348  0.00  0.00    -0.015 C 
ATOM     13  C   LIG    1       -2.530  10.104  -1.480  0.00  0.00    -0.079 C 
ATOM     14  C   LIG    1       -1.247   9.612  -2.168  0.00  0.00    -0.015 C 
ATOM     15  C   LIG    1       -0.036  10.127  -1.381  0.00  0.00    -0.009 C 
ENDBRANCH   4   7
BRANCH   1  19
ATOM     16  C   LIG    1       -0.013   1.076   0.008  0.00  0.00    +0.000 A 
ATOM     17  C   LIG    1       -1.185   1.751  -0.281  0.00  0.00    +0.001 A 
ATOM     18  C   LIG    1       -1.211   3.131  -0.270  0.00  0.00    +0.008 A 
ATOM     19  C   LIG    1       -0.050   3.844   0.023  0.00  0.00    -0.018 A 
ATOM     20  C   LIG    1        1.129   3.159   0.308  0.00  0.00    +0.008 A 
ATOM     21  C   LIG    1        1.142   1.779   0.299  0.00  0.00    +0.001 A 
ENDBRANCH   1  19
TORSDOF 2
