REMARK  Name = ZINC03716182
REMARK                            x       y       z     vdW  Elec       q    Type
REMARK                         _______ _______ _______ _____ _____    ______ ____
ROOT
ATOM      1  C   LIG    1       -0.486  -0.713   1.092  0.00  0.00    -0.024 A 
ATOM      2  C   LIG    1       -0.279  -2.077   1.157  0.00  0.00    +0.006 A 
ATOM      3  C   LIG    1        0.226  -2.754   0.062  0.00  0.00    +0.000 A 
ATOM      4  C   LIG    1        0.525  -2.068  -1.101  0.00  0.00    +0.002 A 
ATOM      5  C   LIG    1        0.316  -0.705  -1.174  0.00  0.00    +0.023 A 
ATOM      6  C   LIG    1       -0.186  -0.021  -0.074  0.00  0.00    +0.033 A 
ENDROOT
BRANCH   6   7
ATOM      7  N   LIG    1       -0.394   1.358  -0.143  0.00  0.00    -0.333 N 
ATOM      8  C   LIG    1        0.225   1.925  -1.350  0.00  0.00    +0.086 C 
ATOM      9  C   LIG    1        0.043   3.444  -1.348  0.00  0.00    -0.063 C 
ATOM     10  N   LIG    1       -1.391   3.764  -1.296  0.00  0.00    +0.381 N 
ATOM     11  H   LIG    1       -1.892   3.345  -2.180  0.00  0.00    -0.086 HD
ATOM     12  H   LIG    1       -1.523   4.856  -1.282  0.00  0.00    -0.086 HD
ATOM     13  C   LIG    1       -2.010   3.197  -0.089  0.00  0.00    -0.063 C 
ATOM     14  C   LIG    1       -1.828   1.678  -0.091  0.00  0.00    +0.086 C 
ENDBRANCH   6   7
BRANCH   1  16
ATOM     15  C   LIG    1       -2.460  -0.460   2.572  0.00  0.00    +0.012 C 
ATOM     16  C   LIG    1       -1.037   0.024   2.286  0.00  0.00    +0.015 C 
ATOM     17  C   LIG    1       -0.152  -0.245   3.504  0.00  0.00    +0.012 C 
ENDBRANCH   1  16
TORSDOF 2
