REMARK  Name = ZINC03807917
REMARK                            x       y       z     vdW  Elec       q    Type
REMARK                         _______ _______ _______ _____ _____    ______ ____
ROOT
ATOM      1  C   LIG    1       -0.019   1.526   0.010  0.00  0.00    +0.019 C 
ATOM      2  C   LIG    1        0.002  -0.004   0.002  0.00  0.00    +0.029 C 
ATOM      3  C   LIG    1       -1.416  -0.535   0.076  0.00  0.00    +0.015 C 
ATOM      4  C   LIG    1       -2.076   0.107   1.306  0.00  0.00    +0.005 C 
ATOM      5  C   LIG    1       -1.298  -0.188   2.584  0.00  0.00    +0.003 C 
ATOM      6  C   LIG    1        0.176   0.222   2.463  0.00  0.00    +0.001 C 
ATOM      7  C   LIG    1        0.900  -0.212   3.743  0.00  0.00    +0.031 C 
ATOM      8  C   LIG    1        0.206   0.386   4.931  0.00  0.00    -0.027 C 
ATOM      9  C   LIG    1       -1.054   0.710   4.929  0.00  0.00    -0.065 C 
ATOM     10  C   LIG    1       -1.647   1.302   6.196  0.00  0.00    +0.062 C 
ATOM     11  C   LIG    1       -2.884   0.492   6.565  0.00  0.00    +0.119 C 
ATOM     12  C   LIG    1       -3.846   0.526   5.376  0.00  0.00    +0.032 C 
ATOM     13  C   LIG    1       -3.217  -0.201   4.186  0.00  0.00    +0.014 C 
ATOM     14  C   LIG    1       -1.944   0.533   3.756  0.00  0.00    -0.008 C 
ATOM     15  C   LIG    1       -2.353   1.931   3.290  0.00  0.00    +0.016 C 
ATOM     16  C   LIG    1        0.845  -0.492  -1.139  0.00  0.00    +0.139 C 
ATOM     17  O   LIG    1        0.469  -0.779  -2.250  0.00  0.00    -0.297 OA
ATOM     18  C   LIG    1        2.274  -0.553  -0.608  0.00  0.00    +0.075 C 
ATOM     19  C   LIG    1        2.204  -0.184   0.899  0.00  0.00    +0.012 C 
ATOM     20  C   LIG    1        0.752  -0.524   1.258  0.00  0.00    +0.006 C 
ENDROOT
BRANCH  11  21
ATOM     21  O   LIG    1       -3.510   1.093   7.701  0.00  0.00    -0.391 OA
ATOM     22  H   LIG    1       -2.956   1.106   8.493  0.00  0.00    +0.210 HD
ENDBRANCH  11  21
TORSDOF 1
