REMARK  Name = ZINC03870968
REMARK                            x       y       z     vdW  Elec       q    Type
REMARK                         _______ _______ _______ _____ _____    ______ ____
ROOT
ATOM      1  C   LIG    1       -0.017   1.387   0.010  0.00  0.00    +0.102 A 
ATOM      2  C   LIG    1       -1.244   2.072   0.018  0.00  0.00    +0.129 A 
ATOM      3  N   LIG    1       -0.975   3.393   0.024  0.00  0.00    -0.128 NA
ATOM      4  N   LIG    1        0.296   3.591   0.020  0.00  0.00    -0.067 NA
ATOM      5  C   LIG    1       -2.439   1.338   0.019  0.00  0.00    +0.062 A 
ATOM      6 BR   LIG    1       -4.102   2.238   0.032  0.00  0.00    -0.047 Br
ATOM      7  C   LIG    1       -2.400  -0.027   0.012  0.00  0.00    +0.049 A 
ATOM      8 BR   LIG    1       -4.017  -1.008   0.014  0.00  0.00    -0.048 Br
ATOM      9  C   LIG    1       -1.186  -0.703   0.004  0.00  0.00    +0.049 A 
ATOM     10 BR   LIG    1       -1.164  -2.594  -0.004  0.00  0.00    -0.048 Br
ATOM     11  N   LIG    1        0.960   2.355   0.005  0.00  0.00    -0.256 N 
ATOM     12  H   LIG    1        1.919   2.212  -0.004  0.00  0.00    +0.191 HD
ATOM     13  C   LIG    1        0.002  -0.004   0.002  0.00  0.00    +0.060 A 
ATOM     14 BR   LIG    1        1.650  -0.931  -0.018  0.00  0.00    -0.047 Br
ENDROOT
TORSDOF 0
