REMARK  Name = ZINC03783066
REMARK                            x       y       z     vdW  Elec       q    Type
REMARK                         _______ _______ _______ _____ _____    ______ ____
ROOT
ATOM      1  N   LIG    1        2.753  -3.338  -4.566  0.00  0.00    -0.329 N 
ATOM      2  C   LIG    1        3.777  -2.680  -5.156  0.00  0.00    +0.200 A 
ATOM      3  N   LIG    1        4.880  -2.951  -4.507  0.00  0.00    -0.239 NA
ATOM      4  C   LIG    1        4.601  -3.778  -3.498  0.00  0.00    +0.080 A 
ATOM      5  C   LIG    1        5.550  -4.357  -2.476  0.00  0.00    +0.165 C 
ATOM      6  N   LIG    1        4.819  -5.402  -1.740  0.00  0.00    -0.281 N 
ATOM      7  C   LIG    1        5.398  -6.590  -1.477  0.00  0.00    +0.228 C 
ATOM      8  O   LIG    1        4.754  -7.478  -0.960  0.00  0.00    -0.275 OA
ATOM      9  C   LIG    1        3.442  -5.123  -1.304  0.00  0.00    +0.191 C 
ATOM     10  C   LIG    1        2.555  -4.925  -2.540  0.00  0.00    +0.089 C 
ATOM     11  C   LIG    1        3.274  -4.030  -3.516  0.00  0.00    +0.045 A 
ENDROOT
BRANCH   9  12
ATOM     12  C   LIG    1        2.924  -6.282  -0.493  0.00  0.00    +0.326 C 
ATOM     13  O   LIG    1        2.630  -7.329  -1.044  0.00  0.00    -0.249 OA
BRANCH  12  14
ATOM     14  O   LIG    1        2.798  -6.174   0.715  0.00  0.00    -0.479 OA
ATOM     15  H   LIG    1        3.024  -5.369   1.139  0.00  0.00    +0.295 HD
ENDBRANCH  12  14
ENDBRANCH   9  12
BRANCH   1  16
ATOM     16  C   LIG    1        1.347  -3.307  -4.977  0.00  0.00    +0.158 C 
BRANCH  16  20
ATOM     17  C   LIG    1       -0.210   1.417  -4.439  0.00  0.00    +0.045 C 
ATOM     18  C   LIG    1       -0.130   0.003  -3.924  0.00  0.00    -0.029 A 
ATOM     19  C   LIG    1        0.541  -0.960  -4.651  0.00  0.00    +0.010 A 
ATOM     20  C   LIG    1        0.614  -2.258  -4.180  0.00  0.00    -0.027 A 
ATOM     21  C   LIG    1        0.016  -2.596  -2.980  0.00  0.00    +0.007 A 
ATOM     22  C   LIG    1       -0.656  -1.638  -2.248  0.00  0.00    +0.024 A 
ATOM     23  C   LIG    1       -0.727  -0.332  -2.716  0.00  0.00    +0.032 A 
BRANCH  23  24
ATOM     24  N   LIG    1       -1.402   0.641  -1.975  0.00  0.00    -0.336 N 
ATOM     25  C   LIG    1       -2.832   0.869  -2.196  0.00  0.00    +0.129 C 
ATOM     26  C   LIG    1       -0.680   1.434  -0.977  0.00  0.00    +0.129 C 
ENDBRANCH  23  24
ENDBRANCH  16  20
ENDBRANCH   1  16
BRANCH   7  27
ATOM     27  C   LIG    1        6.847  -6.815  -1.824  0.00  0.00    +0.135 C 
BRANCH  27  28
ATOM     28  C   LIG    1        7.247  -8.214  -1.430  0.00  0.00    -0.031 A 
ATOM     29  C   LIG    1        7.064  -8.644  -0.129  0.00  0.00    +0.005 A 
ATOM     30  C   LIG    1        7.431  -9.927   0.232  0.00  0.00    +0.000 A 
ATOM     31  C   LIG    1        7.980 -10.780  -0.708  0.00  0.00    +0.000 A 
ATOM     32  C   LIG    1        8.162 -10.349  -2.009  0.00  0.00    +0.000 A 
ATOM     33  C   LIG    1        7.792  -9.068  -2.371  0.00  0.00    +0.005 A 
ENDBRANCH  27  28
BRANCH  27  34
ATOM     34  C   LIG    1        7.702  -5.820  -1.081  0.00  0.00    -0.031 A 
ATOM     35  C   LIG    1        7.500  -5.608   0.270  0.00  0.00    +0.005 A 
ATOM     36  C   LIG    1        8.284  -4.696   0.951  0.00  0.00    +0.000 A 
ATOM     37  C   LIG    1        9.270  -3.996   0.281  0.00  0.00    +0.000 A 
ATOM     38  C   LIG    1        9.472  -4.209  -1.069  0.00  0.00    +0.000 A 
ATOM     39  C   LIG    1        8.691  -5.124  -1.750  0.00  0.00    +0.005 A 
ENDBRANCH  27  34
ENDBRANCH   7  27
TORSDOF 8
