REMARK  Name = ZINC03808386
REMARK                            x       y       z     vdW  Elec       q    Type
REMARK                         _______ _______ _______ _____ _____    ______ ____
ROOT
ATOM      1  C   LIG    1        5.111   7.512  -0.729  0.00  0.00    -0.000 C 
ATOM      2  C   LIG    1        4.559   6.794   0.217  0.00  0.00    -0.025 C 
ENDROOT
BRANCH   2   3
ATOM      3  C   LIG    1        4.385   5.309   0.030  0.00  0.00    +0.014 C 
ATOM      4  C   LIG    1        5.148   4.564   1.127  0.00  0.00    +0.008 C 
ATOM      5  C   LIG    1        4.971   3.056   0.938  0.00  0.00    +0.003 C 
ATOM      6  C   LIG    1        3.485   2.703   1.021  0.00  0.00    +0.035 C 
ATOM      7  C   LIG    1        2.721   3.447  -0.076  0.00  0.00    +0.077 C 
ATOM      8  C   LIG    1        2.898   4.955   0.113  0.00  0.00    +0.043 C 
BRANCH   7   9
ATOM      9  O   LIG    1        3.231   3.065  -1.355  0.00  0.00    -0.388 OA
ATOM     10  H   LIG    1        3.152   2.120  -1.544  0.00  0.00    +0.210 HD
ENDBRANCH   7   9
BRANCH   7  11
ATOM     11  C   LIG    1        1.235   3.094   0.007  0.00  0.00    +0.155 C 
BRANCH  11  12
ATOM     12  C   LIG    1        0.494   3.774  -1.116  0.00  0.00    +0.307 C 
ATOM     13  O   LIG    1        1.105   4.377  -1.965  0.00  0.00    -0.251 OA
BRANCH  12  14
ATOM     14  O   LIG    1       -0.846   3.708  -1.172  0.00  0.00    -0.481 OA
ATOM     15  H   LIG    1       -1.320   3.241  -0.513  0.00  0.00    +0.295 HD
ENDBRANCH  12  14
ENDBRANCH  11  12
ENDBRANCH   7  11
ENDBRANCH   2   3
BRANCH   1  16
ATOM     16  C   LIG    1        5.286   8.998  -0.542  0.00  0.00    +0.137 C 
BRANCH  16  17
ATOM     17  O   LIG    1        4.573   9.693  -1.567  0.00  0.00    -0.388 OA
ATOM     18  H   LIG    1        4.867   9.482  -2.464  0.00  0.00    +0.210 HD
ENDBRANCH  16  17
BRANCH  16  19
ATOM     19  C   LIG    1        6.772   9.351  -0.625  0.00  0.00    +0.035 C 
BRANCH  19  20
ATOM     20  C   LIG    1        6.961  10.836  -0.313  0.00  0.00    +0.003 C 
BRANCH  20  21
ATOM     21  C   LIG    1        8.448  11.190  -0.396  0.00  0.00    +0.005 C 
BRANCH  21  22
ATOM     22  C   LIG    1        8.637  12.675  -0.083  0.00  0.00    +0.035 C 
BRANCH  22  26
ATOM     23  C   LIG    1       12.787  13.662  -0.314  0.00  0.00    +0.000 A 
ATOM     24  C   LIG    1       11.989  13.763  -1.438  0.00  0.00    +0.000 A 
ATOM     25  C   LIG    1       10.646  13.444  -1.363  0.00  0.00    +0.003 A 
ATOM     26  C   LIG    1       10.101  13.023  -0.165  0.00  0.00    -0.047 A 
ATOM     27  C   LIG    1       10.898  12.928   0.961  0.00  0.00    +0.003 A 
ATOM     28  C   LIG    1       12.242  13.243   0.885  0.00  0.00    +0.000 A 
ENDBRANCH  22  26
ENDBRANCH  21  22
ENDBRANCH  20  21
ENDBRANCH  19  20
ENDBRANCH  16  19
ENDBRANCH   1  16
TORSDOF 12
