REMARK  Name = ZINC03871501
REMARK                            x       y       z     vdW  Elec       q    Type
REMARK                         _______ _______ _______ _____ _____    ______ ____
ROOT
ATOM      1  C   LIG    1       -0.017   1.386   0.010  0.00  0.00    +0.001 A 
ATOM      2  C   LIG    1        1.136   2.117   0.003  0.00  0.00    +0.008 A 
ATOM      3  C   LIG    1        2.382   1.466  -0.013  0.00  0.00    -0.016 A 
ATOM      4  C   LIG    1        3.597   2.174  -0.021  0.00  0.00    +0.008 A 
ATOM      5  C   LIG    1        4.782   1.497  -0.037  0.00  0.00    +0.001 A 
ATOM      6  C   LIG    1        4.828   0.107  -0.045  0.00  0.00    +0.014 A 
ATOM      7  C   LIG    1        3.652  -0.628  -0.037  0.00  0.00    +0.048 A 
ATOM      8  C   LIG    1        3.645  -2.098  -0.046  0.00  0.00    +0.262 A 
ATOM      9  O   LIG    1        4.697  -2.708  -0.060  0.00  0.00    -0.267 OA
ATOM     10  N   LIG    1        2.480  -2.774  -0.037  0.00  0.00    -0.264 N 
ATOM     11  C   LIG    1        1.285  -2.153  -0.022  0.00  0.00    +0.262 A 
ATOM     12  O   LIG    1        0.262  -2.810  -0.016  0.00  0.00    -0.267 OA
ATOM     13  C   LIG    1        1.211  -0.684  -0.013  0.00  0.00    +0.048 A 
ATOM     14  C   LIG    1        2.415   0.056  -0.021  0.00  0.00    +0.007 A 
ATOM     15  C   LIG    1        0.002  -0.004   0.002  0.00  0.00    +0.014 A 
ENDROOT
BRANCH  10  16
ATOM     16  C   LIG    1        2.514  -4.238  -0.046  0.00  0.00    +0.248 C 
BRANCH  16  17
ATOM     17  C   LIG    1        2.511  -4.732  -1.470  0.00  0.00    +0.325 C 
ATOM     18  O   LIG    1        2.484  -3.935  -2.392  0.00  0.00    -0.249 OA
BRANCH  17  19
ATOM     19  O   LIG    1        2.537  -5.930  -1.699  0.00  0.00    -0.479 OA
ATOM     20  H   LIG    1        2.558  -6.542  -0.991  0.00  0.00    +0.295 HD
ENDBRANCH  17  19
ENDBRANCH  16  17
ENDBRANCH  10  16
TORSDOF 3
