REMARK  Name = ZINC03651379
REMARK                            x       y       z     vdW  Elec       q    Type
REMARK                         _______ _______ _______ _____ _____    ______ ____
ROOT
ATOM      1  C   LIG    1        2.850   6.482  -1.683  0.00  0.00    +0.162 A 
ATOM      2  C   LIG    1        2.139   5.516  -2.377  0.00  0.00    +0.049 A 
ATOM      3  C   LIG    1        1.307   4.648  -1.696  0.00  0.00    +0.008 A 
ATOM      4  C   LIG    1        1.174   4.747  -0.323  0.00  0.00    -0.039 A 
ATOM      5  C   LIG    1        1.880   5.708   0.376  0.00  0.00    +0.053 A 
ATOM      6  C   LIG    1        2.720   6.578  -0.300  0.00  0.00    +0.163 A 
ENDROOT
BRANCH   4   7
ATOM      7  C   LIG    1        0.261   3.801   0.414  0.00  0.00    +0.045 C 
ATOM      8  C   LIG    1        0.678   2.331   0.176  0.00  0.00    +0.105 C 
ATOM      9  C   LIG    1       -0.633   1.582   0.095  0.00  0.00    +0.216 C 
ATOM     10  N   LIG    1       -1.646   2.442  -0.108  0.00  0.00    -0.297 N 
ATOM     11  O   LIG    1       -0.753   0.379   0.193  0.00  0.00    -0.276 OA
ATOM     12  C   LIG    1       -1.162   3.825  -0.186  0.00  0.00    +0.116 C 
BRANCH  10  13
ATOM     13  C   LIG    1       -3.052   2.050  -0.232  0.00  0.00    +0.142 C 
BRANCH  13  14
ATOM     14  C   LIG    1       -3.696   2.056   1.131  0.00  0.00    -0.030 A 
ATOM     15  C   LIG    1       -3.690   0.910   1.903  0.00  0.00    +0.006 A 
ATOM     16  C   LIG    1       -4.277   0.916   3.155  0.00  0.00    +0.015 A 
ATOM     17  C   LIG    1       -4.880   2.067   3.630  0.00  0.00    +0.018 A 
ATOM     18 BR   LIG    1       -5.690   2.074   5.338  0.00  0.00    -0.050 Br
ATOM     19  C   LIG    1       -4.891   3.212   2.854  0.00  0.00    +0.015 A 
ATOM     20  C   LIG    1       -4.299   3.206   1.605  0.00  0.00    +0.006 A 
ENDBRANCH  13  14
ENDBRANCH  10  13
ENDBRANCH   4   7
BRANCH   1  22
ATOM     21  C   LIG    1        3.757   7.177  -3.768  0.00  0.00    +0.277 C 
ATOM     22  O   LIG    1        3.673   7.334  -2.351  0.00  0.00    -0.491 OA
ENDBRANCH   1  22
BRANCH   6  23
ATOM     23  O   LIG    1        3.416   7.524   0.385  0.00  0.00    -0.485 OA
BRANCH  23  24
ATOM     24  C   LIG    1        3.330   7.487   1.811  0.00  0.00    +0.174 C 
ATOM     25  C   LIG    1        2.103   8.292   2.287  0.00  0.00    +0.044 C 
ATOM     26  C   LIG    1        2.580   8.976   3.592  0.00  0.00    +0.004 C 
ATOM     27  C   LIG    1        4.047   9.352   3.264  0.00  0.00    +0.004 C 
ATOM     28  C   LIG    1        4.566   8.161   2.432  0.00  0.00    +0.044 C 
ENDBRANCH  23  24
ENDBRANCH   6  23
TORSDOF 6
