REMARK  Name = ZINC03819851
REMARK                            x       y       z     vdW  Elec       q    Type
REMARK                         _______ _______ _______ _____ _____    ______ ____
ROOT
ATOM      1  C   LIG    1        3.671   2.135  -0.022  0.00  0.00    +0.009 A 
ATOM      2  C   LIG    1        4.822   1.420  -0.038  0.00  0.00    +0.095 A 
ATOM      3  N   LIG    1        4.830   0.056  -0.046  0.00  0.00    -0.328 N 
ATOM      4  C   LIG    1        3.697  -0.672  -0.038  0.00  0.00    +0.257 A 
ATOM      5  C   LIG    1        2.399   0.012  -0.021  0.00  0.00    +0.051 A 
ATOM      6  C   LIG    1        1.195  -0.693  -0.014  0.00  0.00    +0.014 A 
ATOM      7  C   LIG    1        0.002  -0.004   0.002  0.00  0.00    +0.004 A 
ATOM      8  C   LIG    1       -0.017   1.384   0.010  0.00  0.00    +0.046 A 
ATOM      9  C   LIG    1        1.163   2.104   0.002  0.00  0.00    +0.125 A 
ATOM     10  O   LIG    1        3.750  -1.889  -0.045  0.00  0.00    -0.267 OA
ATOM     11  H   LIG    1        5.709  -0.420  -0.057  0.00  0.00    +0.168 HD
ATOM     12  C   LIG    1        2.384   1.424  -0.013  0.00  0.00    +0.038 A 
ENDROOT
BRANCH   1  16
ATOM     13  C   LIG    1        3.780   6.385  -0.001  0.00  0.00    -0.064 A 
ATOM     14  C   LIG    1        4.258   5.689  -1.096  0.00  0.00    +0.002 A 
ATOM     15  C   LIG    1        4.225   4.309  -1.109  0.00  0.00    +0.009 A 
ATOM     16  C   LIG    1        3.709   3.617  -0.015  0.00  0.00    -0.016 A 
ATOM     17  C   LIG    1        3.223   4.324   1.085  0.00  0.00    +0.009 A 
ATOM     18  C   LIG    1        3.266   5.703   1.088  0.00  0.00    +0.002 A 
BRANCH  13  19
ATOM     19  C   LIG    1        3.819   7.891   0.007  0.00  0.00    -0.044 C 
BRANCH  19  21
ATOM     20  C   LIG    1        1.423   8.092   0.294  0.00  0.00    -0.096 C 
ATOM     21  N   LIG    1        2.567   8.404  -0.588  0.00  0.00    +0.379 N 
ATOM     22  H   LIG    1        2.420   7.950  -1.497  0.00  0.00    -0.082 HD
ATOM     23  C   LIG    1        2.665   9.864  -0.791  0.00  0.00    -0.096 C 
ENDBRANCH  19  21
ENDBRANCH  13  19
ENDBRANCH   1  16
BRANCH   9  24
ATOM     24  O   LIG    1        1.136   3.463   0.009  0.00  0.00    -0.506 OA
ATOM     25  H   LIG    1        1.137   3.852   0.895  0.00  0.00    +0.292 HD
ENDBRANCH   9  24
TORSDOF 4
