REMARK  Name = ZINC03814420
REMARK                            x       y       z     vdW  Elec       q    Type
REMARK                         _______ _______ _______ _____ _____    ______ ____
ROOT
ATOM      1  C   LIG    1       -1.834   0.171   1.697  0.00  0.00    +0.042 C 
ATOM      2  C   LIG    1       -1.215  -0.697   0.600  0.00  0.00    +0.072 C 
ATOM      3  C   LIG    1       -0.692  -2.019   1.193  0.00  0.00    +0.035 C 
ATOM      4  C   LIG    1        0.851  -1.994   1.017  0.00  0.00    +0.008 C 
ATOM      5  C   LIG    1        1.160  -0.496   0.917  0.00  0.00    +0.009 C 
ATOM      6  C   LIG    1        2.445  -0.127   0.202  0.00  0.00    +0.024 C 
ATOM      7  C   LIG    1        3.670  -0.551   1.008  0.00  0.00    +0.013 C 
ATOM      8  C   LIG    1        4.923  -0.075   0.264  0.00  0.00    +0.036 C 
ATOM      9  C   LIG    1        4.850   1.423   0.095  0.00  0.00    -0.041 C 
ATOM     10  C   LIG    1        6.010   2.140   0.078  0.00  0.00    +0.050 C 
ATOM     11  C   LIG    1        5.992   3.538   0.053  0.00  0.00    +0.157 C 
ATOM     12  O   LIG    1        7.015   4.155  -0.170  0.00  0.00    -0.293 OA
ATOM     13  C   LIG    1        4.705   4.279   0.304  0.00  0.00    +0.083 C 
ATOM     14  C   LIG    1        3.547   3.542  -0.362  0.00  0.00    +0.043 C 
ATOM     15  C   LIG    1        3.612   2.065  -0.055  0.00  0.00    -0.040 C 
ATOM     16  C   LIG    1        2.440   1.378   0.041  0.00  0.00    -0.041 C 
ATOM     17  C   LIG    1        1.217   2.099   0.022  0.00  0.00    +0.000 C 
ATOM     18  C   LIG    1        0.021   1.486   0.016  0.00  0.00    -0.017 C 
ATOM     19  C   LIG    1        0.002  -0.004   0.002  0.00  0.00    +0.018 C 
ATOM     20  C   LIG    1        0.228  -0.506  -1.425  0.00  0.00    +0.019 C 
ENDROOT
BRANCH   2  21
ATOM     21  O   LIG    1       -2.179  -0.972  -0.418  0.00  0.00    -0.388 OA
ATOM     22  H   LIG    1       -2.977  -1.413  -0.096  0.00  0.00    +0.210 HD
ENDBRANCH   2  21
TORSDOF 1
