REMARK  Name = ZINC03776165
REMARK                            x       y       z     vdW  Elec       q    Type
REMARK                         _______ _______ _______ _____ _____    ______ ____
ROOT
ATOM      1  C   LIG    1       -1.952   7.772  -2.353  0.00  0.00    +0.000 C 
ATOM      2  C   LIG    1       -2.029   7.020  -3.523  0.00  0.00    +0.002 C 
ATOM      3  C   LIG    1       -1.808   5.677  -3.510  0.00  0.00    +0.019 C 
ATOM      4  C   LIG    1       -1.496   5.033  -2.300  0.00  0.00    +0.059 C 
ATOM      5  N   LIG    1       -1.280   3.673  -2.326  0.00  0.00    -0.307 NA
ATOM      6  H   LIG    1       -1.341   3.131  -3.196  0.00  0.00    +0.123 HD
ATOM      7  C   LIG    1       -0.980   3.086  -1.130  0.00  0.00    +0.087 C 
ATOM      8  C   LIG    1       -0.759   1.596  -1.222  0.00  0.00    +0.132 C 
ATOM      9  C   LIG    1       -0.013   1.086   0.008  0.00  0.00    +0.033 C 
ATOM     10  C   LIG    1       -0.739   1.585   1.263  0.00  0.00    +0.003 C 
ATOM     11  C   LIG    1       -0.536   3.094   1.368  0.00  0.00    +0.007 C 
ATOM     12  C   LIG    1       -0.883   3.770   0.068  0.00  0.00    +0.025 C 
ATOM     13  C   LIG    1       -1.104   5.144   0.097  0.00  0.00    +0.060 C 
ATOM     14  C   LIG    1       -1.419   5.801  -1.113  0.00  0.00    +0.023 C 
ATOM     15  C   LIG    1       -1.653   7.182  -1.162  0.00  0.00    +0.006 C 
ENDROOT
BRANCH  13  16
ATOM     16  N   LIG    1       -1.017   5.852   1.286  0.00  0.00    -0.327 NA
ATOM     17  H   LIG    1       -0.800   5.390   2.111  0.00  0.00    +0.118 HD
ATOM     18  H   LIG    1       -1.174   6.809   1.293  0.00  0.00    +0.118 HD
ENDBRANCH  13  16
BRANCH   8  19
ATOM     19  O   LIG    1       -2.024   0.937  -1.312  0.00  0.00    -0.390 OA
ATOM     20  H   LIG    1       -2.557   1.210  -2.071  0.00  0.00    +0.210 HD
ENDBRANCH   8  19
TORSDOF 2
