REMARK  Name = ZINC03869855
REMARK                            x       y       z     vdW  Elec       q    Type
REMARK                         _______ _______ _______ _____ _____    ______ ____
ROOT
ATOM      1  C   LIG    1        2.714  -4.241  -0.047  0.00  0.00    +0.092 C 
ENDROOT
BRANCH   1   8
ATOM      2  C   LIG    1       -0.017   1.374   0.010  0.00  0.00    +0.001 A 
ATOM      3  C   LIG    1        1.172   2.089   0.002  0.00  0.00    +0.004 A 
ATOM      4  C   LIG    1        2.386   1.437  -0.013  0.00  0.00    +0.047 A 
ATOM      5  C   LIG    1        2.426   0.048  -0.021  0.00  0.00    +0.143 A 
ATOM      6  C   LIG    1        1.223  -0.675  -0.013  0.00  0.00    +0.064 A 
ATOM      7  C   LIG    1        1.290  -2.151  -0.022  0.00  0.00    +0.200 A 
ATOM      8  C   LIG    1        2.571  -2.741  -0.038  0.00  0.00    +0.084 A 
ATOM      9  C   LIG    1        3.675  -1.949  -0.044  0.00  0.00    +0.292 A 
ATOM     10  O   LIG    1        0.277  -2.832  -0.016  0.00  0.00    -0.287 OA
ATOM     11  O   LIG    1        3.603  -0.612  -0.037  0.00  0.00    -0.425 OA
ATOM     12  C   LIG    1        0.002  -0.004   0.002  0.00  0.00    +0.015 A 
BRANCH   9  13
ATOM     13  O   LIG    1        4.891  -2.533  -0.060  0.00  0.00    -0.480 OA
ATOM     14  H   LIG    1        4.963  -3.467  -0.065  0.00  0.00    +0.295 HD
ENDBRANCH   9  13
ENDBRANCH   1   8
BRANCH   1  15
ATOM     15  C   LIG    1        2.653  -4.760   1.367  0.00  0.00    +0.084 A 
ATOM     16  C   LIG    1        3.816  -4.785   2.165  0.00  0.00    +0.200 A 
ATOM     17  C   LIG    1        3.684  -5.307   3.540  0.00  0.00    +0.064 A 
ATOM     18  C   LIG    1        4.778  -5.369   4.401  0.00  0.00    +0.015 A 
ATOM     19  C   LIG    1        4.612  -5.862   5.677  0.00  0.00    +0.001 A 
ATOM     20  C   LIG    1        3.365  -6.294   6.103  0.00  0.00    +0.004 A 
ATOM     21  C   LIG    1        2.275  -6.237   5.261  0.00  0.00    +0.047 A 
ATOM     22  C   LIG    1        2.422  -5.743   3.970  0.00  0.00    +0.143 A 
ATOM     23  O   LIG    1        1.368  -5.678   3.129  0.00  0.00    -0.425 OA
ATOM     24  O   LIG    1        4.889  -4.392   1.736  0.00  0.00    -0.287 OA
ATOM     25  C   LIG    1        1.476  -5.202   1.883  0.00  0.00    +0.292 A 
BRANCH  25  26
ATOM     26  O   LIG    1        0.374  -5.164   1.105  0.00  0.00    -0.480 OA
ATOM     27  H   LIG    1        0.428  -4.835   0.230  0.00  0.00    +0.295 HD
ENDBRANCH  25  26
ENDBRANCH   1  15
TORSDOF 4
