REMARK  Name = ZINC03871541
REMARK                            x       y       z     vdW  Elec       q    Type
REMARK                         _______ _______ _______ _____ _____    ______ ____
ROOT
ATOM      1  C   LIG    1       -0.017   1.382   0.010  0.00  0.00    +0.042 A 
ATOM      2  C   LIG    1        1.173   2.086   0.002  0.00  0.00    +0.024 A 
ATOM      3  C   LIG    1        2.380   1.409  -0.012  0.00  0.00    +0.060 A 
ATOM      4 CL   LIG    1        3.870   2.298  -0.029  0.00  0.00    -0.082 Cl
ATOM      5  C   LIG    1        2.401   0.023  -0.012  0.00  0.00    +0.068 A 
ATOM      6 CL   LIG    1        3.917  -0.822  -0.025  0.00  0.00    -0.082 Cl
ATOM      7  C   LIG    1        1.216  -0.684  -0.002  0.00  0.00    +0.040 A 
ATOM      8  C   LIG    1        1.234  -2.198   0.009  0.00  0.00    +0.228 C 
ATOM      9  N   LIG    1        0.023  -2.656  -0.673  0.00  0.00    -0.212 N 
ATOM     10  C   LIG    1       -0.228  -3.867  -1.448  0.00  0.00    +0.305 C 
ATOM     11  C   LIG    1       -1.690  -3.724  -1.839  0.00  0.00    +0.341 C 
ATOM     12  O   LIG    1       -2.351  -4.508  -2.493  0.00  0.00    -0.251 OA
ATOM     13  N   LIG    1       -2.100  -2.567  -1.321  0.00  0.00    -0.005 NA
ATOM     14  C   LIG    1       -1.153  -1.944  -0.666  0.00  0.00    +0.370 C 
ATOM     15  N   LIG    1       -1.206  -0.729  -0.016  0.00  0.00    -0.207 N 
ATOM     16  H   LIG    1       -2.017  -0.397   0.399  0.00  0.00    +0.251 HD
ATOM     17  C   LIG    1        0.002  -0.004   0.002  0.00  0.00    +0.099 A 
ENDROOT
TORSDOF 0
