REMARK  Name = ZINC03869888
REMARK                            x       y       z     vdW  Elec       q    Type
REMARK                         _______ _______ _______ _____ _____    ______ ____
ROOT
ATOM      1  C   LIG    1       -0.551  -0.889   2.205  0.00  0.00    +0.226 C 
ATOM      2  C   LIG    1        0.648  -0.555   1.296  0.00  0.00    +0.088 C 
ATOM      3  C   LIG    1        0.002  -0.004   0.002  0.00  0.00    +0.150 C 
ATOM      4  C   LIG    1       -1.435  -0.577   0.087  0.00  0.00    +0.175 C 
ATOM      5  O   LIG    1       -1.742  -0.508   1.497  0.00  0.00    -0.348 OA
ENDROOT
BRANCH   1   8
ATOM      6  C   LIG    1       -1.358   1.434   4.956  0.00  0.00    +0.088 A 
ATOM      7  C   LIG    1       -1.448   0.739   3.802  0.00  0.00    +0.098 A 
ATOM      8  N   LIG    1       -0.453  -0.134   3.457  0.00  0.00    -0.274 N 
ATOM      9  C   LIG    1        0.613  -0.310   4.259  0.00  0.00    +0.331 A 
ATOM     10  N   LIG    1        0.731   0.374   5.412  0.00  0.00    -0.275 N 
ATOM     11  H   LIG    1        1.534   0.237   5.993  0.00  0.00    +0.173 HD
ATOM     12  O   LIG    1        1.484  -1.093   3.935  0.00  0.00    -0.246 OA
ATOM     13  C   LIG    1       -0.229   1.243   5.788  0.00  0.00    +0.254 A 
ATOM     14  O   LIG    1       -0.125   1.859   6.834  0.00  0.00    -0.268 OA
ENDBRANCH   1   8
BRANCH   3  15
ATOM     15  O   LIG    1       -0.017   1.425   0.010  0.00  0.00    -0.389 OA
ATOM     16  H   LIG    1        0.861   1.830   0.004  0.00  0.00    +0.210 HD
ENDBRANCH   3  15
BRANCH   4  17
ATOM     17  C   LIG    1       -2.408   0.286  -0.720  0.00  0.00    +0.206 C 
BRANCH  17  18
ATOM     18  O   LIG    1       -3.699  -0.327  -0.722  0.00  0.00    -0.284 OA
BRANCH  18  19
ATOM     19  P   LIG    1       -4.970   0.310  -1.478  0.00  0.00    +0.472 P 
ATOM     20  O   LIG    1       -4.633   0.543  -2.900  0.00  0.00    -0.228 OA
BRANCH  19  21
ATOM     21  O   LIG    1       -5.362   1.709  -0.783  0.00  0.00    -0.303 OA
ATOM     22  H   LIG    1       -4.612   2.320  -0.842  0.00  0.00    +0.222 HD
ENDBRANCH  19  21
BRANCH  19  23
ATOM     23  O   LIG    1       -6.216  -0.705  -1.381  0.00  0.00    -0.303 OA
ATOM     24  H   LIG    1       -5.980  -1.548  -1.799  0.00  0.00    +0.222 HD
ENDBRANCH  19  23
ENDBRANCH  18  19
ENDBRANCH  17  18
ENDBRANCH   4  17
TORSDOF 7
