REMARK  Name = ZINC03871106
REMARK                            x       y       z     vdW  Elec       q    Type
REMARK                         _______ _______ _______ _____ _____    ______ ____
ROOT
ATOM      1  C   LIG    1       -1.298   2.050   0.019  0.00  0.00    +0.226 C 
ATOM      2  C   LIG    1       -1.454   2.833   1.341  0.00  0.00    +0.088 C 
ATOM      3  C   LIG    1       -2.122   4.152   0.865  0.00  0.00    +0.150 C 
ATOM      4  C   LIG    1       -1.466   4.328  -0.527  0.00  0.00    +0.175 C 
ATOM      5  O   LIG    1       -1.338   2.998  -1.053  0.00  0.00    -0.348 OA
ENDROOT
BRANCH   1  15
ATOM      6  C   LIG    1        1.152   2.054   0.002  0.00  0.00    +0.113 A 
ATOM      7  C   LIG    1        2.334   1.401  -0.013  0.00  0.00    +0.098 A 
ATOM      8 BR   LIG    1        3.962   2.364  -0.025  0.00  0.00    -0.043 Br
ATOM      9  C   LIG    1        2.338  -0.015  -0.021  0.00  0.00    +0.268 A 
ATOM     10  N   LIG    1        1.166  -0.680  -0.013  0.00  0.00    -0.274 N 
ATOM     11  C   LIG    1        0.002  -0.004   0.002  0.00  0.00    +0.331 A 
ATOM     12  O   LIG    1       -1.048  -0.618   0.008  0.00  0.00    -0.246 OA
ATOM     13  H   LIG    1        1.160  -1.680  -0.018  0.00  0.00    +0.173 HD
ATOM     14  O   LIG    1        3.392  -0.627  -0.034  0.00  0.00    -0.267 OA
ATOM     15  N   LIG    1       -0.016   1.341   0.009  0.00  0.00    -0.273 N 
ENDBRANCH   1  15
BRANCH   3  16
ATOM     16  O   LIG    1       -1.791   5.238   1.732  0.00  0.00    -0.389 OA
ATOM     17  H   LIG    1       -2.090   5.119   2.644  0.00  0.00    +0.210 HD
ENDBRANCH   3  16
BRANCH   4  18
ATOM     18  C   LIG    1       -2.363   5.174  -1.434  0.00  0.00    +0.206 C 
BRANCH  18  19
ATOM     19  O   LIG    1       -1.692   5.423  -2.670  0.00  0.00    -0.284 OA
BRANCH  19  20
ATOM     20  P   LIG    1       -2.343   6.284  -3.864  0.00  0.00    +0.472 P 
ATOM     21  O   LIG    1       -3.656   5.707  -4.229  0.00  0.00    -0.228 OA
BRANCH  20  22
ATOM     22  O   LIG    1       -1.368   6.250  -5.145  0.00  0.00    -0.303 OA
ATOM     23  H   LIG    1       -1.248   5.333  -5.436  0.00  0.00    +0.222 HD
ENDBRANCH  20  22
BRANCH  20  24
ATOM     24  O   LIG    1       -2.542   7.807  -3.381  0.00  0.00    -0.303 OA
ATOM     25  H   LIG    1       -3.130   7.827  -2.609  0.00  0.00    +0.222 HD
ENDBRANCH  20  24
ENDBRANCH  19  20
ENDBRANCH  18  19
ENDBRANCH   4  18
TORSDOF 7
