REMARK  Name = ZINC03872694
REMARK                            x       y       z     vdW  Elec       q    Type
REMARK                         _______ _______ _______ _____ _____    ______ ____
ROOT
ATOM      1  C   LIG    1        0.002  -0.004   0.002  0.00  0.00    +0.178 C 
ATOM      2  C   LIG    1       -1.430  -0.534  -0.112  0.00  0.00    +0.177 C 
ATOM      3  C   LIG    1       -1.407  -2.065  -0.070  0.00  0.00    +0.179 C 
ATOM      4  C   LIG    1       -0.731  -2.517   1.229  0.00  0.00    +0.205 C 
ATOM      5  C   LIG    1        0.661  -1.898   1.312  0.00  0.00    +0.242 C 
ATOM      6  C   LIG    1        1.344  -2.309   2.596  0.00  0.00    +0.272 C 
ATOM      7  N   LIG    1        2.444  -2.992   2.217  0.00  0.00    -0.264 N 
ATOM      8  H   LIG    1        3.083  -3.381   2.834  0.00  0.00    +0.157 HD
ATOM      9  C   LIG    1        2.543  -3.066   0.884  0.00  0.00    +0.139 C 
ATOM     10  S   LIG    1        3.820  -3.862   0.068  0.00  0.00    -0.018 S 
ATOM     11  O   LIG    1        0.980  -2.074   3.728  0.00  0.00    -0.270 OA
ATOM     12  N   LIG    1        1.527  -2.443   0.258  0.00  0.00    -0.289 N 
ATOM     13  H   LIG    1        1.393  -2.368  -0.700  0.00  0.00    +0.151 HD
ATOM     14  O   LIG    1        0.589  -0.480   1.216  0.00  0.00    -0.338 OA
ENDROOT
BRANCH   2  15
ATOM     15  O   LIG    1       -2.210  -0.037   0.977  0.00  0.00    -0.386 OA
ATOM     16  H   LIG    1       -2.265   0.928   1.013  0.00  0.00    +0.210 HD
ENDBRANCH   2  15
BRANCH   3  17
ATOM     17  O   LIG    1       -2.746  -2.564  -0.113  0.00  0.00    -0.386 OA
ATOM     18  H   LIG    1       -3.235  -2.308  -0.907  0.00  0.00    +0.210 HD
ENDBRANCH   3  17
BRANCH   4  19
ATOM     19  O   LIG    1       -1.512  -2.091   2.348  0.00  0.00    -0.384 OA
ATOM     20  H   LIG    1       -2.412  -2.444   2.357  0.00  0.00    +0.210 HD
ENDBRANCH   4  19
BRANCH   1  21
ATOM     21  C   LIG    1       -0.019   1.526   0.010  0.00  0.00    +0.190 C 
BRANCH  21  22
ATOM     22  O   LIG    1        1.322   2.020   0.000  0.00  0.00    -0.392 OA
ATOM     23  H   LIG    1        1.385   2.985   0.005  0.00  0.00    +0.210 HD
ENDBRANCH  21  22
ENDBRANCH   1  21
TORSDOF 5
