REMARK  Name = ZINC03820936
REMARK                            x       y       z     vdW  Elec       q    Type
REMARK                         _______ _______ _______ _____ _____    ______ ____
ROOT
ATOM      1  C   LIG    1        2.744   1.469  -0.026  0.00  0.00    +0.211 A 
ATOM      2  C   LIG    1        1.374   1.971  -0.069  0.00  0.00    +0.047 A 
ATOM      3  C   LIG    1        0.117   1.358  -0.118  0.00  0.00    +0.036 A 
ATOM      4  C   LIG    1       -1.020   2.141  -0.154  0.00  0.00    +0.030 A 
ATOM      5  C   LIG    1       -0.917   3.533  -0.130  0.00  0.00    +0.025 A 
ATOM      6  C   LIG    1        0.303   4.142  -0.082  0.00  0.00    +0.029 A 
ATOM      7  C   LIG    1        1.466   3.375  -0.050  0.00  0.00    +0.068 A 
ATOM      8  N   LIG    1        2.803   3.682  -0.001  0.00  0.00    -0.275 N 
ATOM      9  H   LIG    1        3.185   4.606   0.022  0.00  0.00    +0.189 HD
ATOM     10  N   LIG    1        3.543   2.496   0.012  0.00  0.00    -0.154 NA
ENDROOT
BRANCH   4  11
ATOM     11  N   LIG    1       -2.281   1.537  -0.209  0.00  0.00    -0.333 N 
ATOM     12  C   LIG    1       -2.470   0.609   0.914  0.00  0.00    +0.086 C 
ATOM     13  C   LIG    1       -3.825  -0.089   0.774  0.00  0.00    -0.063 C 
ATOM     14  N   LIG    1       -4.899   0.921   0.750  0.00  0.00    +0.381 N 
ATOM     15  H   LIG    1       -5.806   0.450   0.648  0.00  0.00    -0.086 HD
ATOM     16  H   LIG    1       -4.886   1.451   1.629  0.00  0.00    -0.086 HD
ATOM     17  C   LIG    1       -4.703   1.849  -0.380  0.00  0.00    -0.063 C 
ATOM     18  C   LIG    1       -3.348   2.546  -0.240  0.00  0.00    +0.086 C 
ENDBRANCH   4  11
BRANCH   1  19
ATOM     19  S   LIG    1        3.229  -0.225  -0.027  0.00  0.00    +0.045 S 
ATOM     20  O   LIG    1        2.182  -0.948   0.606  0.00  0.00    -0.163 OA
ATOM     21  O   LIG    1        4.571  -0.263   0.439  0.00  0.00    -0.163 OA
BRANCH  19  30
ATOM     22  C   LIG    1        5.997   0.874  -4.416  0.00  0.00    +0.001 A 
ATOM     23  C   LIG    1        5.983   1.307  -3.091  0.00  0.00    +0.001 A 
ATOM     24  C   LIG    1        5.102   0.789  -2.193  0.00  0.00    +0.010 A 
ATOM     25  C   LIG    1        4.189  -0.197  -2.605  0.00  0.00    +0.007 A 
ATOM     26  C   LIG    1        4.202  -0.638  -3.952  0.00  0.00    -0.016 A 
ATOM     27  C   LIG    1        3.290  -1.624  -4.363  0.00  0.00    +0.008 A 
ATOM     28  C   LIG    1        2.408  -2.143  -3.465  0.00  0.00    +0.002 A 
ATOM     29  C   LIG    1        2.400  -1.715  -2.139  0.00  0.00    +0.028 A 
ATOM     30  C   LIG    1        3.264  -0.756  -1.706  0.00  0.00    +0.103 A 
ATOM     31  C   LIG    1        5.128  -0.079  -4.850  0.00  0.00    +0.008 A 
ENDBRANCH  19  30
ENDBRANCH   1  19
TORSDOF 3
