REMARK  Name = ZINC03632921
REMARK                            x       y       z     vdW  Elec       q    Type
REMARK                         _______ _______ _______ _____ _____    ______ ____
ROOT
ATOM      1  C   LIG    1       -4.268   2.706   4.606  0.00  0.00    -0.047 A 
ATOM      2  C   LIG    1       -4.274   3.362   3.389  0.00  0.00    +0.004 A 
ATOM      3  C   LIG    1       -3.593   2.826   2.312  0.00  0.00    +0.004 A 
ATOM      4  C   LIG    1       -2.906   1.634   2.452  0.00  0.00    -0.049 A 
ATOM      5  C   LIG    1       -2.906   0.976   3.667  0.00  0.00    +0.004 A 
ATOM      6  C   LIG    1       -3.583   1.514   4.745  0.00  0.00    +0.004 A 
ENDROOT
BRANCH   1   7
ATOM      7  C   LIG    1       -5.010   3.291   5.780  0.00  0.00    +0.035 C 
BRANCH   7   9
ATOM      8  C   LIG    1       -7.198   3.357   6.984  0.00  0.00    +0.004 C 
ATOM      9  C   LIG    1       -6.446   2.763   5.791  0.00  0.00    +0.001 C 
ENDBRANCH   7   9
ENDBRANCH   1   7
BRANCH   4  10
ATOM     10  C   LIG    1       -2.164   1.050   1.278  0.00  0.00    +0.019 C 
BRANCH  10  11
ATOM     11  C   LIG    1       -0.729   1.579   1.267  0.00  0.00    -0.071 C 
ATOM     12  C   LIG    1       -0.013   1.086   0.008  0.00  0.00    -0.013 C 
BRANCH  11  13
ATOM     13  N   LIG    1       -0.021   1.084   2.462  0.00  0.00    +0.379 N 
ATOM     14  H   LIG    1       -0.679   1.035   3.249  0.00  0.00    -0.086 HD
ATOM     15  H   LIG    1        0.353   0.147   2.270  0.00  0.00    -0.086 HD
ATOM     16  C   LIG    1        1.090   1.990   2.812  0.00  0.00    -0.100 C 
ENDBRANCH  11  13
ENDBRANCH  10  11
ENDBRANCH   4  10
TORSDOF 5
