REMARK  Name = ZINC03647690
REMARK                            x       y       z     vdW  Elec       q    Type
REMARK                         _______ _______ _______ _____ _____    ______ ____
ROOT
ATOM      1  C   LIG    1       -0.722   3.167  -0.004  0.00  0.00    +0.130 C 
ATOM      2  C   LIG    1        0.763   3.095  -0.429  0.00  0.00    +0.138 C 
ATOM      3  O   LIG    1        1.149   1.776   0.001  0.00  0.00    -0.278 OA
ATOM      4  N   LIG    1       -0.011   0.966   0.007  0.00  0.00    -0.194 N 
ATOM      5  H   LIG    1        0.002  -0.004   0.002  0.00  0.00    +0.182 HD
ATOM      6  C   LIG    1       -1.136   1.707   0.016  0.00  0.00    +0.238 C 
ATOM      7  O   LIG    1       -2.273   1.285   0.039  0.00  0.00    -0.274 OA
ENDROOT
BRANCH   2   8
ATOM      8  C   LIG    1        1.586   4.164   0.292  0.00  0.00    -0.052 C 
BRANCH   8   9
ATOM      9  N   LIG    1        2.989   4.069  -0.150  0.00  0.00    +0.380 N 
ATOM     10  H   LIG    1        3.037   4.248  -1.160  0.00  0.00    -0.090 HD
ATOM     11  H   LIG    1        3.352   3.137   0.040  0.00  0.00    -0.090 HD
ATOM     12  H   LIG    1        3.556   4.760   0.337  0.00  0.00    -0.090 HD
ENDBRANCH   8   9
ENDBRANCH   2   8
TORSDOF 2
