REMARK  Name = ZINC03871104
REMARK                            x       y       z     vdW  Elec       q    Type
REMARK                         _______ _______ _______ _____ _____    ______ ____
ROOT
ATOM      1  C   LIG    1        1.805   2.468  -2.204  0.00  0.00    +0.226 C 
ATOM      2  C   LIG    1        2.033   1.260  -1.275  0.00  0.00    +0.088 C 
ATOM      3  C   LIG    1        1.260   1.623   0.016  0.00  0.00    +0.150 C 
ATOM      4  C   LIG    1        1.146   3.164  -0.096  0.00  0.00    +0.175 C 
ATOM      5  O   LIG    1        0.944   3.385  -1.509  0.00  0.00    -0.348 OA
ENDROOT
BRANCH   1  15
ATOM      6  C   LIG    1        3.417   4.285  -1.874  0.00  0.00    +0.113 A 
ATOM      7  C   LIG    1        4.599   4.878  -2.145  0.00  0.00    +0.098 A 
ATOM      8 BR   LIG    1        5.083   6.490  -1.283  0.00  0.00    -0.043 Br
ATOM      9  C   LIG    1        5.470   4.279  -3.088  0.00  0.00    +0.268 A 
ATOM     10  N   LIG    1        5.104   3.129  -3.690  0.00  0.00    -0.274 N 
ATOM     11  C   LIG    1        3.921   2.557  -3.397  0.00  0.00    +0.331 A 
ATOM     12  O   LIG    1        3.605   1.520  -3.947  0.00  0.00    -0.246 OA
ATOM     13  H   LIG    1        5.713   2.700  -4.357  0.00  0.00    +0.173 HD
ATOM     14  O   LIG    1        6.539   4.798  -3.354  0.00  0.00    -0.267 OA
ATOM     15  N   LIG    1        3.085   3.115  -2.503  0.00  0.00    -0.273 N 
ENDBRANCH   1  15
BRANCH   3  16
ATOM     16  O   LIG    1       -0.034   1.015   0.024  0.00  0.00    -0.389 OA
ATOM     17  H   LIG    1       -0.014   0.049   0.047  0.00  0.00    +0.210 HD
ENDBRANCH   3  16
BRANCH   4  18
ATOM     18  C   LIG    1       -0.052   3.676   0.707  0.00  0.00    +0.206 C 
BRANCH  18  19
ATOM     19  O   LIG    1       -0.067   5.104   0.684  0.00  0.00    -0.284 OA
BRANCH  19  20
ATOM     20  P   LIG    1       -1.192   5.982   1.428  0.00  0.00    +0.472 P 
ATOM     21  O   LIG    1       -2.533   5.559   0.967  0.00  0.00    -0.228 OA
BRANCH  20  22
ATOM     22  O   LIG    1       -0.973   7.540   1.083  0.00  0.00    -0.303 OA
ATOM     23  H   LIG    1       -1.042   7.671   0.125  0.00  0.00    +0.222 HD
ENDBRANCH  20  22
BRANCH  20  24
ATOM     24  O   LIG    1       -1.078   5.764   3.019  0.00  0.00    -0.303 OA
ATOM     25  H   LIG    1       -1.210   4.826   3.227  0.00  0.00    +0.222 HD
ENDBRANCH  20  24
ENDBRANCH  19  20
ENDBRANCH  18  19
ENDBRANCH   4  18
TORSDOF 7
