REMARK  Name = ZINC03860582
REMARK                            x       y       z     vdW  Elec       q    Type
REMARK                         _______ _______ _______ _____ _____    ______ ____
ROOT
ATOM      1  C   LIG    1       -1.329   1.940   0.019  0.00  0.00    +0.131 C 
ENDROOT
BRANCH   1   2
ATOM      2  C   LIG    1       -0.014   1.204   0.009  0.00  0.00    +0.305 C 
ATOM      3  O   LIG    1        0.002  -0.004   0.002  0.00  0.00    -0.251 OA
BRANCH   2   4
ATOM      4  O   LIG    1        1.139   1.891   0.001  0.00  0.00    -0.481 OA
ATOM      5  H   LIG    1        1.126   2.828   0.006  0.00  0.00    +0.295 HD
ENDBRANCH   2   4
ENDBRANCH   1   2
BRANCH   1   6
ATOM      6  C   LIG    1       -2.479   0.930   0.019  0.00  0.00    +0.077 C 
BRANCH   6   7
ATOM      7  S   LIG    1       -4.062   1.815   0.031  0.00  0.00    -0.178 S 
ATOM      8  H   LIG    1       -4.983   0.835   0.030  0.00  0.00    +0.102 HD
ENDBRANCH   6   7
ENDBRANCH   1   6
TORSDOF 4
