REMARK  Name = ZINC03830613
REMARK                            x       y       z     vdW  Elec       q    Type
REMARK                         _______ _______ _______ _____ _____    ______ ____
ROOT
ATOM      1  C   LIG    1       -0.304   1.500  -0.156  0.00  0.00    +0.007 C 
ATOM      2  C   LIG    1       -0.140  -0.019  -0.080  0.00  0.00    -0.017 C 
ATOM      3  C   LIG    1        0.594  -0.521  -1.322  0.00  0.00    -0.060 C 
ATOM      4  C   LIG    1        1.876   0.268  -1.522  0.00  0.00    +0.020 C 
ATOM      5  C   LIG    1        2.629   0.461  -0.234  0.00  0.00    -0.045 A 
ATOM      6  C   LIG    1        3.931   0.945  -0.315  0.00  0.00    +0.007 A 
ATOM      7  C   LIG    1        4.672   1.159   0.827  0.00  0.00    +0.045 A 
ATOM      8  C   LIG    1        4.117   0.894   2.070  0.00  0.00    +0.117 A 
ATOM      9  C   LIG    1        2.823   0.407   2.152  0.00  0.00    +0.049 A 
ATOM     10  C   LIG    1        2.085   0.184   0.999  0.00  0.00    -0.035 A 
ATOM     11  N   LIG    1        0.843  -1.955  -1.260  0.00  0.00    +0.382 N 
ATOM     12  H   LIG    1       -0.042  -2.440  -1.236  0.00  0.00    -0.081 HD
ATOM     13  C   LIG    1        1.591  -2.344  -0.082  0.00  0.00    -0.078 C 
ATOM     14  C   LIG    1        0.832  -1.922   1.181  0.00  0.00    -0.007 C 
ATOM     15  C   LIG    1        0.694  -0.389   1.152  0.00  0.00    -0.007 C 
ATOM     16  C   LIG    1        0.031   0.132   2.429  0.00  0.00    +0.016 C 
ENDROOT
BRANCH   8  17
ATOM     17  O   LIG    1        4.839   1.110   3.201  0.00  0.00    -0.507 OA
ATOM     18  H   LIG    1        4.739   1.999   3.568  0.00  0.00    +0.292 HD
ENDBRANCH   8  17
BRANCH  11  19
ATOM     19  C   LIG    1        1.579  -2.365  -2.462  0.00  0.00    -0.075 C 
BRANCH  19  20
ATOM     20  C   LIG    1        1.704  -3.890  -2.488  0.00  0.00    -0.028 C 
ATOM     21  C   LIG    1        3.111  -4.485  -2.405  0.00  0.00    +0.002 C 
ATOM     22  C   LIG    1        2.340  -4.526  -3.726  0.00  0.00    +0.002 C 
ENDBRANCH  19  20
ENDBRANCH  11  19
TORSDOF 3
