REMARK  Name = ZINC03820709
REMARK                            x       y       z     vdW  Elec       q    Type
REMARK                         _______ _______ _______ _____ _____    ______ ____
ROOT
ATOM      1  C   LIG    1        3.458   6.113  -0.213  0.00  0.00    +0.096 C 
ENDROOT
BRANCH   1   4
ATOM      2  N   LIG    1        2.275   3.952   0.002  0.00  0.00    -0.284 N 
ATOM      3  H   LIG    1        3.140   3.518   0.069  0.00  0.00    +0.155 HD
ATOM      4  C   LIG    1        2.199   5.294  -0.093  0.00  0.00    +0.217 C 
ATOM      5  O   LIG    1        1.118   5.843  -0.081  0.00  0.00    -0.275 OA
BRANCH   2   8
ATOM      6  C   LIG    1       -1.144   2.798  -0.692  0.00  0.00    +0.021 A 
ATOM      7  C   LIG    1       -0.010   3.593  -0.724  0.00  0.00    +0.026 A 
ATOM      8  C   LIG    1        1.105   3.183   0.003  0.00  0.00    +0.052 A 
ATOM      9  C   LIG    1        1.040   2.000   0.728  0.00  0.00    +0.134 A 
ATOM     10  N   LIG    1       -0.059   1.274   0.730  0.00  0.00    -0.261 NA
ATOM     11  C   LIG    1       -1.134   1.637   0.058  0.00  0.00    +0.111 A 
ENDBRANCH   2   8
ENDBRANCH   1   4
BRANCH   1  12
ATOM     12  C   LIG    1        3.095   7.596  -0.304  0.00  0.00    +0.009 C 
BRANCH  12  13
ATOM     13  C   LIG    1        4.373   8.428  -0.427  0.00  0.00    +0.000 C 
BRANCH  13  14
ATOM     14  C   LIG    1        4.010   9.912  -0.517  0.00  0.00    +0.000 C 
BRANCH  14  15
ATOM     15  C   LIG    1        5.288  10.743  -0.640  0.00  0.00    +0.009 C 
BRANCH  15  16
ATOM     16  C   LIG    1        4.925  12.227  -0.731  0.00  0.00    +0.098 C 
BRANCH  16  17
ATOM     17  C   LIG    1        6.184  13.046  -0.851  0.00  0.00    +0.235 C 
ATOM     18  N   LIG    1        6.109  14.388  -0.946  0.00  0.00    -0.197 N 
ATOM     19  H   LIG    1        5.244  14.827  -0.936  0.00  0.00    +0.182 HD
ATOM     20  O   LIG    1        7.266  12.497  -0.864  0.00  0.00    -0.274 OA
BRANCH  18  21
ATOM     21  O   LIG    1        7.292  15.158  -1.059  0.00  0.00    -0.295 OA
ATOM     22  H   LIG    1        7.137  16.110  -1.121  0.00  0.00    +0.241 HD
ENDBRANCH  18  21
ENDBRANCH  16  17
ENDBRANCH  15  16
ENDBRANCH  14  15
ENDBRANCH  13  14
ENDBRANCH  12  13
ENDBRANCH   1  12
TORSDOF 9
