REMARK  Name = ZINC03786099
REMARK                            x       y       z     vdW  Elec       q    Type
REMARK                         _______ _______ _______ _____ _____    ______ ____
ROOT
ATOM      1  C   LIG    1        0.083  -3.296  -1.667  0.00  0.00    +0.001 C 
ATOM      2  C   LIG    1       -1.322  -3.934  -1.645  0.00  0.00    -0.009 C 
ATOM      3  C   LIG    1       -1.014  -5.455  -1.640  0.00  0.00    -0.020 C 
ATOM      4  C   LIG    1        0.268  -5.512  -0.772  0.00  0.00    -0.078 C 
ATOM      5  N   LIG    1        1.030  -4.296  -1.141  0.00  0.00    +0.384 N 
ATOM      6  H   LIG    1        1.712  -4.522  -1.849  0.00  0.00    -0.081 HD
ATOM      7  C   LIG    1        1.710  -3.758   0.044  0.00  0.00    -0.095 C 
ENDROOT
BRANCH   1  11
ATOM      8  C   LIG    1        0.501   1.531  -0.092  0.00  0.00    +0.069 C 
ATOM      9  C   LIG    1        0.279   0.041  -0.088  0.00  0.00    +0.081 A 
ATOM     10  C   LIG    1        0.365  -0.810  -1.205  0.00  0.00    +0.069 A 
ATOM     11  C   LIG    1        0.100  -2.066  -0.796  0.00  0.00    +0.124 A 
ATOM     12  O   LIG    1       -0.146  -2.030   0.522  0.00  0.00    -0.361 OA
ATOM     13  N   LIG    1       -0.022  -0.685   0.951  0.00  0.00    -0.083 NA
ENDBRANCH   1  11
TORSDOF 1
