REMARK  Name = ZINC03805040
REMARK                            x       y       z     vdW  Elec       q    Type
REMARK                         _______ _______ _______ _____ _____    ______ ____
ROOT
ATOM      1  C   LIG    1       -0.586   3.604   0.318  0.00  0.00    +0.008 C 
ATOM      2  C   LIG    1       -0.809   3.073  -1.100  0.00  0.00    -0.000 C 
ATOM      3  C   LIG    1       -2.241   3.382  -1.588  0.00  0.00    +0.141 C 
ATOM      4  N   LIG    1       -3.038   2.200  -1.238  0.00  0.00    -0.185 N 
ATOM      5  C   LIG    1       -2.251   1.142  -0.976  0.00  0.00    +0.224 C 
ATOM      6  O   LIG    1       -2.651   0.038  -0.669  0.00  0.00    -0.275 OA
ATOM      7  C   LIG    1       -0.795   1.527  -1.120  0.00  0.00    +0.019 C 
ENDROOT
BRANCH   7   8
ATOM      8  N   LIG    1       -0.025   1.014   0.027  0.00  0.00    +0.386 N 
ATOM      9  H   LIG    1       -0.476   1.316   0.899  0.00  0.00    -0.089 HD
ATOM     10  H   LIG    1        0.925   1.379   0.001  0.00  0.00    -0.089 HD
ATOM     11  H   LIG    1        0.002  -0.004   0.002  0.00  0.00    -0.089 HD
ENDBRANCH   7   8
BRANCH   4  12
ATOM     12  O   LIG    1       -4.452   2.177  -1.184  0.00  0.00    -0.293 OA
ATOM     13  H   LIG    1       -4.823   1.318  -0.937  0.00  0.00    +0.242 HD
ENDBRANCH   4  12
TORSDOF 2
