REMARK  Name = ZINC03798289
REMARK                            x       y       z     vdW  Elec       q    Type
REMARK                         _______ _______ _______ _____ _____    ______ ____
ROOT
ATOM      1  N   LIG    1        7.941   0.220   4.755  0.00  0.00    +0.380 N 
ATOM      2  H   LIG    1        8.040  -0.802   4.782  0.00  0.00    -0.082 HD
ATOM      3  C   LIG    1        8.081   0.678   3.357  0.00  0.00    -0.078 C 
ATOM      4  C   LIG    1        7.055  -0.053   2.489  0.00  0.00    -0.013 C 
ATOM      5  C   LIG    1        5.645   0.264   2.997  0.00  0.00    +0.011 C 
ATOM      6  C   LIG    1        5.537  -0.148   4.468  0.00  0.00    -0.013 C 
ATOM      7  C   LIG    1        6.607   0.586   5.278  0.00  0.00    -0.078 C 
ENDROOT
BRANCH   1   8
ATOM      8  C   LIG    1        8.995   0.826   5.594  0.00  0.00    -0.079 C 
BRANCH   8   9
ATOM      9  C   LIG    1       10.345   0.671   4.891  0.00  0.00    -0.014 C 
BRANCH   9  10
ATOM     10  C   LIG    1       11.448   1.271   5.765  0.00  0.00    +0.033 C 
BRANCH  10  14
ATOM     11  C   LIG    1       15.218   0.839   3.801  0.00  0.00    +0.120 A 
ATOM     12  C   LIG    1       14.449   1.974   3.587  0.00  0.00    +0.046 A 
ATOM     13  C   LIG    1       13.231   2.111   4.223  0.00  0.00    +0.007 A 
ATOM     14  C   LIG    1       12.777   1.119   5.072  0.00  0.00    -0.047 A 
ATOM     15  C   LIG    1       13.545  -0.010   5.292  0.00  0.00    +0.007 A 
ATOM     16  C   LIG    1       14.761  -0.155   4.654  0.00  0.00    +0.046 A 
BRANCH  11  18
ATOM     17  C   LIG    1       17.155  -0.493   3.444  0.00  0.00    +0.277 C 
ATOM     18  O   LIG    1       16.417   0.701   3.176  0.00  0.00    -0.495 OA
ENDBRANCH  11  18
ENDBRANCH  10  14
ENDBRANCH   9  10
ENDBRANCH   8   9
ENDBRANCH   1   8
BRANCH   5  19
ATOM     19  C   LIG    1        4.618  -0.512   2.171  0.00  0.00    +0.164 C 
BRANCH  19  20
ATOM     20  O   LIG    1        4.639  -0.044   0.821  0.00  0.00    -0.367 OA
BRANCH  20  21
ATOM     21  C   LIG    1        3.711  -0.707  -0.039  0.00  0.00    +0.178 C 
BRANCH  21  22
ATOM     22  C   LIG    1        4.256  -0.729  -1.444  0.00  0.00    -0.015 A 
ATOM     23  C   LIG    1        4.993   0.341  -1.917  0.00  0.00    +0.006 A 
ATOM     24  C   LIG    1        5.497   0.318  -3.204  0.00  0.00    +0.000 A 
ATOM     25  C   LIG    1        5.255  -0.769  -4.022  0.00  0.00    +0.000 A 
ATOM     26  C   LIG    1        4.513  -1.836  -3.551  0.00  0.00    +0.000 A 
ATOM     27  C   LIG    1        4.013  -1.816  -2.263  0.00  0.00    +0.006 A 
ENDBRANCH  21  22
BRANCH  21  28
ATOM     28  C   LIG    1        2.396   0.029  -0.022  0.00  0.00    -0.015 A 
ATOM     29  C   LIG    1        1.208  -0.679  -0.014  0.00  0.00    +0.006 A 
ATOM     30  C   LIG    1        0.002  -0.004   0.002  0.00  0.00    +0.000 A 
ATOM     31  C   LIG    1       -0.017   1.378   0.010  0.00  0.00    +0.000 A 
ATOM     32  C   LIG    1        1.171   2.086   0.002  0.00  0.00    +0.000 A 
ATOM     33  C   LIG    1        2.377   1.411  -0.014  0.00  0.00    +0.006 A 
ENDBRANCH  21  28
ENDBRANCH  20  21
ENDBRANCH  19  20
ENDBRANCH   5  19
TORSDOF 10
