REMARK  Name = ZINC03824468
REMARK                            x       y       z     vdW  Elec       q    Type
REMARK                         _______ _______ _______ _____ _____    ______ ____
ROOT
ATOM      1  C   LIG    1       -2.557  -0.279   1.961  0.00  0.00    +0.126 A 
ATOM      2  C   LIG    1       -3.229   0.175   0.830  0.00  0.00    +0.054 A 
ATOM      3  C   LIG    1       -3.981   1.329   0.871  0.00  0.00    +0.053 A 
ATOM      4  C   LIG    1       -4.071   2.058   2.078  0.00  0.00    +0.094 A 
ATOM      5  C   LIG    1       -3.382   1.583   3.221  0.00  0.00    +0.034 A 
ATOM      6  C   LIG    1       -3.473   2.311   4.422  0.00  0.00    +0.014 A 
ATOM      7  C   LIG    1       -4.226   3.450   4.430  0.00  0.00    +0.020 A 
ATOM      8  C   LIG    1       -4.878   3.861   3.270  0.00  0.00    +0.111 A 
ATOM      9  N   LIG    1       -4.791   3.179   2.153  0.00  0.00    -0.253 NA
ATOM     10  C   LIG    1       -2.630   0.400   3.139  0.00  0.00    +0.156 A 
ENDROOT
BRANCH   1  11
ATOM     11  S   LIG    1       -1.605  -1.759   1.869  0.00  0.00    +0.028 S 
ATOM     12  O   LIG    1       -1.992  -2.560   2.978  0.00  0.00    -0.164 OA
ATOM     13  O   LIG    1       -1.697  -2.218   0.528  0.00  0.00    -0.164 OA
BRANCH  11  19
ATOM     14  C   LIG    1        0.731  -0.503   1.223  0.00  0.00    -0.020 A 
ATOM     15  C   LIG    1        2.050  -0.148   1.434  0.00  0.00    +0.006 A 
ATOM     16  C   LIG    1        2.719  -0.606   2.554  0.00  0.00    +0.000 A 
ATOM     17  C   LIG    1        2.068  -1.419   3.463  0.00  0.00    +0.002 A 
ATOM     18  C   LIG    1        0.749  -1.773   3.252  0.00  0.00    +0.027 A 
ATOM     19  C   LIG    1        0.079  -1.312   2.135  0.00  0.00    +0.097 A 
BRANCH  14  21
ATOM     20  C   LIG    1       -0.019   1.526   0.010  0.00  0.00    +0.012 C 
ATOM     21  C   LIG    1        0.002  -0.004   0.002  0.00  0.00    +0.015 C 
ATOM     22  C   LIG    1        0.718  -0.497  -1.257  0.00  0.00    +0.012 C 
ENDBRANCH  14  21
ENDBRANCH  11  19
ENDBRANCH   1  11
BRANCH   3  23
ATOM     23  N   LIG    1       -4.648   1.773  -0.270  0.00  0.00    -0.356 N 
ATOM     24  H   LIG    1       -5.177   2.586  -0.237  0.00  0.00    +0.142 HD
ATOM     25  H   LIG    1       -4.584   1.270  -1.097  0.00  0.00    +0.142 HD
ENDBRANCH   3  23
BRANCH  10  26
ATOM     26  N   LIG    1       -1.912  -0.105   4.331  0.00  0.00    +0.009 N 
ATOM     27  O   LIG    1       -0.776   0.248   4.548  0.00  0.00    -0.130 OA
BRANCH  26  28
ATOM     28  O   LIG    1       -2.462  -0.871   5.089  0.00  0.00    -0.396 OA
ATOM     29  H   LIG    1       -3.342  -1.145   4.921  0.00  0.00    +0.329 HD
ENDBRANCH  26  28
ENDBRANCH  10  26
TORSDOF 6
