REMARK  Name = ZINC03834032
REMARK                            x       y       z     vdW  Elec       q    Type
REMARK                         _______ _______ _______ _____ _____    ______ ____
ROOT
ATOM      1  C   LIG    1        2.336   2.061  -0.111  0.00  0.00    +0.046 C 
ATOM      2  C   LIG    1        0.860   2.324  -0.267  0.00  0.00    -0.022 A 
ATOM      3  C   LIG    1        0.257   3.562  -0.495  0.00  0.00    -0.023 A 
ATOM      4  C   LIG    1       -1.083   3.366  -0.573  0.00  0.00    +0.017 A 
ATOM      5  C   LIG    1       -2.112   4.441  -0.811  0.00  0.00    +0.063 C 
ATOM      6  N   LIG    1       -1.347   2.046  -0.409  0.00  0.00    -0.358 N 
ATOM      7  H   LIG    1       -2.227   1.638  -0.425  0.00  0.00    +0.166 HD
ATOM      8  C   LIG    1       -0.156   1.381  -0.211  0.00  0.00    +0.043 A 
ENDROOT
BRANCH   8   9
ATOM      9  C   LIG    1        0.002  -0.004   0.002  0.00  0.00    +0.039 C 
ATOM     10  C   LIG    1       -0.966  -0.712   0.689  0.00  0.00    +0.048 C 
ATOM     11  C   LIG    1       -1.046  -2.178   0.876  0.00  0.00    +0.008 A 
ATOM     12  C   LIG    1       -0.245  -3.237   0.462  0.00  0.00    +0.010 A 
ATOM     13  C   LIG    1       -0.590  -4.529   0.803  0.00  0.00    +0.001 A 
ATOM     14  C   LIG    1       -1.727  -4.769   1.557  0.00  0.00    +0.002 A 
ATOM     15  C   LIG    1       -2.528  -3.725   1.973  0.00  0.00    +0.024 A 
ATOM     16  C   LIG    1       -2.198  -2.416   1.638  0.00  0.00    +0.042 A 
ATOM     17  N   LIG    1       -2.815  -1.204   1.922  0.00  0.00    -0.281 N 
ATOM     18  H   LIG    1       -3.632  -1.114   2.438  0.00  0.00    +0.155 HD
ATOM     19  C   LIG    1       -2.135  -0.172   1.395  0.00  0.00    +0.249 C 
ATOM     20  O   LIG    1       -2.436   1.005   1.486  0.00  0.00    -0.270 OA
ENDBRANCH   8   9
BRANCH   3  21
ATOM     21  C   LIG    1        0.969   4.883  -0.630  0.00  0.00    +0.048 C 
BRANCH  21  22
ATOM     22  C   LIG    1        1.323   5.123  -2.099  0.00  0.00    +0.125 C 
BRANCH  22  23
ATOM     23  C   LIG    1        2.035   6.445  -2.234  0.00  0.00    +0.305 C 
ATOM     24  O   LIG    1        2.239   7.124  -1.256  0.00  0.00    -0.251 OA
BRANCH  23  25
ATOM     25  O   LIG    1        2.443   6.867  -3.441  0.00  0.00    -0.481 OA
ATOM     26  H   LIG    1        2.286   6.340  -4.200  0.00  0.00    +0.295 HD
ENDBRANCH  23  25
ENDBRANCH  22  23
ENDBRANCH  21  22
ENDBRANCH   3  21
TORSDOF 5
