REMARK  Name = ZINC03860649
REMARK                            x       y       z     vdW  Elec       q    Type
REMARK                         _______ _______ _______ _____ _____    ______ ____
ROOT
ATOM      1  C   LIG    1       -1.232   3.137   0.029  0.00  0.00    +0.034 A 
ATOM      2  C   LIG    1       -0.052   3.858   0.022  0.00  0.00    +0.026 A 
ATOM      3  C   LIG    1        1.169   3.197   0.008  0.00  0.00    +0.045 A 
ATOM      4  C   LIG    1        1.183   1.792   0.000  0.00  0.00    +0.050 A 
ATOM      5  C   LIG    1        2.601   1.386  -0.014  0.00  0.00    +0.249 C 
ATOM      6  C   LIG    1        3.369   2.674  -0.015  0.00  0.00    +0.289 C 
ATOM      7  O   LIG    1        4.577   2.788  -0.025  0.00  0.00    -0.266 OA
ATOM      8  O   LIG    1        3.047   0.258  -0.024  0.00  0.00    -0.282 OA
ATOM      9  C   LIG    1       -0.013   1.076   0.008  0.00  0.00    +0.046 A 
ATOM     10  N   LIG    1        2.476   3.678  -0.002  0.00  0.00    -0.278 N 
ATOM     11  H   LIG    1        2.712   4.619   0.001  0.00  0.00    +0.155 HD
ATOM     12  C   LIG    1       -1.216   1.753   0.017  0.00  0.00    +0.122 A 
ENDROOT
BRANCH  12  13
ATOM     13  N   LIG    1       -2.489   0.998   0.019  0.00  0.00    +0.006 N 
ATOM     14  O   LIG    1       -2.475  -0.220   0.013  0.00  0.00    -0.130 OA
BRANCH  13  15
ATOM     15  O   LIG    1       -3.551   1.595   0.028  0.00  0.00    -0.396 OA
ATOM     16  H   LIG    1       -3.561   2.532   0.033  0.00  0.00    +0.329 HD
ENDBRANCH  13  15
ENDBRANCH  12  13
TORSDOF 2
