REMARK  Name = ZINC03818418
REMARK                            x       y       z     vdW  Elec       q    Type
REMARK                         _______ _______ _______ _____ _____    ______ ____
ROOT
ATOM      1  N   LIG    1        5.677  -3.066   1.513  0.00  0.00    -0.174 NA
ATOM      2  C   LIG    1        6.481  -2.064   2.227  0.00  0.00    +0.128 C 
ATOM      3  C   LIG    1        5.740  -1.664   3.509  0.00  0.00    +0.125 C 
ATOM      4  N   LIG    1        5.338  -2.886   4.220  0.00  0.00    -0.297 N 
ATOM      5  C   LIG    1        4.534  -3.888   3.506  0.00  0.00    +0.125 C 
ATOM      6  C   LIG    1        5.270  -4.285   2.226  0.00  0.00    +0.128 C 
ENDROOT
BRANCH   4   7
ATOM      7  C   LIG    1        5.708  -3.088   5.533  0.00  0.00    +0.218 A 
ATOM      8  N   LIG    1        6.430  -2.161   6.149  0.00  0.00    -0.222 NA
ATOM      9  C   LIG    1        6.804  -2.317   7.404  0.00  0.00    +0.129 A 
ATOM     10  C   LIG    1        6.428  -3.482   8.086  0.00  0.00    +0.075 A 
ATOM     11  C   LIG    1        5.667  -4.436   7.399  0.00  0.00    +0.129 A 
ATOM     12  N   LIG    1        5.328  -4.202   6.144  0.00  0.00    -0.222 NA
BRANCH  10  13
ATOM     13  C   LIG    1        6.825  -3.698   9.490  0.00  0.00    +0.269 C 
ATOM     14  N   LIG    1        6.454  -4.826  10.129  0.00  0.00    -0.193 N 
ATOM     15  H   LIG    1        5.926  -5.494   9.666  0.00  0.00    +0.183 HD
ATOM     16  O   LIG    1        7.487  -2.860  10.072  0.00  0.00    -0.268 OA
BRANCH  14  17
ATOM     17  O   LIG    1        6.834  -5.034  11.477  0.00  0.00    -0.295 OA
ATOM     18  H   LIG    1        6.522  -5.870  11.850  0.00  0.00    +0.241 HD
ENDBRANCH  14  17
ENDBRANCH  10  13
ENDBRANCH   4   7
BRANCH   1  19
ATOM     19  S   LIG    1        5.231  -2.823  -0.063  0.00  0.00    +0.061 S 
ATOM     20  O   LIG    1        6.181  -1.923  -0.619  0.00  0.00    -0.153 OA
ATOM     21  O   LIG    1        4.984  -4.107  -0.618  0.00  0.00    -0.153 OA
BRANCH  19  27
ATOM     22  C   LIG    1       -0.016   1.357   0.009  0.00  0.00    +0.001 A 
ATOM     23  C   LIG    1        1.169   2.091   0.002  0.00  0.00    +0.001 A 
ATOM     24  C   LIG    1        2.378   1.468  -0.013  0.00  0.00    +0.008 A 
ATOM     25  C   LIG    1        2.438   0.063  -0.021  0.00  0.00    -0.016 A 
ATOM     26  C   LIG    1        3.668  -0.615  -0.036  0.00  0.00    +0.037 A 
ATOM     27  C   LIG    1        3.687  -1.976  -0.043  0.00  0.00    +0.106 A 
ATOM     28  C   LIG    1        2.502  -2.710  -0.036  0.00  0.00    +0.029 A 
ATOM     29  C   LIG    1        1.292  -2.087  -0.021  0.00  0.00    +0.010 A 
ATOM     30  C   LIG    1        1.233  -0.683  -0.013  0.00  0.00    -0.018 A 
ATOM     31  C   LIG    1        0.002  -0.004   0.002  0.00  0.00    +0.008 A 
ENDBRANCH  19  27
ENDBRANCH   1  19
TORSDOF 5
