REMARK  Name = ZINC03872206
REMARK                            x       y       z     vdW  Elec       q    Type
REMARK                         _______ _______ _______ _____ _____    ______ ____
ROOT
ATOM      1  C   LIG    1       -1.195  -0.635   0.010  0.00  0.00    +0.145 A 
ATOM      2  C   LIG    1       -1.812  -0.966   1.230  0.00  0.00    +0.098 A 
ATOM      3  C   LIG    1       -3.054  -1.620   1.230  0.00  0.00    +0.131 A 
ATOM      4  C   LIG    1       -3.676  -1.943   0.027  0.00  0.00    +0.058 A 
ATOM      5  C   LIG    1       -3.073  -1.619  -1.179  0.00  0.00    +0.040 A 
ATOM      6  C   LIG    1       -3.734  -1.962  -2.461  0.00  0.00    +0.195 C 
ATOM      7  O   LIG    1       -4.668  -2.738  -2.484  0.00  0.00    -0.287 OA
ATOM      8  C   LIG    1       -3.251  -1.329  -3.711  0.00  0.00    +0.033 A 
ATOM      9  C   LIG    1       -4.009  -1.387  -4.876  0.00  0.00    +0.012 A 
ATOM     10  C   LIG    1       -3.535  -0.798  -6.035  0.00  0.00    +0.001 A 
ATOM     11  C   LIG    1       -2.313  -0.151  -6.044  0.00  0.00    +0.001 A 
ATOM     12  C   LIG    1       -1.546  -0.085  -4.893  0.00  0.00    +0.012 A 
ATOM     13  C   LIG    1       -2.007  -0.671  -3.720  0.00  0.00    +0.033 A 
ATOM     14  C   LIG    1       -1.201  -0.610  -2.481  0.00  0.00    +0.198 C 
ATOM     15  O   LIG    1       -0.032  -0.278  -2.524  0.00  0.00    -0.286 OA
ATOM     16  C   LIG    1       -1.829  -0.956  -1.194  0.00  0.00    +0.076 A 
ENDROOT
BRANCH   1  18
ATOM     17  C   LIG    1       -0.017   1.425   0.010  0.00  0.00    +0.277 C 
ATOM     18  O   LIG    1        0.002  -0.004   0.002  0.00  0.00    -0.494 OA
ENDBRANCH   1  18
BRANCH   2  19
ATOM     19  C   LIG    1       -1.159  -0.628   2.499  0.00  0.00    +0.266 C 
ATOM     20  O   LIG    1       -1.692  -0.914   3.550  0.00  0.00    -0.295 OA
ENDBRANCH   2  19
BRANCH   3  21
ATOM     21  O   LIG    1       -3.648  -1.939   2.405  0.00  0.00    -0.506 OA
ATOM     22  H   LIG    1       -3.230  -1.723   3.215  0.00  0.00    +0.292 HD
ENDBRANCH   3  21
TORSDOF 3
