REMARK  Name = ZINC03871576
REMARK                            x       y       z     vdW  Elec       q    Type
REMARK                         _______ _______ _______ _____ _____    ______ ____
ROOT
ATOM      1  C   LIG    1       -1.262  -0.760   0.011  0.00  0.00    +0.139 A 
ATOM      2  C   LIG    1       -1.224  -2.139   0.009  0.00  0.00    +0.093 A 
ATOM      3  C   LIG    1       -2.416  -2.867   0.017  0.00  0.00    +0.135 A 
ATOM      4  C   LIG    1       -3.637  -2.155   0.028  0.00  0.00    +0.100 A 
ATOM      5  C   LIG    1       -4.871  -2.839   0.037  0.00  0.00    +0.135 A 
ATOM      6  C   LIG    1       -6.038  -2.132   0.048  0.00  0.00    +0.097 A 
ATOM      7  C   LIG    1       -6.016  -0.728   0.049  0.00  0.00    +0.186 A 
ATOM      8  C   LIG    1       -4.798  -0.039   0.039  0.00  0.00    +0.098 A 
ATOM      9  O   LIG    1       -7.163  -0.046   0.059  0.00  0.00    -0.288 OA
ATOM     10  C   LIG    1       -3.610  -0.743   0.029  0.00  0.00    +0.146 A 
ATOM     11  O   LIG    1       -2.427  -0.092   0.026  0.00  0.00    -0.454 OA
ENDROOT
BRANCH   1  17
ATOM     12  C   LIG    1       -0.017   1.395   0.010  0.00  0.00    +0.015 A 
ATOM     13  C   LIG    1        1.167   2.097   0.002  0.00  0.00    +0.046 A 
ATOM     14  C   LIG    1        2.380   1.418  -0.013  0.00  0.00    +0.117 A 
ATOM     15  C   LIG    1        2.404   0.028  -0.021  0.00  0.00    +0.046 A 
ATOM     16  C   LIG    1        1.225  -0.682  -0.014  0.00  0.00    +0.015 A 
ATOM     17  C   LIG    1        0.002  -0.004   0.002  0.00  0.00    +0.018 A 
BRANCH  14  18
ATOM     18  O   LIG    1        3.545   2.115  -0.022  0.00  0.00    -0.507 OA
ATOM     19  H   LIG    1        3.892   2.312   0.859  0.00  0.00    +0.292 HD
ENDBRANCH  14  18
ENDBRANCH   1  17
BRANCH   3  20
ATOM     20  O   LIG    1       -2.402  -4.218   0.015  0.00  0.00    -0.506 OA
ATOM     21  H   LIG    1       -1.586  -4.678   0.008  0.00  0.00    +0.292 HD
ENDBRANCH   3  20
BRANCH   5  22
ATOM     22  O   LIG    1       -4.897  -4.195   0.035  0.00  0.00    -0.506 OA
ATOM     23  H   LIG    1       -5.788  -4.572   0.042  0.00  0.00    +0.292 HD
ENDBRANCH   5  22
TORSDOF 4
