REMARK  Name = ZINC03812863
REMARK                            x       y       z     vdW  Elec       q    Type
REMARK                         _______ _______ _______ _____ _____    ______ ____
ROOT
ATOM      1  C   UNK A  1        6.616  -3.713   0.664  0.00  0.00    +0.017 C 
ENDROOT
BRANCH   1   2
ATOM      2  C   UNK A  1        7.475  -2.961  -0.320  0.00  0.00    +0.202 C 
ATOM      3  N   PRO A  2        8.720  -3.396  -0.597  0.00  0.00    -0.289 N 
ATOM      4  CD  PRO A  2        9.361  -4.590  -0.018  0.00  0.00    +0.108 C 
ATOM      5  CG  PRO A  2       10.882  -4.320  -0.137  0.00  0.00    +0.021 C 
ATOM      6  CB  PRO A  2       10.963  -3.589  -1.503  0.00  0.00    +0.035 C 
ATOM      7  CA  PRO A  2        9.661  -2.761  -1.532  0.00  0.00    +0.184 C 
ATOM      8  O   UNK A  1        7.046  -1.964  -0.861  0.00  0.00    -0.277 OA
BRANCH   7   9
ATOM      9  C   PRO A  2        9.081  -2.763  -2.923  0.00  0.00    +0.325 C 
ATOM     10  O   PRO A  2        9.620  -2.123  -3.809  0.00  0.00    -0.249 OA
BRANCH   9  11
ATOM     11  OXT PRO A  2        8.071  -3.404  -3.162  0.00  0.00    -0.479 OA
ATOM     12  HXT PRO A  2        7.656  -3.895  -2.481  0.00  0.00    +0.295 HD
ENDBRANCH   9  11
ENDBRANCH   7   9
ENDBRANCH   1   2
BRANCH   1  13
ATOM     13  N   UNK A  1        5.315  -3.042   0.791  0.00  0.00    +0.395 N 
ATOM     14  H   UNK A  1        4.894  -2.948  -0.121  0.00  0.00    -0.084 HD
ATOM     15  H   UNK A  1        4.711  -3.589   1.386  0.00  0.00    -0.084 HD
BRANCH  13  16
ATOM     16  C   UNK A  1        5.507  -1.710   1.381  0.00  0.00    +0.040 C 
BRANCH  16  17
ATOM     17  C   UNK A  1        6.020  -1.854   2.791  0.00  0.00    +0.291 C 
ATOM     18  O   UNK A  1        5.715  -2.831   3.454  0.00  0.00    -0.253 OA
BRANCH  17  19
ATOM     19  O   UNK A  1        6.740  -0.994   3.268  0.00  0.00    -0.482 OA
ATOM     20  H   UNK A  1        6.975  -0.244   2.758  0.00  0.00    +0.295 HD
ENDBRANCH  17  19
ENDBRANCH  16  17
BRANCH  16  21
ATOM     21  C   UNK A  1        4.171  -0.963   1.399  0.00  0.00    -0.000 C 
BRANCH  21  22
ATOM     22  C   UNK A  1        3.711  -0.707  -0.038  0.00  0.00    +0.034 C 
BRANCH  22  26
ATOM     23  C   UNK A  1       -0.017   1.378   0.010  0.00  0.00    +0.000 A 
ATOM     24  C   UNK A  1        1.171   2.086   0.002  0.00  0.00    +0.000 A 
ATOM     25  C   UNK A  1        2.377   1.411  -0.013  0.00  0.00    +0.003 A 
ATOM     26  C   UNK A  1        2.396   0.029  -0.020  0.00  0.00    -0.047 A 
ATOM     27  C   UNK A  1        1.208  -0.679  -0.012  0.00  0.00    +0.003 A 
ATOM     28  C   UNK A  1        0.002  -0.004   0.002  0.00  0.00    +0.000 A 
ENDBRANCH  22  26
ENDBRANCH  21  22
ENDBRANCH  16  21
ENDBRANCH  13  16
ENDBRANCH   1  13
BRANCH   1  29
ATOM     29  C   UNK A  1        6.404  -5.144   0.167  0.00  0.00    -0.007 C 
BRANCH  29  30
ATOM     30  C   UNK A  1        5.638  -5.943   1.223  0.00  0.00    -0.003 C 
BRANCH  30  31
ATOM     31  C   UNK A  1        5.427  -7.375   0.725  0.00  0.00    -0.020 C 
BRANCH  31  32
ATOM     32  C   UNK A  1        4.661  -8.174   1.782  0.00  0.00    -0.086 C 
BRANCH  32  33
ATOM     33  N   UNK A  1        4.458  -9.548   1.304  0.00  0.00    +0.378 N 
ATOM     34  H   UNK A  1        3.953 -10.075   2.000  0.00  0.00    -0.090 HD
ATOM     35  H   UNK A  1        5.354  -9.982   1.138  0.00  0.00    -0.090 HD
ATOM     36  H   UNK A  1        3.929  -9.531   0.445  0.00  0.00    -0.090 HD
ENDBRANCH  32  33
ENDBRANCH  31  32
ENDBRANCH  30  31
ENDBRANCH  29  30
ENDBRANCH   1  29
TORSDOF 15
