REMARK  Name = ZINC03639353
REMARK                            x       y       z     vdW  Elec       q    Type
REMARK                         _______ _______ _______ _____ _____    ______ ____
ROOT
ATOM      1  C   LIG    1       -0.019   1.526   0.010  0.00  0.00    +0.024 C 
ATOM      2  C   LIG    1        0.002  -0.004   0.002  0.00  0.00    +0.056 C 
ENDROOT
BRANCH   2   3
ATOM      3  N   LIG    1       -1.376  -0.512   0.012  0.00  0.00    -0.303 NA
ATOM      4  H   LIG    1       -1.426  -1.413   0.464  0.00  0.00    +0.123 HD
BRANCH   3   5
ATOM      5  C   LIG    1       -1.924  -0.575  -1.349  0.00  0.00    +0.170 C 
BRANCH   5   6
ATOM      6  C   LIG    1       -3.303  -1.088  -1.299  0.00  0.00    -0.090 C 
ATOM      7  C   LIG    1       -4.403  -1.497  -1.260  0.00  0.00    +0.005 C 
ENDBRANCH   5   6
ENDBRANCH   3   5
ENDBRANCH   2   3
BRANCH   2   8
ATOM      8  C   LIG    1        0.742  -0.511   1.242  0.00  0.00    +0.053 C 
BRANCH   8   9
ATOM      9  C   LIG    1        0.870  -2.011   1.172  0.00  0.00    -0.046 A 
ATOM     10  C   LIG    1       -0.117  -2.814   1.710  0.00  0.00    +0.004 A 
ATOM     11  C   LIG    1       -0.000  -4.190   1.647  0.00  0.00    +0.000 A 
ATOM     12  C   LIG    1        1.104  -4.763   1.044  0.00  0.00    +0.000 A 
ATOM     13  C   LIG    1        2.091  -3.959   0.504  0.00  0.00    +0.000 A 
ATOM     14  C   LIG    1        1.972  -2.583   0.564  0.00  0.00    +0.004 A 
ENDBRANCH   8   9
ENDBRANCH   2   8
TORSDOF 5
