REMARK  Name = ZINC03847389
REMARK                            x       y       z     vdW  Elec       q    Type
REMARK                         _______ _______ _______ _____ _____    ______ ____
ROOT
ATOM      1  C   LIG    1       -1.240   3.136   0.032  0.00  0.00    +0.045 A 
ATOM      2  C   LIG    1       -0.051   3.835   0.025  0.00  0.00    +0.007 A 
ATOM      3  C   LIG    1        1.160   3.161   0.007  0.00  0.00    -0.048 A 
ATOM      4  C   LIG    1        1.180   1.782   0.000  0.00  0.00    -0.058 A 
ATOM      5  C   LIG    1        2.471   1.005  -0.011  0.00  0.00    -0.046 C 
ATOM      6  N   LIG    1        3.587   1.864  -0.432  0.00  0.00    +0.382 N 
ATOM      7  H   LIG    1        4.471   1.355  -0.317  0.00  0.00    -0.085 HD
ATOM      8  H   LIG    1        3.466   2.120  -1.419  0.00  0.00    -0.085 HD
ATOM      9  C   LIG    1        3.616   3.088   0.390  0.00  0.00    -0.077 C 
ATOM     10  C   LIG    1       -0.013   1.076   0.008  0.00  0.00    +0.047 A 
ATOM     11  C   LIG    1        2.432   3.970  -0.007  0.00  0.00    +0.016 C 
ATOM     12  C   LIG    1       -1.224   1.749   0.017  0.00  0.00    +0.117 A 
ENDROOT
BRANCH  12  13
ATOM     13  O   LIG    1       -2.391   1.052   0.018  0.00  0.00    -0.507 OA
ATOM     14  H   LIG    1       -2.725   0.845   0.901  0.00  0.00    +0.292 HD
ENDBRANCH  12  13
TORSDOF 1
