REMARK  Name = ZINC03820806
REMARK                            x       y       z     vdW  Elec       q    Type
REMARK                         _______ _______ _______ _____ _____    ______ ____
ROOT
ATOM      1  C   LIG    1        1.171   3.567   0.009  0.00  0.00    +0.098 A 
ATOM      2  C   LIG    1        2.089   4.392   0.649  0.00  0.00    +0.074 A 
ATOM      3  N   LIG    1        1.696   5.714   0.393  0.00  0.00    -0.293 N 
ATOM      4  C   LIG    1        2.123   6.986   0.700  0.00  0.00    +0.101 A 
ATOM      5  C   LIG    1        1.460   8.054   0.256  0.00  0.00    +0.067 A 
ATOM      6  S   LIG    1        0.128   7.304  -0.667  0.00  0.00    -0.058 S 
ATOM      7  C   LIG    1        0.571   5.605  -0.380  0.00  0.00    +0.178 A 
ATOM      8  N   LIG    1        0.275   4.353  -0.604  0.00  0.00    -0.221 NA
ENDROOT
BRANCH   1  12
ATOM      9  C   LIG    1        1.208  -0.682  -0.014  0.00  0.00    +0.000 A 
ATOM     10  C   LIG    1        0.002  -0.004   0.002  0.00  0.00    +0.001 A 
ATOM     11  C   LIG    1       -0.017   1.375   0.010  0.00  0.00    +0.010 A 
ATOM     12  C   LIG    1        1.184   2.087   0.002  0.00  0.00    +0.002 A 
ATOM     13  C   LIG    1        2.396   1.397  -0.013  0.00  0.00    +0.010 A 
ATOM     14  C   LIG    1        2.402   0.017  -0.021  0.00  0.00    +0.001 A 
ENDBRANCH   1  12
BRANCH   2  15
ATOM     15  C   LIG    1        3.205   3.979   1.411  0.00  0.00    +0.030 C 
ATOM     16  C   LIG    1        4.427   4.509   1.165  0.00  0.00    +0.030 C 
BRANCH  16  17
ATOM     17  C   LIG    1        5.585   4.080   1.956  0.00  0.00    +0.069 A 
ATOM     18  C   LIG    1        6.858   4.623   1.712  0.00  0.00    +0.047 A 
ATOM     19  C   LIG    1        7.916   4.187   2.482  0.00  0.00    +0.116 A 
ATOM     20  N   LIG    1        7.704   3.277   3.423  0.00  0.00    -0.223 NA
ATOM     21  C   LIG    1        6.494   2.780   3.635  0.00  0.00    +0.213 A 
ATOM     22  N   LIG    1        5.447   3.170   2.926  0.00  0.00    -0.215 NA
BRANCH  21  23
ATOM     23  N   LIG    1        6.319   1.831   4.627  0.00  0.00    -0.327 N 
ATOM     24  H   LIG    1        5.439   1.459   4.793  0.00  0.00    +0.145 HD
ATOM     25  H   LIG    1        7.077   1.539   5.157  0.00  0.00    +0.145 HD
ENDBRANCH  21  23
ENDBRANCH  16  17
ENDBRANCH   2  15
TORSDOF 4
