REMARK  Name = ZINC03816408
REMARK                            x       y       z     vdW  Elec       q    Type
REMARK                         _______ _______ _______ _____ _____    ______ ____
ROOT
ATOM      1  C   LIG    1        2.512   0.984  -0.047  0.00  0.00    +0.121 C 
ENDROOT
BRANCH   1   2
ATOM      2  C   LIG    1        2.804   0.305   1.266  0.00  0.00    -0.024 A 
ATOM      3  C   LIG    1        2.879  -1.074   1.329  0.00  0.00    +0.008 A 
ATOM      4  C   LIG    1        3.151  -1.698   2.532  0.00  0.00    +0.038 A 
ATOM      5  C   LIG    1        3.338  -0.941   3.677  0.00  0.00    +0.123 A 
ATOM      6  F   LIG    1        3.599  -1.549   4.854  0.00  0.00    -0.205 F 
ATOM      7  C   LIG    1        3.256   0.440   3.614  0.00  0.00    +0.038 A 
ATOM      8  C   LIG    1        2.990   1.061   2.408  0.00  0.00    +0.008 A 
ENDBRANCH   1   2
BRANCH   1   9
ATOM      9  C   LIG    1        3.720   1.773  -0.483  0.00  0.00    -0.024 A 
ATOM     10  C   LIG    1        3.700   2.459  -1.684  0.00  0.00    +0.008 A 
ATOM     11  C   LIG    1        4.805   3.187  -2.083  0.00  0.00    +0.038 A 
ATOM     12  C   LIG    1        5.935   3.221  -1.284  0.00  0.00    +0.123 A 
ATOM     13  F   LIG    1        7.018   3.929  -1.675  0.00  0.00    -0.205 F 
ATOM     14  C   LIG    1        5.956   2.530  -0.085  0.00  0.00    +0.038 A 
ATOM     15  C   LIG    1        4.848   1.807   0.315  0.00  0.00    +0.008 A 
ENDBRANCH   1   9
BRANCH   1  19
ATOM     16  C   LIG    1       -0.819   3.616   0.418  0.00  0.00    +0.000 A 
ATOM     17  C   LIG    1       -0.994   2.251   0.544  0.00  0.00    +0.000 A 
ATOM     18  C   LIG    1        0.085   1.399   0.399  0.00  0.00    +0.005 A 
ATOM     19  C   LIG    1        1.337   1.912   0.117  0.00  0.00    -0.024 A 
ATOM     20  C   LIG    1        1.511   3.277  -0.015  0.00  0.00    +0.005 A 
ATOM     21  C   LIG    1        0.433   4.130   0.136  0.00  0.00    +0.000 A 
ENDBRANCH   1  19
BRANCH   1  22
ATOM     22  C   LIG    1        2.189  -0.056  -1.089  0.00  0.00    +0.230 C 
ATOM     23  N   LIG    1        3.144  -0.909  -1.509  0.00  0.00    -0.328 N 
ATOM     24  H   LIG    1        2.956  -1.533  -2.227  0.00  0.00    +0.145 HD
ATOM     25  H   LIG    1        4.020  -0.900  -1.092  0.00  0.00    +0.145 HD
ATOM     26  O   LIG    1        1.069  -0.125  -1.550  0.00  0.00    -0.274 OA
ENDBRANCH   1  22
TORSDOF 4
