REMARK  Name = ZINC03802871
REMARK                            x       y       z     vdW  Elec       q    Type
REMARK                         _______ _______ _______ _____ _____    ______ ____
ROOT
ATOM      1  C   LIG    1       -0.179   1.396   0.655  0.00  0.00    +0.001 A 
ATOM      2  C   LIG    1        0.973   2.163   0.582  0.00  0.00    +0.002 A 
ATOM      3  C   LIG    1        2.226   1.600   0.414  0.00  0.00    +0.026 A 
ATOM      4  C   LIG    1        2.286   0.211   0.320  0.00  0.00    +0.047 A 
ATOM      5  C   LIG    1        1.103  -0.569   0.393  0.00  0.00    +0.003 A 
ATOM      6  C   LIG    1        1.527  -1.947   0.260  0.00  0.00    -0.013 A 
ATOM      7  C   LIG    1        2.870  -1.943   0.121  0.00  0.00    +0.062 A 
ATOM      8  C   LIG    1        3.709  -3.183  -0.043  0.00  0.00    +0.233 C 
ATOM      9  C   LIG    1        2.854  -4.441   0.055  0.00  0.00    +0.068 C 
ATOM     10  C   LIG    1        3.675  -5.638   0.529  0.00  0.00    -0.000 C 
ATOM     11  C   LIG    1        2.840  -6.910   0.348  0.00  0.00    -0.077 C 
ATOM     12  N   LIG    1        1.589  -6.790   1.104  0.00  0.00    +0.384 N 
ATOM     13  H   LIG    1        1.802  -6.641   2.079  0.00  0.00    -0.081 HD
ATOM     14  C   LIG    1        0.792  -5.666   0.606  0.00  0.00    -0.031 C 
ATOM     15  C   LIG    1        0.399  -5.887  -0.845  0.00  0.00    +0.023 C 
ATOM     16  C   LIG    1        1.358  -5.288  -1.822  0.00  0.00    -0.041 A 
ATOM     17  C   LIG    1        1.227  -5.347  -3.198  0.00  0.00    +0.007 A 
ATOM     18  C   LIG    1        2.081  -4.736  -4.039  0.00  0.00    +0.049 A 
ATOM     19  C   LIG    1        3.149  -3.977  -3.567  0.00  0.00    +0.159 A 
ATOM     20  C   LIG    1        3.320  -3.912  -2.179  0.00  0.00    +0.167 A 
ATOM     21  C   LIG    1        2.444  -4.635  -1.384  0.00  0.00    +0.014 A 
ATOM     22  C   LIG    1        1.550  -4.351   0.835  0.00  0.00    +0.072 C 
ATOM     23  O   LIG    1        4.210  -3.216  -1.407  0.00  0.00    -0.478 OA
ATOM     24  C   LIG    1        0.685  -3.196   0.266  0.00  0.00    +0.071 C 
ATOM     25  N   LIG    1        3.331  -0.651   0.156  0.00  0.00    -0.355 N 
ATOM     26  H   LIG    1        4.262  -0.389   0.077  0.00  0.00    +0.166 HD
ATOM     27  C   LIG    1       -0.150   0.027   0.564  0.00  0.00    +0.010 A 
ENDROOT
BRANCH  19  28
ATOM     28  O   LIG    1        3.989  -3.326  -4.417  0.00  0.00    -0.503 OA
ATOM     29  H   LIG    1        4.752  -3.852  -4.694  0.00  0.00    +0.292 HD
ENDBRANCH  19  28
BRANCH  22  30
ATOM     30  O   LIG    1        1.821  -4.176   2.227  0.00  0.00    -0.389 OA
ATOM     31  H   LIG    1        1.029  -4.112   2.778  0.00  0.00    +0.210 HD
ENDBRANCH  22  30
BRANCH  12  32
ATOM     32  C   LIG    1        0.816  -8.031   0.963  0.00  0.00    -0.075 C 
BRANCH  32  33
ATOM     33  C   LIG    1        1.562  -9.177   1.650  0.00  0.00    -0.028 C 
ATOM     34  C   LIG    1        2.049 -10.331   0.771  0.00  0.00    +0.002 C 
ATOM     35  C   LIG    1        0.863 -10.536   1.716  0.00  0.00    +0.002 C 
ENDBRANCH  32  33
ENDBRANCH  12  32
TORSDOF 4
