REMARK  Name = ZINC03841590
REMARK                            x       y       z     vdW  Elec       q    Type
REMARK                         _______ _______ _______ _____ _____    ______ ____
ROOT
ATOM      1  N   LIG    1        0.025  -0.014   2.418  0.00  0.00    -0.263 N 
ATOM      2  C   LIG    1       -1.155   0.298   3.018  0.00  0.00    +0.137 A 
ATOM      3  N   LIG    1       -1.235   0.937   4.146  0.00  0.00    -0.231 NA
ATOM      4  C   LIG    1       -0.126   1.343   4.814  0.00  0.00    +0.079 A 
ATOM      5  C   LIG    1       -0.212   2.029   6.027  0.00  0.00    +0.028 A 
ATOM      6  C   LIG    1        0.939   2.422   6.671  0.00  0.00    +0.002 A 
ATOM      7  C   LIG    1        2.188   2.145   6.129  0.00  0.00    +0.004 A 
ATOM      8  C   LIG    1        2.298   1.470   4.933  0.00  0.00    -0.036 A 
ATOM      9  C   LIG    1        3.657   1.173   4.352  0.00  0.00    +0.044 C 
ATOM     10  C   LIG    1        1.145   1.062   4.266  0.00  0.00    +0.068 A 
ATOM     11  C   LIG    1        1.202   0.333   2.990  0.00  0.00    +0.267 A 
ATOM     12  O   LIG    1        2.265   0.056   2.467  0.00  0.00    -0.267 OA
ENDROOT
BRANCH   1  19
ATOM     13  C   LIG    1       -0.018   1.503   0.010  0.00  0.00    +0.046 C 
ATOM     14  C   LIG    1        0.002  -0.004   0.002  0.00  0.00    -0.026 A 
ATOM     15  C   LIG    1        0.006  -0.689  -1.198  0.00  0.00    +0.005 A 
ATOM     16  C   LIG    1        0.024  -2.071  -1.206  0.00  0.00    +0.000 A 
ATOM     17  C   LIG    1        0.039  -2.773  -0.014  0.00  0.00    +0.002 A 
ATOM     18  C   LIG    1        0.036  -2.094   1.188  0.00  0.00    +0.026 A 
ATOM     19  C   LIG    1        0.023  -0.705   1.200  0.00  0.00    +0.054 A 
ENDBRANCH   1  19
BRANCH   2  20
ATOM     20  C   LIG    1       -2.435  -0.118   2.340  0.00  0.00    +0.199 C 
BRANCH  20  21
ATOM     21  N   LIG    1       -3.579   0.312   3.148  0.00  0.00    -0.307 N 
ATOM     22  C   LIG    1       -4.241  -0.438   4.073  0.00  0.00    +0.202 A 
ATOM     23  N   LIG    1       -5.205   0.257   4.602  0.00  0.00    -0.231 NA
ATOM     24  C   LIG    1       -5.222   1.495   4.053  0.00  0.00    +0.147 A 
ATOM     25  C   LIG    1       -6.015   2.642   4.225  0.00  0.00    +0.147 A 
ATOM     26  N   LIG    1       -5.732   3.723   3.504  0.00  0.00    -0.219 NA
ATOM     27  C   LIG    1       -4.739   3.723   2.634  0.00  0.00    +0.225 A 
ATOM     28  N   LIG    1       -3.973   2.671   2.435  0.00  0.00    -0.216 NA
ATOM     29  C   LIG    1       -4.175   1.547   3.117  0.00  0.00    +0.166 A 
BRANCH  25  30
ATOM     30  N   LIG    1       -7.057   2.652   5.136  0.00  0.00    -0.341 N 
ATOM     31  H   LIG    1       -7.598   3.450   5.246  0.00  0.00    +0.144 HD
ATOM     32  H   LIG    1       -7.247   1.861   5.664  0.00  0.00    +0.144 HD
ENDBRANCH  25  30
ENDBRANCH  20  21
ENDBRANCH   2  20
TORSDOF 4
