REMARK  Name = ZINC03817808
REMARK                            x       y       z     vdW  Elec       q    Type
REMARK                         _______ _______ _______ _____ _____    ______ ____
ROOT
ATOM      1  C   LIG    1        0.050  -2.682   2.494  0.00  0.00    +0.118 A 
ATOM      2  C   LIG    1        0.540  -2.140   3.762  0.00  0.00    +0.029 A 
ATOM      3  C   LIG    1        0.364  -3.117   4.700  0.00  0.00    +0.114 A 
ATOM      4  N   LIG    1       -0.187  -4.184   4.092  0.00  0.00    -0.284 N 
ATOM      5  H   LIG    1       -0.418  -5.020   4.529  0.00  0.00    +0.188 HD
ATOM      6  N   LIG    1       -0.380  -3.901   2.737  0.00  0.00    -0.172 NA
ENDROOT
BRANCH   2   7
ATOM      7  C   LIG    1        1.116  -0.795   3.985  0.00  0.00    -0.004 A 
ATOM      8  C   LIG    1        2.445  -0.637   4.358  0.00  0.00    +0.029 A 
ATOM      9  C   LIG    1        2.954   0.640   4.559  0.00  0.00    +0.112 A 
ATOM     10  N   LIG    1        2.215   1.713   4.406  0.00  0.00    -0.255 NA
ATOM     11  C   LIG    1        0.928   1.637   4.049  0.00  0.00    +0.072 A 
ATOM     12  C   LIG    1        0.151   2.798   3.891  0.00  0.00    +0.028 A 
ATOM     13  C   LIG    1       -1.151   2.692   3.509  0.00  0.00    +0.002 A 
ATOM     14  C   LIG    1       -1.736   1.448   3.289  0.00  0.00    +0.001 A 
ATOM     15  C   LIG    1       -1.015   0.301   3.439  0.00  0.00    +0.010 A 
ATOM     16  C   LIG    1        0.331   0.374   3.818  0.00  0.00    +0.008 A 
ENDBRANCH   2   7
BRANCH   1  22
ATOM     17  C   LIG    1       -0.018   1.503   0.010  0.00  0.00    +0.065 C 
ATOM     18  C   LIG    1        0.002  -0.004   0.002  0.00  0.00    +0.039 A 
ATOM     19  C   LIG    1        0.005  -0.679  -1.205  0.00  0.00    +0.023 A 
ATOM     20  C   LIG    1        0.024  -2.067  -1.208  0.00  0.00    +0.004 A 
ATOM     21  C   LIG    1        0.039  -2.731   0.006  0.00  0.00    +0.030 A 
ATOM     22  C   LIG    1        0.035  -1.986   1.185  0.00  0.00    +0.092 A 
ATOM     23  N   LIG    1        0.022  -0.660   1.144  0.00  0.00    -0.250 NA
ENDBRANCH   1  22
TORSDOF 2
