REMARK  Name = ZINC03830846
REMARK                            x       y       z     vdW  Elec       q    Type
REMARK                         _______ _______ _______ _____ _____    ______ ____
ROOT
ATOM      1  C   LIG    1       -0.017   1.367   0.010  0.00  0.00    +0.137 A 
ATOM      2  C   LIG    1        1.148   2.051   0.002  0.00  0.00    +0.204 A 
ATOM      3  F   LIG    1        1.149   3.402   0.009  0.00  0.00    -0.198 F 
ATOM      4  C   LIG    1        2.369   1.332  -0.013  0.00  0.00    +0.289 A 
ATOM      5  N   LIG    1        2.344  -0.016  -0.020  0.00  0.00    -0.273 N 
ATOM      6  C   LIG    1        1.169  -0.673  -0.013  0.00  0.00    +0.331 A 
ATOM      7  O   LIG    1        1.163  -1.889  -0.019  0.00  0.00    -0.246 OA
ATOM      8  H   LIG    1        3.176  -0.515  -0.031  0.00  0.00    +0.174 HD
ATOM      9  O   LIG    1        3.432   1.926  -0.020  0.00  0.00    -0.265 OA
ATOM     10  N   LIG    1        0.002  -0.004   0.002  0.00  0.00    -0.271 N 
ENDROOT
BRANCH  10  11
ATOM     11  C1* LIG    1       -1.260  -0.747   0.011  0.00  0.00    +0.226 C 
ATOM     12  C2* LIG    1       -1.400  -1.601  -1.276  0.00  0.00    +0.088 C 
ATOM     13  C3* LIG    1       -2.936  -1.761  -1.393  0.00  0.00    +0.150 C 
ATOM     14  C4* LIG    1       -3.502  -0.600  -0.552  0.00  0.00    +0.175 C 
ATOM     15  O4* LIG    1       -2.383   0.158  -0.058  0.00  0.00    -0.348 OA
BRANCH  13  16
ATOM     16  O3* LIG    1       -3.348  -1.642  -2.756  0.00  0.00    -0.389 OA
ATOM     17  H3* LIG    1       -2.973  -2.315  -3.341  0.00  0.00    +0.210 HD
ENDBRANCH  13  16
BRANCH  14  18
ATOM     18  C5* LIG    1       -4.393   0.287  -1.424  0.00  0.00    +0.190 C 
BRANCH  18  19
ATOM     19  O5* LIG    1       -5.006   1.291  -0.612  0.00  0.00    -0.392 OA
ATOM     20  H5* LIG    1       -5.586   1.891  -1.099  0.00  0.00    +0.210 HD
ENDBRANCH  18  19
ENDBRANCH  14  18
ENDBRANCH  10  11
TORSDOF 4
