REMARK  Name = ZINC03818808
REMARK                            x       y       z     vdW  Elec       q    Type
REMARK                         _______ _______ _______ _____ _____    ______ ____
ROOT
ATOM      1  C   LIG    1        1.075   1.274  -0.043  0.00  0.00    +0.011 C 
ATOM      2  C   LIG    1        0.958  -0.239   0.152  0.00  0.00    +0.032 C 
ATOM      3  C   LIG    1       -0.486  -0.676  -0.104  0.00  0.00    +0.026 C 
ATOM      4  C   LIG    1       -0.593  -2.196   0.058  0.00  0.00    +0.108 C 
ATOM      5  N   LIG    1       -0.076  -2.567   1.383  0.00  0.00    -0.297 N 
ATOM      6  C   LIG    1       -0.823  -3.303   2.229  0.00  0.00    +0.230 C 
ATOM      7  O   LIG    1       -0.418  -3.535   3.349  0.00  0.00    -0.274 OA
ATOM      8  C   LIG    1        1.270  -2.119   1.767  0.00  0.00    +0.155 C 
ATOM      9  C   LIG    1        1.355  -0.601   1.585  0.00  0.00    +0.187 C 
ENDROOT
BRANCH   9  10
ATOM     10  N   LIG    1        0.443   0.057   2.525  0.00  0.00    -0.225 N 
ATOM     11  C   LIG    1        0.215   1.501   2.436  0.00  0.00    +0.276 C 
BRANCH  10  12
ATOM     12  C   LIG    1       -0.186  -0.669   3.475  0.00  0.00    +0.267 C 
ATOM     13  N   LIG    1       -1.411  -1.148   3.311  0.00  0.00    -0.214 N 
ATOM     14  H   LIG    1       -1.874  -0.978   2.475  0.00  0.00    +0.314 HD
ATOM     15  C   LIG    1       -2.028  -1.852   4.256  0.00  0.00    +0.456 C 
ATOM     16  N   LIG    1       -1.450  -2.391   5.307  0.00  0.00    -0.004 NA
ATOM     17  C   LIG    1       -0.142  -2.230   5.495  0.00  0.00    +0.363 C 
ATOM     18  N   LIG    1        0.881  -2.784   6.063  0.00  0.00    -0.047 NA
ATOM     19  C   LIG    1        2.047  -2.429   5.473  0.00  0.00    +0.251 C 
ATOM     20  C   LIG    1        1.895  -1.389   4.639  0.00  0.00    +0.048 C 
ATOM     21  C   LIG    1        0.454  -1.002   4.800  0.00  0.00    +0.248 C 
ENDBRANCH  10  12
ENDBRANCH   9  10
BRANCH   6  22
ATOM     22  C   LIG    1       -2.160  -3.837   1.785  0.00  0.00    +0.214 C 
BRANCH  22  23
ATOM     23  C   LIG    1       -2.772  -4.603   2.883  0.00  0.00    +0.072 C 
ATOM     24  N   LIG    1       -3.244  -5.193   3.731  0.00  0.00    -0.196 NA
ENDBRANCH  22  23
ENDBRANCH   6  22
TORSDOF 4
