REMARK  Name = ZINC03806721
REMARK                            x       y       z     vdW  Elec       q    Type
REMARK                         _______ _______ _______ _____ _____    ______ ____
ROOT
ATOM      1  C   LIG    1       -0.810   1.970   1.137  0.00  0.00    -0.096 C 
ATOM      2  N   LIG    1       -0.043   1.478  -0.020  0.00  0.00    +0.380 N 
ATOM      3  H   LIG    1       -0.513   1.780  -0.882  0.00  0.00    -0.082 HD
ATOM      4  C   LIG    1        1.329   2.056   0.000  0.00  0.00    -0.057 C 
ATOM      5  C   LIG    1        2.018   1.770  -1.324  0.00  0.00    +0.021 C 
ATOM      6  C   LIG    1        2.720   0.451  -1.350  0.00  0.00    -0.041 A 
ATOM      7  C   LIG    1        3.353  -0.096  -2.452  0.00  0.00    +0.007 A 
ATOM      8  C   LIG    1        4.042  -1.293  -2.336  0.00  0.00    +0.050 A 
ATOM      9  C   LIG    1        4.159  -1.998  -1.140  0.00  0.00    +0.162 A 
ATOM     10  C   LIG    1        3.519  -1.459  -0.020  0.00  0.00    +0.167 A 
ATOM     11  O   LIG    1        3.480  -1.837   1.279  0.00  0.00    -0.481 OA
ATOM     12  C   LIG    1        3.180  -0.633   2.076  0.00  0.00    +0.217 C 
ATOM     13  C   LIG    1        4.519   0.114   2.097  0.00  0.00    +0.178 C 
ATOM     14  C   LIG    1        4.421   1.579   1.881  0.00  0.00    +0.004 C 
ATOM     15  C   LIG    1        3.376   2.229   1.475  0.00  0.00    -0.026 C 
ATOM     16  C   LIG    1        2.188   0.055   1.144  0.00  0.00    +0.042 C 
ATOM     17  C   LIG    1        0.783  -0.550   1.207  0.00  0.00    -0.003 C 
ATOM     18  C   LIG    1        2.793  -0.287  -0.194  0.00  0.00    +0.011 A 
ATOM     19  C   LIG    1        2.074   1.559   1.232  0.00  0.00    +0.012 C 
ATOM     20  C   LIG    1        0.002  -0.004   0.002  0.00  0.00    -0.078 C 
ENDROOT
BRANCH   9  21
ATOM     21  O   LIG    1        4.865  -3.158  -1.065  0.00  0.00    -0.491 OA
ATOM     22  C   LIG    1        5.480  -3.622  -2.269  0.00  0.00    +0.277 C 
ENDBRANCH   9  21
BRANCH  13  23
ATOM     23  O   LIG    1        5.358  -0.437   1.080  0.00  0.00    -0.384 OA
ATOM     24  H   LIG    1        6.229  -0.023   1.021  0.00  0.00    +0.210 HD
ENDBRANCH  13  23
TORSDOF 2
