REMARK  Name = ZINC03798324
REMARK                            x       y       z     vdW  Elec       q    Type
REMARK                         _______ _______ _______ _____ _____    ______ ____
ROOT
ATOM      1  C   LIG    1       -0.822   3.023   1.213  0.00  0.00    -0.065 C 
ATOM      2  C   LIG    1        0.569   3.659   1.321  0.00  0.00    -0.010 C 
ATOM      3  C   LIG    1        0.430   5.161   1.086  0.00  0.00    +0.034 C 
ATOM      4  C   LIG    1       -0.646   5.741   1.968  0.00  0.00    -0.044 A 
ATOM      5  C   LIG    1       -0.648   7.125   2.153  0.00  0.00    +0.006 A 
ATOM      6  C   LIG    1       -1.600   7.741   2.929  0.00  0.00    +0.026 A 
ATOM      7  C   LIG    1       -2.583   6.975   3.545  0.00  0.00    +0.047 A 
ATOM      8  C   LIG    1       -2.579   5.583   3.361  0.00  0.00    +0.003 A 
ATOM      9  C   LIG    1       -3.717   5.069   4.126  0.00  0.00    +0.027 A 
ATOM     10  C   LIG    1       -4.315   6.126   4.698  0.00  0.00    +0.083 A 
ATOM     11  N   LIG    1       -3.651   7.275   4.361  0.00  0.00    -0.361 N 
ATOM     12  H   LIG    1       -3.896   8.167   4.654  0.00  0.00    +0.165 HD
ATOM     13  C   LIG    1       -1.597   4.972   2.566  0.00  0.00    -0.037 A 
ATOM     14  C   LIG    1       -1.648   3.474   2.416  0.00  0.00    +0.021 C 
ENDROOT
BRANCH   1  16
ATOM     15  C   LIG    1       -0.013   1.086   0.008  0.00  0.00    -0.096 C 
ATOM     16  N   LIG    1       -0.727   1.548   1.217  0.00  0.00    +0.378 N 
ATOM     17  H   LIG    1       -1.674   1.153   1.216  0.00  0.00    -0.082 HD
ATOM     18  C   LIG    1       -0.016   1.091   2.429  0.00  0.00    -0.096 C 
ENDBRANCH   1  16
TORSDOF 1
