REMARK  Name = ZINC03775000
REMARK                            x       y       z     vdW  Elec       q    Type
REMARK                         _______ _______ _______ _____ _____    ______ ____
ROOT
ATOM      1  C   LIG    1        3.398   5.657  -4.870  0.00  0.00    +0.048 C 
ATOM      2  C   LIG    1        2.726   4.267  -4.994  0.00  0.00    +0.016 C 
ATOM      3  C   LIG    1        3.676   3.357  -4.170  0.00  0.00    +0.001 C 
ATOM      4  C   LIG    1        5.087   3.894  -4.488  0.00  0.00    +0.001 C 
ATOM      5  C   LIG    1        4.910   5.356  -4.933  0.00  0.00    +0.016 C 
ENDROOT
BRANCH   1   6
ATOM      6  C   LIG    1        3.043   6.299  -3.554  0.00  0.00    +0.219 C 
ATOM      7  N   LIG    1        3.475   7.544  -3.273  0.00  0.00    -0.312 N 
ATOM      8  H   LIG    1        4.075   7.999  -3.885  0.00  0.00    +0.149 HD
ATOM      9  O   LIG    1        2.367   5.696  -2.748  0.00  0.00    -0.275 OA
BRANCH   7  10
ATOM     10  C   LIG    1        3.040   8.211  -2.044  0.00  0.00    +0.073 C 
ATOM     11  C   LIG    1        3.119   9.727  -2.231  0.00  0.00    +0.023 C 
ATOM     12  C   LIG    1        4.561  10.129  -2.545  0.00  0.00    +0.016 C 
ATOM     13  C   LIG    1        5.471   9.710  -1.388  0.00  0.00    +0.098 C 
ATOM     14  C   LIG    1        5.392   8.193  -1.201  0.00  0.00    +0.016 C 
ATOM     15  C   LIG    1        3.949   7.792  -0.887  0.00  0.00    +0.023 C 
BRANCH  13  16
ATOM     16  C   LIG    1        6.892  10.105  -1.698  0.00  0.00    +0.308 C 
ATOM     17  O   LIG    1        7.150  10.664  -2.737  0.00  0.00    -0.251 OA
BRANCH  16  18
ATOM     18  O   LIG    1        7.870   9.835  -0.819  0.00  0.00    -0.480 OA
ATOM     19  H   LIG    1        7.669   9.402  -0.013  0.00  0.00    +0.295 HD
ENDBRANCH  16  18
ENDBRANCH  13  16
ENDBRANCH   7  10
ENDBRANCH   1   6
BRANCH   1  20
ATOM     20  C   LIG    1        2.983   6.558  -6.034  0.00  0.00    +0.033 C 
BRANCH  20  21
ATOM     21  C   LIG    1        1.456   6.643  -6.094  0.00  0.00    +0.124 C 
BRANCH  21  22
ATOM     22  C   LIG    1        1.042   7.363  -7.351  0.00  0.00    +0.310 C 
ATOM     23  O   LIG    1        1.879   7.721  -8.146  0.00  0.00    -0.251 OA
BRANCH  22  24
ATOM     24  O   LIG    1       -0.257   7.607  -7.588  0.00  0.00    -0.480 OA
ATOM     25  H   LIG    1       -0.906   7.329  -6.972  0.00  0.00    +0.295 HD
ENDBRANCH  22  24
ENDBRANCH  21  22
BRANCH  21  26
ATOM     26  C   LIG    1        0.940   7.409  -4.874  0.00  0.00    +0.174 C 
BRANCH  26  27
ATOM     27  O   LIG    1       -0.482   7.528  -4.954  0.00  0.00    -0.377 OA
BRANCH  27  28
ATOM     28  C   LIG    1       -1.068   8.231  -3.856  0.00  0.00    +0.188 C 
BRANCH  28  29
ATOM     29  C   LIG    1       -2.585   8.298  -4.046  0.00  0.00    +0.187 C 
BRANCH  29  31
ATOM     30  C   LIG    1       -4.550   6.930  -4.151  0.00  0.00    +0.194 C 
ATOM     31  O   LIG    1       -3.131   6.979  -3.985  0.00  0.00    -0.381 OA
ENDBRANCH  29  31
ENDBRANCH  28  29
ENDBRANCH  27  28
ENDBRANCH  26  27
ENDBRANCH  21  26
ENDBRANCH  20  21
ENDBRANCH   1  20
TORSDOF 13
