REMARK  Name = ZINC03807663
REMARK                            x       y       z     vdW  Elec       q    Type
REMARK                         _______ _______ _______ _____ _____    ______ ____
ROOT
ATOM      1  C   LIG    1        2.049   5.642  -0.927  0.00  0.00    +0.121 A 
ATOM      2  C   LIG    1        3.430   5.584  -0.791  0.00  0.00    +0.047 A 
ATOM      3  C   LIG    1        4.086   4.424  -0.418  0.00  0.00    +0.030 A 
ATOM      4  C   LIG    1        3.301   3.298  -0.181  0.00  0.00    +0.047 A 
ATOM      5  C   LIG    1        1.891   3.355  -0.319  0.00  0.00    +0.006 A 
ATOM      6  C   LIG    1        1.404   2.029  -0.000  0.00  0.00    -0.021 A 
ATOM      7  C   LIG    1        2.481   1.271   0.301  0.00  0.00    +0.020 A 
ATOM      8  C   LIG    1        2.399  -0.185   0.693  0.00  0.00    +0.052 C 
ATOM      9  C   LIG    1        0.954  -0.504   1.092  0.00  0.00    -0.010 C 
ATOM     10  C   LIG    1        0.002  -0.004   0.002  0.00  0.00    -0.070 C 
ATOM     11  C   LIG    1       -0.019   1.529   0.010  0.00  0.00    +0.021 C 
ATOM     12  N   LIG    1        3.621   2.023   0.194  0.00  0.00    -0.358 N 
ATOM     13  H   LIG    1        4.520   1.700   0.360  0.00  0.00    +0.166 HD
ATOM     14  C   LIG    1        1.244   4.536  -0.697  0.00  0.00    +0.056 A 
ENDROOT
BRANCH  10  15
ATOM     15  N   LIG    1       -1.363  -0.505   0.241  0.00  0.00    +0.380 N 
ATOM     16  H   LIG    1       -1.978  -0.184  -0.517  0.00  0.00    -0.090 HD
ATOM     17  H   LIG    1       -1.716  -0.149   1.128  0.00  0.00    -0.090 HD
ATOM     18  H   LIG    1       -1.363  -1.523   0.260  0.00  0.00    -0.090 HD
ENDBRANCH  10  15
BRANCH   1  20
ATOM     19  C   LIG    1        2.341   7.926  -1.523  0.00  0.00    +0.277 C 
ATOM     20  O   LIG    1        1.470   6.816  -1.298  0.00  0.00    -0.495 OA
ENDBRANCH   1  20
TORSDOF 2
