REMARK  Name = ZINC03872447
REMARK                            x       y       z     vdW  Elec       q    Type
REMARK                         _______ _______ _______ _____ _____    ______ ____
ROOT
ATOM      1  C   LIG    1       -0.019   1.554   0.011  0.00  0.00    +0.035 C 
ATOM      2  C   LIG    1        1.488   1.918  -0.002  0.00  0.00    +0.035 C 
ATOM      3  C   LIG    1        2.179   0.521  -0.016  0.00  0.00    +0.133 C 
ATOM      4  C   LIG    1        1.992  -0.046   1.423  0.00  0.00    +0.142 C 
ATOM      5  C   LIG    1        0.485  -0.409   1.455  0.00  0.00    +0.142 C 
ATOM      6  O   LIG    1        1.212  -0.269  -0.781  0.00  0.00    -0.372 OA
ATOM      7  C   LIG    1        0.002  -0.004   0.002  0.00  0.00    +0.133 C 
ENDROOT
BRANCH   4   8
ATOM      8  C   LIG    1        2.845  -1.271   1.630  0.00  0.00    +0.311 C 
ATOM      9  O   LIG    1        3.421  -1.440   2.691  0.00  0.00    -0.251 OA
BRANCH   8  10
ATOM     10  O   LIG    1        2.959  -2.092   0.736  0.00  0.00    -0.480 OA
ATOM     11  H   LIG    1        2.517  -1.961  -0.080  0.00  0.00    +0.295 HD
ENDBRANCH   8  10
ENDBRANCH   4   8
BRANCH   5  12
ATOM     12  C   LIG    1        0.297  -1.887   1.686  0.00  0.00    +0.311 C 
ATOM     13  O   LIG    1        0.706  -2.400   2.714  0.00  0.00    -0.251 OA
BRANCH  12  14
ATOM     14  O   LIG    1       -0.263  -2.569   0.846  0.00  0.00    -0.480 OA
ATOM     15  H   LIG    1       -0.577  -2.175   0.056  0.00  0.00    +0.295 HD
ENDBRANCH  12  14
ENDBRANCH   5  12
TORSDOF 4
