REMARK  Name = ZINC03861030
REMARK                            x       y       z     vdW  Elec       q    Type
REMARK                         _______ _______ _______ _____ _____    ______ ____
ROOT
ATOM      1  N   LIG    1        3.554   2.220   0.259  0.00  0.00    -0.145 NA
ATOM      2  N   LIG    1        3.528   3.485   0.009  0.00  0.00    -0.145 NA
ENDROOT
BRANCH   1  11
ATOM      3  C   LIG    1        2.393  -2.651   1.087  0.00  0.00    +0.001 A 
ATOM      4  C   LIG    1        3.592  -1.942   1.075  0.00  0.00    +0.001 A 
ATOM      5  C   LIG    1        3.612  -0.604   0.816  0.00  0.00    +0.011 A 
ATOM      6  C   LIG    1        2.413   0.071   0.557  0.00  0.00    +0.013 A 
ATOM      7  C   LIG    1        1.191  -0.647   0.568  0.00  0.00    -0.015 A 
ATOM      8  C   LIG    1       -0.013   0.025   0.311  0.00  0.00    +0.027 A 
ATOM      9  C   LIG    1       -0.019   1.385   0.046  0.00  0.00    +0.103 A 
ATOM     10  C   LIG    1        1.175   2.130   0.026  0.00  0.00    +0.158 A 
ATOM     11  C   LIG    1        2.397   1.506   0.276  0.00  0.00    +0.136 A 
ATOM     12  C   LIG    1        1.208  -2.027   0.839  0.00  0.00    +0.008 A 
BRANCH   9  13
ATOM     13  C   LIG    1       -1.299   2.063  -0.227  0.00  0.00    +0.340 C 
ATOM     14  O   LIG    1       -1.318   3.256  -0.461  0.00  0.00    -0.245 OA
BRANCH  13  15
ATOM     15  O   LIG    1       -2.449   1.361  -0.217  0.00  0.00    -0.477 OA
ATOM     16  H   LIG    1       -2.435   0.442  -0.037  0.00  0.00    +0.295 HD
ENDBRANCH  13  15
ENDBRANCH   9  13
BRANCH  10  17
ATOM     17  O   LIG    1        1.137   3.459  -0.236  0.00  0.00    -0.504 OA
ATOM     18  H   LIG    1        1.035   4.013   0.550  0.00  0.00    +0.292 HD
ENDBRANCH  10  17
ENDBRANCH   1  11
BRANCH   2  19
ATOM     19  C   LIG    1        4.684   4.199  -0.008  0.00  0.00    +0.135 A 
ATOM     20  C   LIG    1        4.674   5.633  -0.295  0.00  0.00    +0.015 A 
ATOM     21  C   LIG    1        3.480   6.318  -0.550  0.00  0.00    +0.011 A 
ATOM     22  C   LIG    1        3.513   7.656  -0.807  0.00  0.00    +0.001 A 
ATOM     23  C   LIG    1        4.718   8.354  -0.815  0.00  0.00    +0.001 A 
ATOM     24  C   LIG    1        5.897   7.719  -0.567  0.00  0.00    +0.010 A 
ATOM     25  C   LIG    1        5.901   6.340  -0.297  0.00  0.00    +0.012 A 
ATOM     26  C   LIG    1        7.099   5.651  -0.036  0.00  0.00    +0.128 A 
ATOM     27  C   LIG    1        7.092   4.316   0.223  0.00  0.00    +0.077 A 
ATOM     28  C   LIG    1        5.910   3.578   0.243  0.00  0.00    +0.146 A 
BRANCH  26  29
ATOM     29  S   LIG    1        8.627   6.528  -0.046  0.00  0.00    +0.110 S 
ATOM     30  O   LIG    1        9.579   5.693   0.599  0.00  0.00    -0.142 OA
ATOM     31  O   LIG    1        8.341   7.846   0.403  0.00  0.00    -0.142 OA
BRANCH  29  32
ATOM     32  O   LIG    1        9.067   6.649  -1.498  0.00  0.00    -0.250 OA
ATOM     33  H   LIG    1        8.442   7.214  -1.979  0.00  0.00    +0.245 HD
ENDBRANCH  29  32
ENDBRANCH  26  29
BRANCH  28  34
ATOM     34  O   LIG    1        5.951   2.247   0.506  0.00  0.00    -0.505 OA
ATOM     35  H   LIG    1        6.054   1.693  -0.280  0.00  0.00    +0.292 HD
ENDBRANCH  28  34
ENDBRANCH   2  19
TORSDOF 8
