REMARK  Name = ZINC03872127
REMARK                            x       y       z     vdW  Elec       q    Type
REMARK                         _______ _______ _______ _____ _____    ______ ____
ROOT
ATOM      1  C   LIG    1        1.144   3.358   0.734  0.00  0.00    +0.125 C 
ATOM      2  C   LIG    1        0.211   4.280  -0.066  0.00  0.00    -0.051 C 
ATOM      3  N   LIG    1        0.859   4.513  -1.352  0.00  0.00    +0.382 N 
ATOM      4  H   LIG    1        1.849   4.745  -1.211  0.00  0.00    -0.081 HD
ATOM      5  C   LIG    1        0.192   5.634  -2.092  0.00  0.00    -0.095 C 
ATOM      6  C   LIG    1        0.735   3.259  -2.100  0.00  0.00    -0.065 C 
ATOM      7  C   LIG    1        1.706   2.262  -1.446  0.00  0.00    +0.030 C 
ATOM      8  C   LIG    1       -0.704   2.793  -1.782  0.00  0.00    -0.017 C 
ATOM      9  C   LIG    1       -1.051   3.468  -0.439  0.00  0.00    -0.016 C 
ATOM     10  C   LIG    1        1.268   2.020   0.001  0.00  0.00    +0.187 C 
ENDROOT
BRANCH   1  11
ATOM     11  C   LIG    1        0.568   3.130   2.107  0.00  0.00    +0.312 C 
ATOM     12  O   LIG    1       -0.473   3.657   2.421  0.00  0.00    -0.250 OA
BRANCH  11  13
ATOM     13  O   LIG    1        1.212   2.342   2.982  0.00  0.00    -0.465 OA
BRANCH  13  15
ATOM     14  C   LIG    1        1.471   1.244   5.140  0.00  0.00    +0.048 C 
ATOM     15  C   LIG    1        0.600   2.167   4.287  0.00  0.00    +0.229 C 
ENDBRANCH  13  15
ENDBRANCH  11  13
ENDBRANCH   1  11
BRANCH  10  16
ATOM     16  O   LIG    1       -0.016   1.343   0.009  0.00  0.00    -0.457 OA
BRANCH  16  17
ATOM     17  C   LIG    1        0.002  -0.004   0.002  0.00  0.00    +0.339 C 
ATOM     18  O   LIG    1        1.062  -0.597  -0.011  0.00  0.00    -0.245 OA
BRANCH  17  19
ATOM     19  C   LIG    1       -1.267  -0.760   0.010  0.00  0.00    +0.059 A 
ATOM     20  C   LIG    1       -2.487  -0.082   0.031  0.00  0.00    +0.015 A 
ATOM     21  C   LIG    1       -3.669  -0.794   0.033  0.00  0.00    +0.001 A 
ATOM     22  C   LIG    1       -3.646  -2.177   0.026  0.00  0.00    +0.000 A 
ATOM     23  C   LIG    1       -2.441  -2.856   0.011  0.00  0.00    +0.001 A 
ATOM     24  C   LIG    1       -1.252  -2.156   0.002  0.00  0.00    +0.015 A 
ENDBRANCH  17  19
ENDBRANCH  16  17
ENDBRANCH  10  16
TORSDOF 6
