REMARK  Name = ZINC03869889
REMARK                            x       y       z     vdW  Elec       q    Type
REMARK                         _______ _______ _______ _____ _____    ______ ____
ROOT
ATOM      1  C   LIG    1        2.358   3.903   0.000  0.00  0.00    +0.226 C 
ATOM      2  C   LIG    1        2.454   4.769  -1.281  0.00  0.00    +0.088 C 
ATOM      3  C   LIG    1        3.415   5.892  -0.807  0.00  0.00    +0.150 C 
ATOM      4  C   LIG    1        3.027   6.051   0.679  0.00  0.00    +0.175 C 
ATOM      5  O   LIG    1        2.380   4.840   1.089  0.00  0.00    -0.348 OA
ENDROOT
BRANCH   1   8
ATOM      6  C   LIG    1       -0.013   1.076   0.008  0.00  0.00    +0.088 A 
ATOM      7  C   LIG    1        1.142   1.776   0.001  0.00  0.00    +0.098 A 
ATOM      8  N   LIG    1        1.105   3.143   0.008  0.00  0.00    -0.274 N 
ATOM      9  C   LIG    1       -0.070   3.797   0.023  0.00  0.00    +0.331 A 
ATOM     10  N   LIG    1       -1.236   3.125   0.031  0.00  0.00    -0.275 N 
ATOM     11  H   LIG    1       -2.101   3.627   0.047  0.00  0.00    +0.173 HD
ATOM     12  O   LIG    1       -0.080   5.013   0.030  0.00  0.00    -0.246 OA
ATOM     13  C   LIG    1       -1.243   1.776   0.018  0.00  0.00    +0.254 A 
ATOM     14  O   LIG    1       -2.297   1.167   0.019  0.00  0.00    -0.268 OA
ENDBRANCH   1   8
BRANCH   3  15
ATOM     15  O   LIG    1        4.778   5.482  -0.935  0.00  0.00    -0.389 OA
ATOM     16  H   LIG    1        5.071   5.369  -1.850  0.00  0.00    +0.210 HD
ENDBRANCH   3  15
BRANCH   4  17
ATOM     17  C   LIG    1        4.282   6.280   1.522  0.00  0.00    +0.206 C 
BRANCH  17  18
ATOM     18  O   LIG    1        3.906   6.532   2.877  0.00  0.00    -0.284 OA
BRANCH  18  19
ATOM     19  P   LIG    1        4.976   6.817   4.046  0.00  0.00    +0.472 P 
ATOM     20  O   LIG    1        5.846   7.948   3.653  0.00  0.00    -0.228 OA
BRANCH  19  21
ATOM     21  O   LIG    1        5.877   5.504   4.281  0.00  0.00    -0.303 OA
ATOM     22  H   LIG    1        6.345   5.282   3.461  0.00  0.00    +0.222 HD
ENDBRANCH  19  21
BRANCH  19  23
ATOM     23  O   LIG    1        4.199   7.186   5.407  0.00  0.00    -0.303 OA
ATOM     24  H   LIG    1        3.657   7.977   5.266  0.00  0.00    +0.222 HD
ENDBRANCH  19  23
ENDBRANCH  18  19
ENDBRANCH  17  18
ENDBRANCH   4  17
TORSDOF 7
