REMARK  Name = ZINC03831354
REMARK                            x       y       z     vdW  Elec       q    Type
REMARK                         _______ _______ _______ _____ _____    ______ ____
ROOT
ATOM      1  C   LIG    1        0.707  -0.490  -1.238  0.00  0.00    -0.033 A 
ATOM      2  C   LIG    1        0.222  -0.151  -2.487  0.00  0.00    +0.008 A 
ATOM      3  C   LIG    1        0.868  -0.595  -3.623  0.00  0.00    +0.047 A 
ATOM      4  C   LIG    1        2.007  -1.384  -3.514  0.00  0.00    +0.134 A 
ATOM      5  C   LIG    1        2.491  -1.723  -2.261  0.00  0.00    -0.000 A 
ATOM      6  C   LIG    1        3.722  -2.577  -2.117  0.00  0.00    +0.079 C 
ATOM      7  C   LIG    1        4.504  -2.591  -3.401  0.00  0.00    +0.019 A 
ATOM      8  C   LIG    1        5.829  -2.994  -3.389  0.00  0.00    +0.010 A 
ATOM      9  C   LIG    1        6.531  -2.998  -4.586  0.00  0.00    +0.020 A 
ATOM     10  C   LIG    1        5.889  -2.604  -5.743  0.00  0.00    +0.114 A 
ATOM     11  N   LIG    1        4.627  -2.226  -5.721  0.00  0.00    -0.221 NA
ATOM     12  C   LIG    1        3.920  -2.207  -4.598  0.00  0.00    +0.224 A 
ATOM     13  O   LIG    1        2.627  -1.810  -4.641  0.00  0.00    -0.437 OA
ATOM     14  C   LIG    1        1.843  -1.270  -1.126  0.00  0.00    +0.012 A 
ENDROOT
BRANCH   1  16
ATOM     15  C   LIG    1       -0.019   1.526   0.010  0.00  0.00    +0.024 C 
ATOM     16  C   LIG    1        0.002  -0.004   0.002  0.00  0.00    +0.124 C 
BRANCH  16  17
ATOM     17  C   LIG    1       -1.412  -0.526   0.013  0.00  0.00    +0.312 C 
ATOM     18  O   LIG    1       -1.810  -1.227  -0.902  0.00  0.00    -0.250 OA
BRANCH  17  19
ATOM     19  O   LIG    1       -2.158  -0.246   0.936  0.00  0.00    -0.480 OA
ATOM     20  H   LIG    1       -1.852   0.293   1.639  0.00  0.00    +0.295 HD
ENDBRANCH  17  19
ENDBRANCH  16  17
ENDBRANCH   1  16
TORSDOF 3
