REMARK  Name = ZINC03633590
REMARK                            x       y       z     vdW  Elec       q    Type
REMARK                         _______ _______ _______ _____ _____    ______ ____
ROOT
ATOM      1  N   LIG    1        2.356   3.887   0.000  0.00  0.00    -0.299 N 
ATOM      2  H   LIG    1        3.202   3.417   0.050  0.00  0.00    +0.154 HD
ENDROOT
BRANCH   1   5
ATOM      3  C   LIG    1       -0.118   1.230  -0.573  0.00  0.00    +0.003 A 
ATOM      4  C   LIG    1        1.069   1.935  -0.600  0.00  0.00    +0.023 A 
ATOM      5  C   LIG    1        1.155   3.172   0.026  0.00  0.00    +0.034 A 
ATOM      6  C   LIG    1        0.046   3.697   0.676  0.00  0.00    +0.043 A 
ATOM      7  C   LIG    1       -1.139   2.987   0.699  0.00  0.00    +0.043 A 
ATOM      8 CL   LIG    1       -2.527   3.641   1.512  0.00  0.00    -0.083 Cl
ATOM      9  C   LIG    1       -1.223   1.757   0.070  0.00  0.00    +0.020 A 
ENDBRANCH   1   5
BRANCH   1  10
ATOM     10  C   LIG    1        2.337   5.270  -0.097  0.00  0.00    +0.128 A 
ATOM     11  C   LIG    1        3.529   5.989  -0.211  0.00  0.00    +0.063 A 
ATOM     12  C   LIG    1        3.461   7.365  -0.305  0.00  0.00    +0.118 A 
ATOM     13  N   LIG    1        2.277   7.960  -0.284  0.00  0.00    -0.223 NA
ATOM     14  C   LIG    1        1.162   7.252  -0.176  0.00  0.00    +0.214 A 
ATOM     15  N   LIG    1        1.183   5.931  -0.089  0.00  0.00    -0.200 NA
BRANCH  14  16
ATOM     16  N   LIG    1       -0.055   7.910  -0.158  0.00  0.00    -0.327 N 
ATOM     17  H   LIG    1       -0.879   7.404  -0.079  0.00  0.00    +0.145 HD
ATOM     18  H   LIG    1       -0.085   8.878  -0.225  0.00  0.00    +0.145 HD
ENDBRANCH  14  16
ENDBRANCH   1  10
TORSDOF 3
