REMARK  Name = ZINC03650178
REMARK                            x       y       z     vdW  Elec       q    Type
REMARK                         _______ _______ _______ _____ _____    ______ ____
ROOT
ATOM      1  C   LIG    1       -0.283   1.876   0.072  0.00  0.00    +0.008 C 
ATOM      2  C   LIG    1       -0.344   0.377  -0.064  0.00  0.00    -0.007 C 
ATOM      3  C   LIG    1       -0.459  -0.209  -1.289  0.00  0.00    +0.038 C 
ATOM      4  C   LIG    1       -0.513  -1.606  -1.392  0.00  0.00    +0.125 C 
ATOM      5  N   LIG    1       -0.457  -2.379  -0.326  0.00  0.00    -0.298 NA
ATOM      6  H   LIG    1       -0.498  -3.342  -0.434  0.00  0.00    +0.124 HD
ATOM      7  C   LIG    1       -0.344  -1.861   0.902  0.00  0.00    +0.059 C 
ATOM      8  C   LIG    1       -0.286  -2.694   2.033  0.00  0.00    +0.021 C 
ATOM      9  C   LIG    1       -0.155  -2.150   3.272  0.00  0.00    +0.024 C 
ATOM     10  C   LIG    1       -0.095  -0.763   3.447  0.00  0.00    +0.073 C 
ATOM     11  C   LIG    1       -0.156   0.083   2.361  0.00  0.00    +0.027 C 
ATOM     12  C   LIG    1       -0.279  -0.456   1.072  0.00  0.00    +0.011 C 
ENDROOT
BRANCH   4  13
ATOM     13  N   LIG    1       -0.630  -2.189  -2.646  0.00  0.00    -0.284 NA
ATOM     14  C   LIG    1       -0.571  -3.650  -2.800  0.00  0.00    +0.105 C 
ATOM     15  C   LIG    1       -1.836  -4.117  -3.530  0.00  0.00    +0.123 C 
ATOM     16  N   LIG    1       -2.021  -3.285  -4.728  0.00  0.00    -0.297 N 
ATOM     17  C   LIG    1       -2.080  -1.825  -4.573  0.00  0.00    +0.123 C 
ATOM     18  C   LIG    1       -0.821  -1.358  -3.842  0.00  0.00    +0.105 C 
BRANCH  16  19
ATOM     19  C   LIG    1       -2.137  -3.866  -5.978  0.00  0.00    +0.218 A 
ATOM     20  N   LIG    1       -2.085  -5.186  -6.086  0.00  0.00    -0.223 NA
ATOM     21  C   LIG    1       -2.193  -5.773  -7.266  0.00  0.00    +0.116 A 
ATOM     22  C   LIG    1       -2.363  -4.991  -8.397  0.00  0.00    +0.039 A 
ATOM     23  C   LIG    1       -2.413  -3.613  -8.249  0.00  0.00    +0.116 A 
ATOM     24  N   LIG    1       -2.303  -3.090  -7.039  0.00  0.00    -0.223 NA
ENDBRANCH  16  19
ENDBRANCH   4  13
BRANCH  10  25
ATOM     25  N   LIG    1        0.028  -0.230   4.736  0.00  0.00    -0.312 N 
ATOM     26  H   LIG    1       -0.406   0.608   4.958  0.00  0.00    +0.149 HD
ATOM     27  C   LIG    1        0.750  -0.883   5.669  0.00  0.00    +0.216 C 
ATOM     28  O   LIG    1        1.375  -1.877   5.366  0.00  0.00    -0.276 OA
BRANCH  27  29
ATOM     29  C   LIG    1        0.781  -0.377   7.088  0.00  0.00    +0.075 C 
ATOM     30  C   LIG    1        1.346   1.045   7.110  0.00  0.00    +0.013 C 
ATOM     31  C   LIG    1        2.766   1.038   6.540  0.00  0.00    +0.004 C 
ATOM     32  C   LIG    1        3.652   0.123   7.389  0.00  0.00    -0.014 C 
ATOM     33  C   LIG    1        5.072   0.116   6.819  0.00  0.00    +0.007 C 
ATOM     34  C   LIG    1        3.086  -1.298   7.366  0.00  0.00    +0.004 C 
ATOM     35  C   LIG    1        1.666  -1.291   7.936  0.00  0.00    +0.013 C 
ENDBRANCH  27  29
ENDBRANCH  10  25
TORSDOF 4
