REMARK  Name = ZINC03872320
REMARK                            x       y       z     vdW  Elec       q    Type
REMARK                         _______ _______ _______ _____ _____    ______ ____
ROOT
ATOM      1  C   ILE A  1        0.027   0.188  -0.160  0.00  0.00    +0.202 C 
ATOM      2  N   PRO A  2       -1.056  -0.586  -0.373  0.00  0.00    -0.291 N 
ATOM      3  CD  PRO A  2       -2.428  -0.099  -0.603  0.00  0.00    +0.108 C 
ATOM      4  CG  PRO A  2       -3.127  -1.243  -1.383  0.00  0.00    +0.021 C 
ATOM      5  CB  PRO A  2       -2.513  -2.498  -0.708  0.00  0.00    +0.033 C 
ATOM      6  CA  PRO A  2       -1.065  -2.056  -0.409  0.00  0.00    +0.162 C 
ATOM      7  O   ILE A  1        1.124  -0.319  -0.059  0.00  0.00    -0.277 OA
ENDROOT
BRANCH   6   8
ATOM      8  C   PRO A  2       -0.623  -2.604   0.923  0.00  0.00    +0.234 C 
ATOM      9  N   ILE A  3       -0.557  -3.936   1.115  0.00  0.00    -0.301 N 
ATOM     10  H   ILE A  3       -0.794  -4.542   0.396  0.00  0.00    +0.150 HD
ATOM     11  O   PRO A  2       -0.327  -1.846   1.823  0.00  0.00    -0.274 OA
BRANCH   9  12
ATOM     12  CA  ILE A  3       -0.127  -4.469   2.411  0.00  0.00    +0.185 C 
BRANCH  12  13
ATOM     13  C   ILE A  3        1.378  -4.534   2.453  0.00  0.00    +0.326 C 
ATOM     14  O   ILE A  3        2.025  -4.172   1.499  0.00  0.00    -0.249 OA
BRANCH  13  15
ATOM     15  OXT ILE A  3        2.000  -4.993   3.550  0.00  0.00    -0.479 OA
ATOM     16  HXT ILE A  3        1.498  -5.274   4.290  0.00  0.00    +0.295 HD
ENDBRANCH  13  15
ENDBRANCH  12  13
BRANCH  12  17
ATOM     17  CB  ILE A  3       -0.703  -5.873   2.601  0.00  0.00    +0.017 C 
ATOM     18  CG2 ILE A  3       -0.104  -6.817   1.556  0.00  0.00    +0.010 C 
BRANCH  17  19
ATOM     19  CG1 ILE A  3       -0.359  -6.380   4.003  0.00  0.00    +0.002 C 
ATOM     20  CD1 ILE A  3       -1.040  -7.730   4.239  0.00  0.00    +0.004 C 
ENDBRANCH  17  19
ENDBRANCH  12  17
ENDBRANCH   9  12
ENDBRANCH   6   8
BRANCH   1  21
ATOM     21  CA  ILE A  1       -0.126   1.683  -0.046  0.00  0.00    +0.016 C 
BRANCH  21  22
ATOM     22  N   ILE A  1        1.075   2.364  -0.561  0.00  0.00    +0.386 N 
ATOM     23  H1  ILE A  1        0.964   3.378  -0.444  0.00  0.00    -0.089 HD
ATOM     24  H2  ILE A  1        1.197   2.155  -1.551  0.00  0.00    -0.089 HD
ATOM     25  H3  ILE A  1        1.898   2.057  -0.046  0.00  0.00    -0.089 HD
ENDBRANCH  21  22
BRANCH  21  26
ATOM     26  CB  ILE A  1       -0.322   2.065   1.423  0.00  0.00    -0.020 C 
ATOM     27  CG2 ILE A  1       -1.643   1.481   1.929  0.00  0.00    +0.006 C 
BRANCH  26  29
ATOM     28  CD1 ILE A  1       -0.426   3.973   3.032  0.00  0.00    +0.004 C 
ATOM     29  CG1 ILE A  1       -0.355   3.589   1.553  0.00  0.00    -0.001 C 
ENDBRANCH  26  29
ENDBRANCH  21  26
ENDBRANCH   1  21
TORSDOF 10
