REMARK  Name = ZINC03872076
REMARK                            x       y       z     vdW  Elec       q    Type
REMARK                         _______ _______ _______ _____ _____    ______ ____
ROOT
ATOM      1  C   LIG    1       -0.043  -0.127  -4.959  0.00  0.00    +0.229 C 
ENDROOT
BRANCH   1   2
ATOM      2  C   LIG    1       -0.020  -0.899  -3.638  0.00  0.00    +0.050 C 
BRANCH   2   3
ATOM      3  C   LIG    1       -0.023   0.089  -2.470  0.00  0.00    +0.099 C 
BRANCH   3   6
ATOM      4  C   LIG    1       -0.018   1.461   0.010  0.00  0.00    +0.132 C 
ATOM      5  N   LIG    1        0.002  -0.004   0.002  0.00  0.00    -0.301 N 
ATOM      6  C   LIG    1        0.000  -0.672  -1.169  0.00  0.00    +0.216 C 
ATOM      7  O   LIG    1        0.017  -1.884  -1.175  0.00  0.00    -0.276 OA
BRANCH   5   8
ATOM      8  C   LIG    1        0.024  -0.743   1.267  0.00  0.00    +0.076 C 
ATOM      9  C   LIG    1        1.276  -0.361   2.059  0.00  0.00    +0.022 C 
ATOM     10  C   LIG    1        1.299  -1.133   3.380  0.00  0.00    +0.002 C 
ATOM     11  C   LIG    1        0.052  -0.785   4.196  0.00  0.00    +0.000 C 
ATOM     12  C   LIG    1       -1.199  -1.167   3.404  0.00  0.00    +0.002 C 
ATOM     13  C   LIG    1       -1.222  -0.395   2.083  0.00  0.00    +0.022 C 
ENDBRANCH   5   8
ENDBRANCH   3   6
ENDBRANCH   2   3
ENDBRANCH   1   2
BRANCH   1  14
ATOM     14  O   LIG    1       -0.041  -1.050  -6.050  0.00  0.00    -0.492 OA
BRANCH  14  15
ATOM     15  C   LIG    1       -0.060  -0.523  -7.303  0.00  0.00    +0.121 A 
ATOM     16  C   LIG    1       -0.075   0.859  -7.474  0.00  0.00    +0.047 A 
ATOM     17  C   LIG    1       -0.094   1.410  -8.736  0.00  0.00    +0.030 A 
ATOM     18  C   LIG    1       -0.099   0.583  -9.855  0.00  0.00    +0.049 A 
ATOM     19  C   LIG    1       -0.084  -0.814  -9.687  0.00  0.00    +0.002 A 
ATOM     20  C   LIG    1       -0.089  -1.672 -10.873  0.00  0.00    +0.015 A 
ATOM     21  C   LIG    1       -0.108  -1.087 -12.097  0.00  0.00    +0.071 A 
ATOM     22  C   LIG    1       -0.122   0.320 -12.211  0.00  0.00    +0.249 A 
ATOM     23  O   LIG    1       -0.139   0.825 -13.321  0.00  0.00    -0.268 OA
ATOM     24  N   LIG    1       -0.118   1.116 -11.128  0.00  0.00    -0.322 N 
ATOM     25  H   LIG    1       -0.128   2.079 -11.243  0.00  0.00    +0.169 HD
ATOM     26  C   LIG    1       -0.059  -1.361  -8.400  0.00  0.00    +0.055 A 
ENDBRANCH  14  15
ENDBRANCH   1  14
TORSDOF 6
