REMARK  Name = ZINC03869965
REMARK                            x       y       z     vdW  Elec       q    Type
REMARK                         _______ _______ _______ _____ _____    ______ ____
ROOT
ATOM      1  C   LIG    1        3.293  -0.979   4.905  0.00  0.00    +0.253 C 
ATOM      2  C   LIG    1        3.142   0.181   5.909  0.00  0.00    +0.195 C 
ATOM      3  C   LIG    1        2.510   1.323   5.077  0.00  0.00    +0.178 C 
ATOM      4  C   LIG    1        2.869   0.905   3.628  0.00  0.00    +0.178 C 
ATOM      5  O   LIG    1        2.751  -0.533   3.649  0.00  0.00    -0.346 OA
ENDROOT
BRANCH   1  16
ATOM      6  C   LIG    1        5.544  -0.848   3.771  0.00  0.00    +0.203 A 
ATOM      7  N   LIG    1        6.732  -1.356   3.934  0.00  0.00    -0.229 NA
ATOM      8  C   LIG    1        6.721  -2.172   5.015  0.00  0.00    +0.172 A 
ATOM      9  C   LIG    1        7.729  -2.993   5.692  0.00  0.00    +0.280 A 
ATOM     10  O   LIG    1        8.875  -3.046   5.273  0.00  0.00    -0.265 OA
ATOM     11  N   LIG    1        7.366  -3.685   6.783  0.00  0.00    -0.293 N 
ATOM     12  C   LIG    1        6.135  -3.638   7.245  0.00  0.00    +0.195 A 
ATOM     13  N   LIG    1        5.162  -2.895   6.657  0.00  0.00    -0.196 NA
ATOM     14  H   LIG    1        8.045  -4.249   7.254  0.00  0.00    +0.172 HD
ATOM     15  C   LIG    1        5.435  -2.147   5.540  0.00  0.00    +0.171 A 
ATOM     16  N   LIG    1        4.710  -1.315   4.744  0.00  0.00    -0.285 N 
BRANCH  12  17
ATOM     17  N   LIG    1        5.823  -4.367   8.362  0.00  0.00    -0.329 N 
ATOM     18  H   LIG    1        5.990  -5.337   8.184  0.00  0.00    +0.145 HD
ATOM     19  H   LIG    1        4.921  -4.345   8.719  0.00  0.00    +0.145 HD
ENDBRANCH  12  17
ENDBRANCH   1  16
BRANCH   2  20
ATOM     20  O   LIG    1        4.419   0.577   6.413  0.00  0.00    -0.385 OA
ATOM     21  H   LIG    1        4.389   1.341   7.005  0.00  0.00    +0.210 HD
ENDBRANCH   2  20
BRANCH   3  22
ATOM     22  O   LIG    1        1.094   1.365   5.260  0.00  0.00    -0.386 OA
ATOM     23  H   LIG    1        0.820   1.621   6.151  0.00  0.00    +0.210 HD
ENDBRANCH   3  22
BRANCH   4  24
ATOM     24  C   LIG    1        1.878   1.512   2.632  0.00  0.00    +0.206 C 
BRANCH  24  25
ATOM     25  O   LIG    1        2.268   1.166   1.301  0.00  0.00    -0.284 OA
BRANCH  25  26
ATOM     26  P   LIG    1        1.451   1.638  -0.003  0.00  0.00    +0.472 P 
ATOM     27  O   LIG    1        1.314   3.111   0.006  0.00  0.00    -0.228 OA
BRANCH  26  28
ATOM     28  O   LIG    1        2.243   1.181  -1.328  0.00  0.00    -0.303 OA
ATOM     29  H   LIG    1        3.124   1.587  -1.334  0.00  0.00    +0.222 HD
ENDBRANCH  26  28
BRANCH  26  30
ATOM     30  O   LIG    1       -0.011   0.963   0.007  0.00  0.00    -0.303 OA
ATOM     31  H   LIG    1       -0.489   1.238   0.805  0.00  0.00    +0.222 HD
ENDBRANCH  26  30
ENDBRANCH  25  26
ENDBRANCH  24  25
ENDBRANCH   4  24
TORSDOF 9
