REMARK  Name = ZINC03872319
REMARK                            x       y       z     vdW  Elec       q    Type
REMARK                         _______ _______ _______ _____ _____    ______ ____
ROOT
ATOM      1  C   ILE A  1        5.351   3.043   3.350  0.00  0.00    +0.202 C 
ATOM      2  N   PRO A  2        5.284   4.098   2.514  0.00  0.00    -0.291 N 
ATOM      3  CD  PRO A  2        5.727   5.469   2.825  0.00  0.00    +0.108 C 
ATOM      4  CG  PRO A  2        4.909   6.376   1.871  0.00  0.00    +0.021 C 
ATOM      5  CB  PRO A  2        4.857   5.508   0.586  0.00  0.00    +0.033 C 
ATOM      6  CA  PRO A  2        4.758   4.072   1.141  0.00  0.00    +0.162 C 
ATOM      7  O   ILE A  1        4.955   1.955   2.986  0.00  0.00    -0.277 OA
ENDROOT
BRANCH   6   8
ATOM      8  C   PRO A  2        3.319   3.625   1.153  0.00  0.00    +0.234 C 
ATOM      9  N   ILE A  3        2.634   3.529  -0.004  0.00  0.00    -0.301 N 
ATOM     10  H   ILE A  3        3.067   3.747  -0.844  0.00  0.00    +0.150 HD
ATOM     11  O   PRO A  2        2.777   3.352   2.203  0.00  0.00    -0.274 OA
BRANCH   9  12
ATOM     12  CA  ILE A  3        1.235   3.094   0.007  0.00  0.00    +0.185 C 
BRANCH  12  13
ATOM     13  C   ILE A  3        1.177   1.588  -0.001  0.00  0.00    +0.326 C 
ATOM     14  O   ILE A  3        2.199   0.944  -0.014  0.00  0.00    -0.249 OA
BRANCH  13  15
ATOM     15  OXT ILE A  3       -0.011   0.963   0.007  0.00  0.00    -0.479 OA
ATOM     16  HXT ILE A  3       -0.804   1.462   0.018  0.00  0.00    +0.295 HD
ENDBRANCH  13  15
ENDBRANCH  12  13
BRANCH  12  17
ATOM     17  CB  ILE A  3        0.522   3.639  -1.233  0.00  0.00    +0.017 C 
ATOM     18  CG2 ILE A  3        1.131   3.011  -2.488  0.00  0.00    +0.010 C 
BRANCH  17  19
ATOM     19  CG1 ILE A  3       -0.966   3.291  -1.159  0.00  0.00    +0.002 C 
ATOM     20  CD1 ILE A  3       -1.700   3.941  -2.334  0.00  0.00    +0.004 C 
ENDBRANCH  17  19
ENDBRANCH  12  17
ENDBRANCH   9  12
ENDBRANCH   6   8
BRANCH   1  21
ATOM     21  CA  ILE A  1        5.917   3.214   4.736  0.00  0.00    +0.016 C 
BRANCH  21  22
ATOM     22  N   ILE A  1        5.435   2.113   5.589  0.00  0.00    +0.386 N 
ATOM     23  H1  ILE A  1        4.408   2.115   5.595  0.00  0.00    -0.089 HD
ATOM     24  H2  ILE A  1        5.773   2.236   6.542  0.00  0.00    -0.089 HD
ATOM     25  H3  ILE A  1        5.764   1.220   5.225  0.00  0.00    -0.089 HD
ENDBRANCH  21  22
BRANCH  21  26
ATOM     26  CB  ILE A  1        7.445   3.207   4.667  0.00  0.00    -0.020 C 
ATOM     27  CG2 ILE A  1        7.923   1.877   4.081  0.00  0.00    +0.006 C 
BRANCH  26  29
ATOM     28  CD1 ILE A  1        9.543   3.499   5.992  0.00  0.00    +0.004 C 
ATOM     29  CG1 ILE A  1        8.020   3.381   6.074  0.00  0.00    -0.001 C 
ENDBRANCH  26  29
ENDBRANCH  21  26
ENDBRANCH   1  21
TORSDOF 10
