REMARK  Name = ZINC03797541
REMARK                            x       y       z     vdW  Elec       q    Type
REMARK                         _______ _______ _______ _____ _____    ______ ____
ROOT
ATOM      1  C   LIG    1       -3.001   8.625   4.003  0.00  0.00    +0.016 C 
ATOM      2  C   LIG    1       -1.531   9.039   4.100  0.00  0.00    -0.008 C 
ATOM      3  C   LIG    1       -1.014   8.641   5.486  0.00  0.00    +0.014 C 
ATOM      4  C   LIG    1       -1.780   9.422   6.556  0.00  0.00    +0.032 C 
ATOM      5  C   LIG    1       -1.515  10.919   6.390  0.00  0.00    +0.119 C 
ATOM      6  C   LIG    1       -2.066  11.388   5.040  0.00  0.00    +0.062 C 
ATOM      7  C   LIG    1       -0.768   8.283   3.024  0.00  0.00    +0.003 C 
ATOM      8  C   LIG    1       -1.260   6.840   2.962  0.00  0.00    +0.005 C 
ATOM      9  C   LIG    1       -0.595   6.053   1.819  0.00  0.00    +0.012 C 
ATOM     10  C   LIG    1       -0.882   6.813   0.542  0.00  0.00    -0.003 C 
ATOM     11  C   LIG    1       -2.386   7.072   0.435  0.00  0.00    +0.016 C 
ATOM     12  C   LIG    1       -0.131   8.176   0.653  0.00  0.00    +0.007 C 
ATOM     13  C   LIG    1       -0.259   8.610  -0.815  0.00  0.00    +0.032 C 
ATOM     14  C   LIG    1       -0.043   7.287  -1.550  0.00  0.00    -0.022 C 
ATOM     15  C   LIG    1       -0.384   6.264  -0.753  0.00  0.00    -0.036 C 
ATOM     16  C   LIG    1       -0.895   9.000   1.672  0.00  0.00    +0.001 C 
ATOM     17  C   LIG    1       -0.248  10.383   1.803  0.00  0.00    +0.031 C 
ATOM     18  C   LIG    1       -0.893  11.126   2.936  0.00  0.00    -0.027 C 
ATOM     19  C   LIG    1       -1.454  10.528   3.947  0.00  0.00    -0.065 C 
ENDROOT
BRANCH  15  20
ATOM     20  C   LIG    1       -0.289   4.830  -1.102  0.00  0.00    -0.004 A 
ATOM     21  C   LIG    1        0.957   4.235  -1.330  0.00  0.00    +0.011 A 
ATOM     22  C   LIG    1        0.992   2.890  -1.653  0.00  0.00    +0.020 A 
ATOM     23  C   LIG    1       -0.195   2.183  -1.739  0.00  0.00    +0.111 A 
ATOM     24  N   LIG    1       -1.355   2.772  -1.523  0.00  0.00    -0.263 NA
ATOM     25  C   LIG    1       -1.439   4.048  -1.208  0.00  0.00    +0.118 A 
ENDBRANCH  15  20
BRANCH   5  26
ATOM     26  O   LIG    1       -2.160  11.637   7.443  0.00  0.00    -0.391 OA
ATOM     27  H   LIG    1       -2.034  12.595   7.401  0.00  0.00    +0.210 HD
ENDBRANCH   5  26
TORSDOF 2
