REMARK  Name = ZINC03860534
REMARK                            x       y       z     vdW  Elec       q    Type
REMARK                         _______ _______ _______ _____ _____    ______ ____
ROOT
ATOM      1  C   LIG    1       -5.200   2.820  -4.171  0.00  0.00    +0.074 C 
ATOM      2  C   LIG    1       -4.090   3.688  -3.574  0.00  0.00    +0.166 C 
ATOM      3  C   LIG    1       -3.036   3.989  -4.641  0.00  0.00    +0.074 C 
ATOM      4  O   LIG    1       -4.655   4.935  -3.072  0.00  0.00    -0.341 OA
ATOM      5  C   LIG    1       -4.191   5.017  -1.764  0.00  0.00    +0.186 C 
ATOM      6  C   LIG    1       -4.848   5.624  -0.562  0.00  0.00    +0.178 C 
ATOM      7  O   LIG    1       -4.439   4.794   0.565  0.00  0.00    -0.346 OA
ATOM      8  C   LIG    1       -3.687   3.653   0.058  0.00  0.00    +0.254 C 
ATOM      9  C   LIG    1       -4.213   3.490  -1.354  0.00  0.00    +0.202 C 
ATOM     10  O   LIG    1       -3.456   2.996  -2.438  0.00  0.00    -0.339 OA
ENDROOT
BRANCH   8  11
ATOM     11  N   LIG    1       -2.252   3.944   0.045  0.00  0.00    -0.286 N 
ATOM     12  C   LIG    1       -1.679   5.181   0.046  0.00  0.00    +0.203 A 
ATOM     13  N   LIG    1       -0.383   5.071   0.033  0.00  0.00    -0.231 NA
ATOM     14  C   LIG    1       -0.041   3.760   0.023  0.00  0.00    +0.147 A 
ATOM     15  C   LIG    1        1.174   3.055   0.007  0.00  0.00    +0.147 A 
ATOM     16  N   LIG    1        1.136   1.727   0.001  0.00  0.00    -0.219 NA
ATOM     17  C   LIG    1       -0.013   1.076   0.008  0.00  0.00    +0.225 A 
ATOM     18  N   LIG    1       -1.175   1.694   0.017  0.00  0.00    -0.216 NA
ATOM     19  C   LIG    1       -1.236   3.021   0.030  0.00  0.00    +0.167 A 
BRANCH  15  20
ATOM     20  N   LIG    1        2.383   3.729  -0.001  0.00  0.00    -0.341 N 
ATOM     21  H   LIG    1        2.398   4.699   0.004  0.00  0.00    +0.144 HD
ATOM     22  H   LIG    1        2.912   3.475   0.809  0.00  0.00    +0.144 HD
ENDBRANCH  15  20
ENDBRANCH   8  11
BRANCH   6  23
ATOM     23  C   LIG    1       -6.370   5.595  -0.719  0.00  0.00    +0.190 C 
BRANCH  23  24
ATOM     24  O   LIG    1       -6.975   6.281   0.379  0.00  0.00    -0.392 OA
ATOM     25  H   LIG    1       -7.941   6.302   0.345  0.00  0.00    +0.210 HD
ENDBRANCH  23  24
ENDBRANCH   6  23
TORSDOF 4
