REMARK  Name = ZINC03782517
REMARK                            x       y       z     vdW  Elec       q    Type
REMARK                         _______ _______ _______ _____ _____    ______ ____
ROOT
ATOM      1  C   LIG    1       -0.017   1.382   0.010  0.00  0.00    +0.010 A 
ATOM      2  C   LIG    1        1.164   2.099   0.002  0.00  0.00    +0.049 A 
ATOM      3  C   LIG    1        2.377   1.430  -0.012  0.00  0.00    +0.159 A 
ATOM      4  C   LIG    1        2.398   0.040  -0.016  0.00  0.00    +0.162 A 
ATOM      5  C   LIG    1        1.208  -0.675  -0.009  0.00  0.00    +0.006 A 
ATOM      6  C   LIG    1        1.267  -2.182  -0.008  0.00  0.00    +0.071 C 
ATOM      7  C   LIG    1       -0.091  -2.753  -0.420  0.00  0.00    +0.130 C 
ATOM      8  O   LIG    1       -1.108  -2.111   0.357  0.00  0.00    -0.370 OA
ATOM      9  C   LIG    1       -1.310  -0.745  -0.002  0.00  0.00    +0.132 C 
ATOM     10  C   LIG    1        0.002  -0.004   0.002  0.00  0.00    -0.014 A 
ENDROOT
BRANCH   7  11
ATOM     11  C   LIG    1       -0.119  -4.260  -0.160  0.00  0.00    -0.002 C 
ATOM     12  C   LIG    1        0.969  -4.942  -0.992  0.00  0.00    +0.013 C 
ATOM     13  C   LIG    1        0.940  -6.450  -0.732  0.00  0.00    -0.010 C 
ATOM     14  C   LIG    1       -0.428  -7.009  -1.125  0.00  0.00    +0.007 C 
ATOM     15  C   LIG    1       -1.517  -6.327  -0.294  0.00  0.00    -0.010 C 
ATOM     16  C   LIG    1       -1.265  -6.593   1.192  0.00  0.00    +0.007 C 
ATOM     17  C   LIG    1        0.103  -6.034   1.586  0.00  0.00    -0.010 C 
ATOM     18  C   LIG    1        1.192  -6.716   0.754  0.00  0.00    +0.007 C 
ATOM     19  C   LIG    1        0.132  -4.527   1.326  0.00  0.00    +0.013 C 
ATOM     20  C   LIG    1       -1.488  -4.820  -0.554  0.00  0.00    +0.013 C 
ENDBRANCH   7  11
BRANCH   3  21
ATOM     21  O   LIG    1        3.543   2.131  -0.022  0.00  0.00    -0.503 OA
ATOM     22  H   LIG    1        3.889   2.331   0.858  0.00  0.00    +0.292 HD
ENDBRANCH   3  21
BRANCH   4  23
ATOM     23  O   LIG    1        3.587  -0.621  -0.029  0.00  0.00    -0.503 OA
ATOM     24  H   LIG    1        3.938  -0.815   0.851  0.00  0.00    +0.292 HD
ENDBRANCH   4  23
BRANCH   9  25
ATOM     25  C   LIG    1       -2.261  -0.095   1.005  0.00  0.00    -0.050 C 
BRANCH  25  26
ATOM     26  N   LIG    1       -3.542  -0.815   1.004  0.00  0.00    +0.380 N 
ATOM     27  H   LIG    1       -3.387  -1.778   1.261  0.00  0.00    -0.090 HD
ATOM     28  H   LIG    1       -3.950  -0.774   0.082  0.00  0.00    -0.090 HD
ATOM     29  H   LIG    1       -4.169  -0.387   1.668  0.00  0.00    -0.090 HD
ENDBRANCH  25  26
ENDBRANCH   9  25
TORSDOF 5
