REMARK  Name = ZINC03814423
REMARK                            x       y       z     vdW  Elec       q    Type
REMARK                         _______ _______ _______ _____ _____    ______ ____
ROOT
ATOM      1  C   LIG    1        0.148  -0.918  -1.367  0.00  0.00    +0.176 C 
ATOM      2  C   LIG    1        1.404  -1.652  -1.900  0.00  0.00    +0.057 C 
ATOM      3  C   LIG    1        1.087  -3.171  -1.826  0.00  0.00    +0.009 C 
ATOM      4  C   LIG    1       -0.444  -3.205  -1.867  0.00  0.00    +0.006 C 
ATOM      5  C   LIG    1       -1.099  -4.446  -1.298  0.00  0.00    +0.021 C 
ATOM      6  C   LIG    1       -0.695  -5.691  -2.021  0.00  0.00    -0.003 C 
ATOM      7  C   LIG    1       -1.532  -6.700  -2.252  0.00  0.00    +0.041 C 
ATOM      8 CL   LIG    1       -0.964  -8.117  -3.079  0.00  0.00    -0.084 Cl
ATOM      9  C   LIG    1       -2.936  -6.624  -1.812  0.00  0.00    -0.020 C 
ATOM     10  C   LIG    1       -3.800  -7.560  -2.249  0.00  0.00    +0.052 C 
ATOM     11  C   LIG    1       -5.174  -7.532  -1.979  0.00  0.00    +0.160 C 
ATOM     12  C   LIG    1       -5.772  -6.345  -1.268  0.00  0.00    +0.064 C 
ATOM     13  C   LIG    1       -5.670  -4.988  -1.970  0.00  0.00    +0.016 C 
ATOM     14  C   LIG    1       -4.800  -5.299  -0.728  0.00  0.00    +0.011 C 
ATOM     15  O   LIG    1       -5.880  -8.461  -2.316  0.00  0.00    -0.292 OA
ATOM     16  C   LIG    1       -3.296  -5.486  -0.840  0.00  0.00    +0.001 C 
ATOM     17  C   LIG    1       -2.714  -5.780   0.544  0.00  0.00    +0.017 C 
ATOM     18  C   LIG    1       -2.618  -4.224  -1.363  0.00  0.00    +0.007 C 
ATOM     19  C   LIG    1       -3.048  -2.990  -0.583  0.00  0.00    +0.005 C 
ATOM     20  C   LIG    1       -2.288  -1.743  -1.073  0.00  0.00    +0.011 C 
ATOM     21  C   LIG    1       -0.807  -2.021  -0.927  0.00  0.00    +0.018 C 
ATOM     22  C   LIG    1       -0.509  -2.408   0.523  0.00  0.00    +0.016 C 
ENDROOT
BRANCH   1  24
ATOM     23  C   LIG    1       -0.349   1.142   0.157  0.00  0.00    +0.090 C 
ATOM     24  C   LIG    1        0.512  -0.043  -0.196  0.00  0.00    +0.174 C 
ATOM     25  O   LIG    1        1.494  -0.292   0.461  0.00  0.00    -0.293 OA
ENDBRANCH   1  24
BRANCH   1  26
ATOM     26  O   LIG    1       -0.446  -0.134  -2.404  0.00  0.00    -0.450 OA
BRANCH  26  27
ATOM     27  C   LIG    1        0.299   0.855  -2.924  0.00  0.00    +0.305 C 
ATOM     28  C   LIG    1       -0.290   1.779  -3.957  0.00  0.00    +0.136 C 
ATOM     29  O   LIG    1        1.443   1.003  -2.562  0.00  0.00    -0.251 OA
ENDBRANCH  26  27
ENDBRANCH   1  26
TORSDOF 3
