REMARK  Name = ZINC03871196
REMARK                            x       y       z     vdW  Elec       q    Type
REMARK                         _______ _______ _______ _____ _____    ______ ____
ROOT
ATOM      1  C   LIG    1       -0.017   1.381   0.010  0.00  0.00    +0.058 A 
ATOM      2  C   LIG    1        1.171   2.089   0.002  0.00  0.00    +0.018 A 
ATOM      3  C   LIG    1        2.381   1.416  -0.013  0.00  0.00    +0.133 A 
ATOM      4  F   LIG    1        3.539   2.112  -0.022  0.00  0.00    -0.205 F 
ATOM      5  C   LIG    1        2.405   0.032  -0.021  0.00  0.00    +0.087 A 
ATOM      6  C   LIG    1        1.218  -0.681  -0.013  0.00  0.00    +0.161 A 
ATOM      7  C   LIG    1        0.002  -0.004   0.002  0.00  0.00    +0.159 A 
ENDROOT
BRANCH   6   8
ATOM      8  O   LIG    1        1.240  -2.041  -0.021  0.00  0.00    -0.503 OA
ATOM      9  H   LIG    1        1.255  -2.439   0.860  0.00  0.00    +0.292 HD
ENDBRANCH   6   8
BRANCH   7  10
ATOM     10  O   LIG    1       -1.166  -0.701   0.010  0.00  0.00    -0.503 OA
ATOM     11  H   LIG    1       -1.513  -0.898  -0.871  0.00  0.00    +0.292 HD
ENDBRANCH   7  10
BRANCH   2  12
ATOM     12  C   LIG    1        1.149   3.596   0.010  0.00  0.00    +0.130 C 
BRANCH  12  13
ATOM     13  O   LIG    1       -0.074   4.051   0.594  0.00  0.00    -0.389 OA
ATOM     14  H   LIG    1       -0.867   3.756   0.125  0.00  0.00    +0.210 HD
ENDBRANCH  12  13
BRANCH  12  15
ATOM     15  C   LIG    1        1.253   4.115  -1.425  0.00  0.00    -0.050 C 
BRANCH  15  16
ATOM     16  N   LIG    1        1.351   5.581  -1.409  0.00  0.00    +0.380 N 
ATOM     17  H   LIG    1        1.420   5.923  -2.356  0.00  0.00    -0.090 HD
ATOM     18  H   LIG    1        2.172   5.857  -0.891  0.00  0.00    -0.090 HD
ATOM     19  H   LIG    1        0.530   5.968  -0.970  0.00  0.00    -0.090 HD
ENDBRANCH  15  16
ENDBRANCH  12  15
ENDBRANCH   2  12
TORSDOF 6
