REMARK  Name = ZINC03828640
REMARK                            x       y       z     vdW  Elec       q    Type
REMARK                         _______ _______ _______ _____ _____    ______ ____
ROOT
ATOM      1  C   LIG    1        4.890   2.764  -3.189  0.00  0.00    +0.005 C 
ATOM      2  C   LIG    1        6.259   3.410  -2.964  0.00  0.00    +0.005 C 
ATOM      3  C   LIG    1        6.145   4.479  -1.875  0.00  0.00    +0.005 C 
ATOM      4  C   LIG    1        5.142   5.549  -2.313  0.00  0.00    +0.003 C 
ATOM      5  C   LIG    1        3.774   4.903  -2.539  0.00  0.00    +0.005 C 
ATOM      6  C   LIG    1        3.888   3.834  -3.628  0.00  0.00    +0.005 C 
ENDROOT
BRANCH   1   7
ATOM      7  C   LIG    1        4.410   2.118  -1.888  0.00  0.00    +0.109 C 
BRANCH   7   8
ATOM      8  N   LIG    1        5.306   1.015  -1.532  0.00  0.00    -0.190 NA
ATOM      9  H   LIG    1        5.911   0.647  -2.195  0.00  0.00    +0.148 HD
BRANCH   8  10
ATOM     10  S   LIG    1        5.285   0.395   0.003  0.00  0.00    +0.059 S 
ATOM     11  O   LIG    1        6.214  -0.681   0.019  0.00  0.00    -0.153 OA
ATOM     12  O   LIG    1        5.386   1.501   0.890  0.00  0.00    -0.153 OA
BRANCH  10  21
ATOM     13  C   LIG    1        2.403  -3.577  -2.009  0.00  0.00    +0.001 A 
ATOM     14  C   LIG    1        3.667  -3.031  -2.226  0.00  0.00    +0.001 A 
ATOM     15  C   LIG    1        4.106  -1.968  -1.498  0.00  0.00    +0.010 A 
ATOM     16  C   LIG    1        3.274  -1.410  -0.512  0.00  0.00    +0.008 A 
ATOM     17  C   LIG    1        1.988  -1.964  -0.292  0.00  0.00    -0.016 A 
ATOM     18  C   LIG    1        1.156  -1.406   0.693  0.00  0.00    +0.008 A 
ATOM     19  C   LIG    1        1.595  -0.343   1.421  0.00  0.00    +0.003 A 
ATOM     20  C   LIG    1        2.858   0.203   1.204  0.00  0.00    +0.029 A 
ATOM     21  C   LIG    1        3.691  -0.312   0.259  0.00  0.00    +0.113 A 
ATOM     22  C   LIG    1        1.570  -3.063  -1.063  0.00  0.00    +0.008 A 
ENDBRANCH  10  21
ENDBRANCH   8  10
ENDBRANCH   7   8
ENDBRANCH   1   7
BRANCH   4  23
ATOM     23  C   LIG    1        5.028   6.618  -1.225  0.00  0.00    +0.087 C 
BRANCH  23  24
ATOM     24  N   LIG    1        4.161   7.701  -1.693  0.00  0.00    -0.289 NA
ATOM     25  H   LIG    1        3.764   7.657  -2.577  0.00  0.00    +0.125 HD
BRANCH  24  26
ATOM     26  C   LIG    1        3.908   8.787  -0.875  0.00  0.00    +0.195 C 
ATOM     27  N   LIG    1        4.466   8.822   0.320  0.00  0.00    -0.286 NA
ATOM     28  H   LIG    1        5.039   8.093   0.606  0.00  0.00    +0.125 HD
ATOM     29  C   LIG    1        4.245   9.858   1.143  0.00  0.00    +0.062 C 
ATOM     30  C   LIG    1        4.822   9.927   2.418  0.00  0.00    +0.019 C 
ATOM     31  C   LIG    1        4.565  11.003   3.215  0.00  0.00    +0.002 C 
ATOM     32  C   LIG    1        3.738  12.036   2.782  0.00  0.00    +0.000 C 
ATOM     33  C   LIG    1        3.161  11.999   1.547  0.00  0.00    +0.008 C 
ATOM     34  C   LIG    1        3.404  10.910   0.704  0.00  0.00    +0.037 C 
ATOM     35  C   LIG    1        2.832  10.818  -0.590  0.00  0.00    +0.126 C 
ATOM     36  N   LIG    1        3.116   9.755  -1.328  0.00  0.00    -0.274 NA
ATOM     37  H   LIG    1        2.224   9.316  -1.555  0.00  0.00    +0.126 HD
BRANCH  35  38
ATOM     38  N   LIG    1        2.006  11.812  -1.069  0.00  0.00    -0.315 NA
ATOM     39  H   LIG    1        1.622  11.737  -1.956  0.00  0.00    +0.120 HD
ATOM     40  H   LIG    1        1.810  12.586  -0.519  0.00  0.00    +0.120 HD
ENDBRANCH  35  38
ENDBRANCH  24  26
ENDBRANCH  23  24
ENDBRANCH   4  23
TORSDOF 8
