REMARK  Name = ZINC03786476
REMARK                            x       y       z     vdW  Elec       q    Type
REMARK                         _______ _______ _______ _____ _____    ______ ____
ROOT
ATOM      1  C   LIG    1        3.711  -0.707  -0.038  0.00  0.00    +0.192 C 
ATOM      2  C   LIG    1        4.134  -1.054   1.359  0.00  0.00    +0.019 A 
ATOM      3  C   LIG    1        3.674  -1.948   2.299  0.00  0.00    +0.009 A 
ATOM      4  C   LIG    1        4.280  -2.021   3.542  0.00  0.00    +0.000 A 
ATOM      5  C   LIG    1        5.350  -1.196   3.845  0.00  0.00    +0.001 A 
ATOM      6  C   LIG    1        5.826  -0.303   2.907  0.00  0.00    +0.013 A 
ATOM      7  C   LIG    1        5.228  -0.231   1.649  0.00  0.00    +0.045 A 
ATOM      8  C   LIG    1        5.537   0.570   0.445  0.00  0.00    +0.250 C 
ATOM      9  O   LIG    1        6.356   1.467   0.394  0.00  0.00    -0.270 OA
ATOM     10  O   LIG    1        3.640  -1.835  -0.911  0.00  0.00    -0.346 OA
ATOM     11  C   LIG    1        4.090  -1.366  -2.223  0.00  0.00    +0.182 C 
ATOM     12  C   LIG    1        4.525   0.108  -2.026  0.00  0.00    +0.139 C 
ATOM     13  N   LIG    1        4.784   0.163  -0.574  0.00  0.00    -0.259 N 
ENDROOT
BRANCH   1  17
ATOM     14  C   LIG    1       -0.017   1.378   0.010  0.00  0.00    +0.000 A 
ATOM     15  C   LIG    1        1.171   2.086   0.002  0.00  0.00    +0.000 A 
ATOM     16  C   LIG    1        2.377   1.411  -0.015  0.00  0.00    +0.008 A 
ATOM     17  C   LIG    1        2.396   0.029  -0.022  0.00  0.00    +0.007 A 
ATOM     18  C   LIG    1        1.208  -0.679  -0.013  0.00  0.00    +0.008 A 
ATOM     19  C   LIG    1        0.002  -0.004   0.002  0.00  0.00    +0.000 A 
ENDBRANCH   1  17
TORSDOF 1
