REMARK  Name = ZINC03861548
REMARK                            x       y       z     vdW  Elec       q    Type
REMARK                         _______ _______ _______ _____ _____    ______ ____
ROOT
ATOM      1  C   LIG    1        0.657  -2.104  -1.120  0.00  0.00    +0.129 C 
ATOM      2  C   LIG    1        1.415  -2.649   0.094  0.00  0.00    +0.129 C 
ATOM      3  C   LIG    1        2.838  -2.090   0.108  0.00  0.00    +0.032 C 
ATOM      4  C   LIG    1        3.565  -2.494  -1.177  0.00  0.00    +0.004 C 
ATOM      5  C   LIG    1        2.803  -1.938  -2.381  0.00  0.00    -0.024 C 
ATOM      6  C   LIG    1        3.517  -2.317  -3.679  0.00  0.00    -0.074 C 
ATOM      7  N   LIG    1        2.767  -1.764  -4.818  0.00  0.00    +0.386 N 
ATOM      8  H   LIG    1        2.662  -0.770  -4.680  0.00  0.00    -0.081 HD
ATOM      9  C   LIG    1        3.495  -1.997  -6.069  0.00  0.00    -0.073 C 
ATOM     10  C   LIG    1        2.886  -1.133  -7.182  0.00  0.00    +0.019 C 
ATOM     11  C   LIG    1        1.390  -1.322  -7.154  0.00  0.00    -0.022 A 
ATOM     12  C   LIG    1        0.402  -0.976  -8.151  0.00  0.00    +0.003 A 
ATOM     13  C   LIG    1        0.492  -0.380  -9.413  0.00  0.00    +0.010 A 
ATOM     14  C   LIG    1       -0.682  -0.202 -10.101  0.00  0.00    +0.001 A 
ATOM     15  C   LIG    1       -1.906  -0.590  -9.582  0.00  0.00    +0.002 A 
ATOM     16  C   LIG    1       -2.025  -1.181  -8.336  0.00  0.00    +0.026 A 
ATOM     17  C   LIG    1       -0.850  -1.375  -7.614  0.00  0.00    +0.047 A 
ATOM     18  N   LIG    1       -0.611  -1.918  -6.383  0.00  0.00    -0.359 N 
ATOM     19  H   LIG    1       -1.290  -2.273  -5.788  0.00  0.00    +0.166 HD
ATOM     20  C   LIG    1        0.730  -1.886  -6.115  0.00  0.00    +0.006 A 
ATOM     21  C   LIG    1        1.435  -2.380  -4.878  0.00  0.00    -0.020 C 
ATOM     22  C   LIG    1        0.639  -2.002  -3.627  0.00  0.00    -0.005 C 
ATOM     23  C   LIG    1        1.387  -2.521  -2.396  0.00  0.00    +0.005 C 
ENDROOT
BRANCH   1  24
ATOM     24  C   LIG    1        0.598  -0.600  -1.043  0.00  0.00    +0.313 C 
ATOM     25  O   LIG    1        1.088   0.070  -1.921  0.00  0.00    -0.250 OA
BRANCH  24  27
ATOM     26  C   LIG    1       -0.017   1.425   0.010  0.00  0.00    +0.280 C 
ATOM     27  O   LIG    1        0.002  -0.004   0.002  0.00  0.00    -0.468 OA
ENDBRANCH  24  27
ENDBRANCH   1  24
BRANCH   2  28
ATOM     28  O   LIG    1        1.466  -4.075   0.022  0.00  0.00    -0.391 OA
ATOM     29  H   LIG    1        1.932  -4.490   0.760  0.00  0.00    +0.210 HD
ENDBRANCH   2  28
TORSDOF 3
