REMARK  Name = ZINC03869855
REMARK                            x       y       z     vdW  Elec       q    Type
REMARK                         _______ _______ _______ _____ _____    ______ ____
ROOT
ATOM      1  C   LIG    1        2.628  -4.245  -0.046  0.00  0.00    +0.092 C 
ENDROOT
BRANCH   1   8
ATOM      2  C   LIG    1       -0.017   1.373   0.010  0.00  0.00    +0.001 A 
ATOM      3  C   LIG    1        1.171   2.090   0.002  0.00  0.00    +0.004 A 
ATOM      4  C   LIG    1        2.386   1.437  -0.013  0.00  0.00    +0.047 A 
ATOM      5  C   LIG    1        2.427   0.049  -0.021  0.00  0.00    +0.143 A 
ATOM      6  C   LIG    1        1.225  -0.678  -0.013  0.00  0.00    +0.059 A 
ATOM      7  C   LIG    1        1.282  -2.148  -0.022  0.00  0.00    +0.138 A 
ATOM      8  C   LIG    1        2.514  -2.742  -0.037  0.00  0.00    +0.084 A 
ATOM      9  C   LIG    1        3.670  -1.948  -0.044  0.00  0.00    +0.344 A 
ATOM     10  O   LIG    1        4.762  -2.490  -0.057  0.00  0.00    -0.245 OA
ATOM     11  O   LIG    1        3.608  -0.607  -0.036  0.00  0.00    -0.422 OA
ATOM     12  C   LIG    1        0.002  -0.004   0.002  0.00  0.00    +0.015 A 
BRANCH   7  13
ATOM     13  O   LIG    1        0.151  -2.889  -0.015  0.00  0.00    -0.506 OA
ATOM     14  H   LIG    1       -0.662  -2.365  -0.004  0.00  0.00    +0.292 HD
ENDBRANCH   7  13
ENDBRANCH   1   8
BRANCH   1  15
ATOM     15  C   LIG    1        2.776  -4.729  -1.465  0.00  0.00    +0.084 A 
ATOM     16  C   LIG    1        1.634  -4.943  -2.265  0.00  0.00    +0.200 A 
ATOM     17  C   LIG    1        1.852  -5.418  -3.646  0.00  0.00    +0.064 A 
ATOM     18  C   LIG    1        0.784  -5.656  -4.509  0.00  0.00    +0.015 A 
ATOM     19  C   LIG    1        1.031  -6.098  -5.791  0.00  0.00    +0.001 A 
ATOM     20  C   LIG    1        2.333  -6.306  -6.220  0.00  0.00    +0.004 A 
ATOM     21  C   LIG    1        3.398  -6.074  -5.376  0.00  0.00    +0.047 A 
ATOM     22  C   LIG    1        3.170  -5.627  -4.080  0.00  0.00    +0.143 A 
ATOM     23  O   LIG    1        4.198  -5.393  -3.237  0.00  0.00    -0.425 OA
ATOM     24  O   LIG    1        0.510  -4.743  -1.833  0.00  0.00    -0.287 OA
ATOM     25  C   LIG    1        4.011  -4.957  -1.984  0.00  0.00    +0.292 A 
BRANCH  25  26
ATOM     26  O   LIG    1        5.092  -4.741  -1.206  0.00  0.00    -0.480 OA
ATOM     27  H   LIG    1        5.934  -4.925  -1.643  0.00  0.00    +0.295 HD
ENDBRANCH  25  26
ENDBRANCH   1  15
TORSDOF 4
