REMARK  Name = ZINC03779696
REMARK                            x       y       z     vdW  Elec       q    Type
REMARK                         _______ _______ _______ _____ _____    ______ ____
ROOT
ATOM      1  C   LIG    1       -5.238  -3.475   0.033  0.00  0.00    +0.209 A 
ATOM      2  N   LIG    1       -6.245  -2.605   0.042  0.00  0.00    -0.203 NA
ATOM      3  C   LIG    1       -7.506  -3.016   0.052  0.00  0.00    +0.148 A 
ATOM      4  C   LIG    1       -7.763  -4.399   0.052  0.00  0.00    +0.147 A 
ATOM      5  C   LIG    1       -6.669  -5.282   0.043  0.00  0.00    +0.169 A 
ATOM      6  N   LIG    1       -7.202  -6.546   0.046  0.00  0.00    -0.285 N 
ATOM      7  C   LIG    1       -8.559  -6.416   0.057  0.00  0.00    +0.203 A 
ATOM      8  N   LIG    1       -8.886  -5.156   0.061  0.00  0.00    -0.231 NA
ATOM      9  N   LIG    1       -5.438  -4.786   0.028  0.00  0.00    -0.200 NA
ENDROOT
BRANCH   6  10
ATOM     10  C   LIG    1       -6.452  -7.804   0.038  0.00  0.00    +0.254 C 
ATOM     11  C   LIG    1       -6.089  -8.223   1.480  0.00  0.00    +0.196 C 
ATOM     12  C   LIG    1       -6.229  -9.762   1.471  0.00  0.00    +0.185 C 
ATOM     13  C   LIG    1       -6.659 -10.091   0.024  0.00  0.00    +0.237 C 
ATOM     14  O   LIG    1       -7.276  -8.878  -0.464  0.00  0.00    -0.339 OA
BRANCH  13  15
ATOM     15  C   LIG    1       -7.649 -11.227   0.016  0.00  0.00    +0.245 C 
ATOM     16  N   LIG    1       -7.270 -12.454   0.426  0.00  0.00    -0.313 N 
ATOM     17  H   LIG    1       -6.360 -12.605   0.726  0.00  0.00    +0.149 HD
ATOM     18  O   LIG    1       -8.787 -11.037  -0.358  0.00  0.00    -0.273 OA
BRANCH  16  19
ATOM     19  C   LIG    1       -8.233 -13.558   0.418  0.00  0.00    +0.101 C 
ATOM     20  C   LIG    1       -7.552 -14.831   0.926  0.00  0.00    +0.024 C 
ENDBRANCH  16  19
ENDBRANCH  13  15
BRANCH  11  21
ATOM     21  O   LIG    1       -4.748  -7.841   1.791  0.00  0.00    -0.385 OA
ATOM     22  H   LIG    1       -4.468  -8.080   2.685  0.00  0.00    +0.210 HD
ENDBRANCH  11  21
BRANCH  12  23
ATOM     23  O   LIG    1       -4.977 -10.380   1.777  0.00  0.00    -0.386 OA
ATOM     24  H   LIG    1       -5.007 -11.346   1.784  0.00  0.00    +0.210 HD
ENDBRANCH  12  23
ENDBRANCH   6  10
BRANCH   3  25
ATOM     25  N   LIG    1       -8.546  -2.103   0.061  0.00  0.00    -0.341 N 
ATOM     26  H   LIG    1       -9.465  -2.415   0.069  0.00  0.00    +0.144 HD
ATOM     27  H   LIG    1       -8.357  -1.152   0.061  0.00  0.00    +0.144 HD
ENDBRANCH   3  25
BRANCH   1  29
ATOM     28  C   LIG    1       -2.793  -2.573   0.015  0.00  0.00    -0.094 C 
ATOM     29  C   LIG    1       -3.895  -2.979   0.023  0.00  0.00    -0.026 C 
BRANCH  28  30
ATOM     30  C   LIG    1       -1.413  -2.063   0.004  0.00  0.00    +0.089 C 
BRANCH  30  31
ATOM     31  C   LIG    1       -1.433  -0.534   0.013  0.00  0.00    +0.012 C 
BRANCH  31  33
ATOM     32  C   LIG    1       -0.019   1.526   0.010  0.00  0.00    +0.004 C 
ATOM     33  C   LIG    1        0.002  -0.004   0.002  0.00  0.00    -0.002 C 
ENDBRANCH  31  33
ENDBRANCH  30  31
ENDBRANCH  28  30
ENDBRANCH   1  29
TORSDOF 10
