REMARK  Name = ZINC03870710
REMARK                            x       y       z     vdW  Elec       q    Type
REMARK                         _______ _______ _______ _____ _____    ______ ____
ROOT
ATOM      1  CA  THR A  1        1.508   2.189  -2.311  0.00  0.00    -0.014 C 
ATOM      2  N   THR A  1        1.334   3.434  -1.540  0.00  0.00    +0.389 N 
ATOM      3  H1  THR A  1        2.158   4.034  -1.664  0.00  0.00    -0.085 HD
ATOM      4  H2  THR A  1        0.497   3.929  -1.870  0.00  0.00    -0.085 HD
ATOM      5  CA  THR A  1        1.178   3.097  -0.117  0.00  0.00    -0.014 C 
ATOM      6  CB  THR A  1        1.286   1.562  -0.002  0.00  0.00    +0.130 C 
ATOM      7  CG2 THR A  1        2.063   1.169  -1.286  0.00  0.00    +0.130 C 
ENDROOT
BRANCH   6   8
ATOM      8  OG1 THR A  1       -0.011   0.963   0.007  0.00  0.00    -0.391 OA
ATOM      9  HG1 THR A  1        0.002  -0.004   0.002  0.00  0.00    +0.210 HD
ENDBRANCH   6   8
BRANCH   7  10
ATOM     10  OG1 THR A  1        3.470   1.338  -1.105  0.00  0.00    -0.391 OA
ATOM     11  HG1 THR A  1        3.846   0.788  -0.404  0.00  0.00    +0.210 HD
ENDBRANCH   7  10
BRANCH   1  12
ATOM     12  C   THR A  1        2.510   2.399  -3.449  0.00  0.00    +0.143 C 
BRANCH  12  13
ATOM     13  O   THR A  1        1.933   3.252  -4.440  0.00  0.00    -0.397 OA
ATOM     14  H   THR A  1        2.514   3.428  -5.193  0.00  0.00    +0.209 HD
ENDBRANCH  12  13
ENDBRANCH   1  12
BRANCH   5  15
ATOM     15  C   THR A  1       -0.192   3.561   0.383  0.00  0.00    +0.143 C 
BRANCH  15  16
ATOM     16  O   THR A  1       -0.240   4.989   0.382  0.00  0.00    -0.397 OA
ATOM     17  H   THR A  1       -1.081   5.354   0.689  0.00  0.00    +0.209 HD
ENDBRANCH  15  16
ENDBRANCH   5  15
TORSDOF 6
