REMARK  Name = ZINC03775883
REMARK                            x       y       z     vdW  Elec       q    Type
REMARK                         _______ _______ _______ _____ _____    ______ ____
ROOT
ATOM      1  C   LIG    1       -1.127   3.014   0.731  0.00  0.00    +0.057 C 
ATOM      2  C   LIG    1       -1.297   1.665   0.017  0.00  0.00    +0.086 C 
ATOM      3  N   LIG    1       -0.011   0.966   0.007  0.00  0.00    -0.296 N 
ATOM      4  H   LIG    1        0.002  -0.004   0.002  0.00  0.00    +0.151 HD
ATOM      5  C   LIG    1        1.149   1.639  -0.000  0.00  0.00    +0.301 C 
ATOM      6  N   LIG    1        1.208   2.979   0.017  0.00  0.00    -0.286 N 
ATOM      7  H   LIG    1        2.074   3.416   0.019  0.00  0.00    +0.151 HD
ATOM      8  O   LIG    1        2.189   1.009  -0.023  0.00  0.00    -0.253 OA
ATOM      9  CA  LIG    1       -0.008   3.794   0.034  0.00  0.00    +0.185 C 
ENDROOT
BRANCH   9  10
ATOM     10  C   LIG    1        0.255   5.075   0.782  0.00  0.00    +0.325 C 
ATOM     11  O   LIG    1        1.186   5.147   1.548  0.00  0.00    -0.249 OA
BRANCH  10  12
ATOM     12  OXT LIG    1       -0.546   6.137   0.597  0.00  0.00    -0.479 OA
ATOM     13  HXT LIG    1       -1.268   6.081   0.002  0.00  0.00    +0.295 HD
ENDBRANCH  10  12
ENDBRANCH   9  10
BRANCH   2  14
ATOM     14  C   LIG    1       -2.333   0.821   0.762  0.00  0.00    +0.088 C 
BRANCH  14  15
ATOM     15  S   LIG    1       -2.522  -0.778  -0.073  0.00  0.00    -0.176 S 
ATOM     16  H   LIG    1       -3.445  -1.423   0.663  0.00  0.00    +0.102 HD
ENDBRANCH  14  15
ENDBRANCH   2  14
TORSDOF 4
