REMARK  Name = ZINC03870330
REMARK                            x       y       z     vdW  Elec       q    Type
REMARK                         _______ _______ _______ _____ _____    ______ ____
ROOT
ATOM      1  N   LIG    1       -2.135   1.078  -1.214  0.00  0.00    +0.384 N 
ATOM      2  H   LIG    1       -2.609   1.409  -0.365  0.00  0.00    -0.085 HD
ATOM      3  H   LIG    1       -2.114   0.051  -1.215  0.00  0.00    -0.085 HD
ENDROOT
BRANCH   1   5
ATOM      4  C   LIG    1       -2.178   1.058  -3.669  0.00  0.00    -0.010 C 
ATOM      5  C   LIG    1       -2.873   1.552  -2.399  0.00  0.00    -0.071 C 
ATOM      6  C   LIG    1       -2.915   3.081  -2.402  0.00  0.00    -0.012 C 
ATOM      7  C   LIG    1       -3.688   3.568  -3.629  0.00  0.00    +0.004 C 
ATOM      8  C   LIG    1       -5.116   3.019  -3.583  0.00  0.00    +0.012 C 
ATOM      9  C   LIG    1       -5.074   1.490  -3.580  0.00  0.00    +0.004 C 
ATOM     10  C   LIG    1       -4.301   1.003  -2.353  0.00  0.00    -0.012 C 
BRANCH   8  11
ATOM     11  C   LIG    1       -5.889   3.506  -4.810  0.00  0.00    +0.032 C 
ATOM     12  C   LIG    1       -7.275   2.858  -4.830  0.00  0.00    +0.031 C 
ATOM     13  C   LIG    1       -5.127   3.119  -6.080  0.00  0.00    +0.031 C 
BRANCH  11  14
ATOM     14  N   LIG    1       -6.032   4.963  -4.751  0.00  0.00    -0.309 N 
ATOM     15  H   LIG    1       -5.657   5.457  -4.005  0.00  0.00    +0.149 HD
ATOM     16  C   LIG    1       -6.683   5.617  -5.734  0.00  0.00    +0.224 C 
ATOM     17  O   LIG    1       -7.151   4.999  -6.667  0.00  0.00    -0.275 OA
BRANCH  16  18
ATOM     18  C   LIG    1       -6.830   7.115  -5.673  0.00  0.00    +0.175 C 
ATOM     19 BR   LIG    1       -7.824   7.741  -7.250  0.00  0.00    -0.082 Br
ENDBRANCH  16  18
ENDBRANCH  11  14
ENDBRANCH   8  11
ENDBRANCH   1   5
BRANCH   1  20
ATOM     20  C   LIG    1       -0.753   1.593  -1.232  0.00  0.00    -0.047 C 
BRANCH  20  21
ATOM     21  C   LIG    1       -0.013   1.086   0.008  0.00  0.00    +0.135 C 
BRANCH  21  22
ATOM     22  O   LIG    1       -0.682   1.547   1.184  0.00  0.00    -0.390 OA
ATOM     23  H   LIG    1       -0.732   2.510   1.256  0.00  0.00    +0.210 HD
ENDBRANCH  21  22
BRANCH  21  24
ATOM     24  C   LIG    1        1.423   1.615  -0.003  0.00  0.00    +0.258 C 
BRANCH  24  25
ATOM     25  O   LIG    1        2.147   1.049   1.091  0.00  0.00    -0.489 OA
BRANCH  25  26
ATOM     26  C   LIG    1        3.448   1.419   1.226  0.00  0.00    +0.130 A 
ATOM     27  C   LIG    1        4.018   2.300   0.327  0.00  0.00    +0.046 A 
ATOM     28  C   LIG    1        5.344   2.684   0.467  0.00  0.00    +0.006 A 
ATOM     29  C   LIG    1        6.116   2.186   1.494  0.00  0.00    +0.026 A 
ATOM     30  C   LIG    1        5.566   1.292   2.409  0.00  0.00    +0.050 A 
ATOM     31  N   LIG    1        6.069   0.638   3.511  0.00  0.00    -0.361 N 
ATOM     32  H   LIG    1        6.978   0.718   3.840  0.00  0.00    +0.165 HD
ATOM     33  C   LIG    1        5.094  -0.143   4.073  0.00  0.00    +0.084 A 
ATOM     34  C   LIG    1        3.955  -0.026   3.374  0.00  0.00    +0.031 A 
ATOM     35  C   LIG    1        4.221   0.905   2.274  0.00  0.00    +0.041 A 
ENDBRANCH  25  26
ENDBRANCH  24  25
ENDBRANCH  21  24
ENDBRANCH  20  21
ENDBRANCH   1  20
TORSDOF 10
