REMARK  Name = ZINC03828650
REMARK                            x       y       z     vdW  Elec       q    Type
REMARK                         _______ _______ _______ _____ _____    ______ ____
ROOT
ATOM      1  C   LIG    1        3.519   3.312  -0.684  0.00  0.00    +0.162 A 
ATOM      2  C   LIG    1        3.541   1.961  -0.479  0.00  0.00    +0.062 A 
ATOM      3  C   LIG    1        2.344   1.278  -0.234  0.00  0.00    +0.044 A 
ATOM      4  C   LIG    1        1.119   1.989  -0.199  0.00  0.00    +0.080 A 
ATOM      5  N   LIG    1       -0.014   1.310   0.039  0.00  0.00    -0.235 NA
ATOM      6  C   LIG    1        0.017   0.013   0.235  0.00  0.00    +0.223 A 
ATOM      7  N   LIG    1        1.137  -0.692   0.212  0.00  0.00    -0.220 NA
ATOM      8  C   LIG    1        1.120   3.373  -0.411  0.00  0.00    +0.078 A 
ATOM      9  C   LIG    1        2.312  -0.120  -0.015  0.00  0.00    +0.134 A 
ATOM     10  C   LIG    1        2.311   4.022  -0.651  0.00  0.00    +0.164 A 
ENDROOT
BRANCH   1  12
ATOM     11  C   LIG    1        5.880   3.196  -0.944  0.00  0.00    +0.277 C 
ATOM     12  O   LIG    1        4.683   3.974  -0.922  0.00  0.00    -0.491 OA
ENDBRANCH   1  12
BRANCH   9  13
ATOM     13  N   LIG    1        3.472  -0.868  -0.036  0.00  0.00    -0.299 N 
ATOM     14  H   LIG    1        4.332  -0.427  -0.119  0.00  0.00    +0.154 HD
BRANCH  13  15
ATOM     15  C   LIG    1        3.407  -2.261   0.062  0.00  0.00    +0.036 A 
ATOM     16  C   LIG    1        4.400  -2.957   0.740  0.00  0.00    +0.023 A 
ATOM     17  C   LIG    1        4.334  -4.333   0.841  0.00  0.00    +0.005 A 
ATOM     18  C   LIG    1        3.286  -5.021   0.259  0.00  0.00    +0.045 A 
ATOM     19  C   LIG    1        2.295  -4.332  -0.424  0.00  0.00    +0.119 A 
ATOM     20  C   LIG    1        2.355  -2.951  -0.523  0.00  0.00    +0.068 A 
BRANCH  19  21
ATOM     21  O   LIG    1        1.265  -5.010  -0.996  0.00  0.00    -0.507 OA
ATOM     22  H   LIG    1        1.432  -5.281  -1.909  0.00  0.00    +0.292 HD
ENDBRANCH  19  21
ENDBRANCH  13  15
ENDBRANCH   9  13
BRANCH  10  23
ATOM     23  O   LIG    1        2.315   5.364  -0.858  0.00  0.00    -0.491 OA
ATOM     24  C   LIG    1        1.052   6.031  -0.812  0.00  0.00    +0.277 C 
ENDBRANCH  10  23
TORSDOF 5
