REMARK  Name = ZINC03831848
REMARK                            x       y       z     vdW  Elec       q    Type
REMARK                         _______ _______ _______ _____ _____    ______ ____
ROOT
ATOM      1  C   LIG    1        4.816   8.005  -4.983  0.00  0.00    +0.044 C 
ATOM      2  C   LIG    1        3.932   7.965  -3.763  0.00  0.00    -0.041 A 
ATOM      3  C   LIG    1        2.968   8.915  -3.586  0.00  0.00    +0.004 A 
ATOM      4  C   LIG    1        2.147   8.889  -2.466  0.00  0.00    +0.002 A 
ATOM      5  C   LIG    1        2.291   7.905  -1.513  0.00  0.00    +0.026 A 
ATOM      6  C   LIG    1        3.268   6.926  -1.671  0.00  0.00    +0.050 A 
ATOM      7  N   LIG    1        3.645   5.843  -0.913  0.00  0.00    -0.332 N 
ATOM      8  C   LIG    1        4.692   5.200  -1.546  0.00  0.00    +0.106 A 
ATOM      9  C   LIG    1        4.982   5.853  -2.702  0.00  0.00    +0.041 A 
ATOM     10  C   LIG    1        4.099   6.954  -2.808  0.00  0.00    +0.004 A 
ENDROOT
BRANCH   8  11
ATOM     11  C   LIG    1        5.380   3.999  -1.049  0.00  0.00    +0.261 C 
ATOM     12  N   LIG    1        6.395   3.463  -1.756  0.00  0.00    -0.306 N 
ATOM     13  H   LIG    1        6.622   3.824  -2.627  0.00  0.00    +0.149 HD
ATOM     14  O   LIG    1        5.034   3.490  -0.000  0.00  0.00    -0.269 OA
BRANCH  12  15
ATOM     15  C   LIG    1        7.153   2.336  -1.209  0.00  0.00    +0.140 C 
BRANCH  15  16
ATOM     16  C   LIG    1        8.299   2.007  -2.131  0.00  0.00    -0.023 A 
ATOM     17  C   LIG    1        8.220   0.934  -2.965  0.00  0.00    +0.006 A 
ATOM     18  C   LIG    1        9.269   0.615  -3.824  0.00  0.00    +0.001 A 
ATOM     19  C   LIG    1       10.404   1.366  -3.854  0.00  0.00    +0.008 A 
ATOM     20  C   LIG    1       10.523   2.481  -3.008  0.00  0.00    -0.018 A 
ATOM     21  C   LIG    1       11.679   3.280  -3.010  0.00  0.00    +0.008 A 
ATOM     22  C   LIG    1       11.758   4.352  -2.176  0.00  0.00    +0.001 A 
ATOM     23  C   LIG    1       10.708   4.672  -1.317  0.00  0.00    +0.001 A 
ATOM     24  C   LIG    1        9.573   3.922  -1.288  0.00  0.00    +0.009 A 
ATOM     25  C   LIG    1        9.453   2.809  -2.137  0.00  0.00    -0.013 A 
ENDBRANCH  15  16
ENDBRANCH  12  15
ENDBRANCH   8  11
BRANCH   7  26
ATOM     26  C   LIG    1        3.041   5.439   0.359  0.00  0.00    +0.157 C 
BRANCH  26  27
ATOM     27  C   LIG    1        1.828   4.586   0.091  0.00  0.00    -0.027 A 
ATOM     28  C   LIG    1        1.967   3.218  -0.064  0.00  0.00    +0.005 A 
ATOM     29  C   LIG    1        0.858   2.428  -0.309  0.00  0.00    +0.001 A 
ATOM     30  C   LIG    1       -0.393   3.002  -0.407  0.00  0.00    +0.016 A 
ATOM     31  C   LIG    1       -0.540   4.379  -0.247  0.00  0.00    +0.061 A 
ATOM     32  C   LIG    1        0.582   5.170   0.001  0.00  0.00    +0.021 A 
BRANCH  31  33
ATOM     33  C   LIG    1       -1.881   5.000  -0.344  0.00  0.00    +0.266 C 
ATOM     34  N   LIG    1       -1.950   6.313  -0.187  0.00  0.00    -0.288 N 
ATOM     35  H   LIG    1       -1.096   6.854  -0.006  0.00  0.00    +0.301 HD
ATOM     36  H   LIG    1       -2.851   6.787  -0.245  0.00  0.00    +0.301 HD
BRANCH  33  37
ATOM     37  N   LIG    1       -2.987   4.216  -0.589  0.00  0.00    -0.250 N 
ATOM     38  H   LIG    1       -3.865   4.623  -0.653  0.00  0.00    +0.288 HD
ATOM     39  H   LIG    1       -2.887   3.257  -0.698  0.00  0.00    +0.288 HD
ENDBRANCH  33  37
ENDBRANCH  31  33
ENDBRANCH  26  27
ENDBRANCH   7  26
TORSDOF 7
