REMARK  Name = ZINC03808883
REMARK                            x       y       z     vdW  Elec       q    Type
REMARK                         _______ _______ _______ _____ _____    ______ ____
ROOT
ATOM      1  C   LIG    1        0.042  -0.075   2.501  0.00  0.00    -0.011 C 
ATOM      2  C   LIG    1        0.772  -0.505   1.227  0.00  0.00    -0.049 C 
ATOM      3  N   LIG    1        2.133   0.065   1.217  0.00  0.00    +0.384 N 
ATOM      4  H   LIG    1        2.641  -0.257   2.050  0.00  0.00    -0.085 HD
ATOM      5  H   LIG    1        2.626  -0.248   0.373  0.00  0.00    -0.085 HD
ATOM      6  C   LIG    1        2.067   1.539   1.225  0.00  0.00    -0.050 C 
ATOM      7  C   LIG    1        1.284   2.019   0.001  0.00  0.00    +0.112 C 
ATOM      8  O   LIG    1       -0.017   1.426   0.010  0.00  0.00    -0.379 OA
ATOM      9  C   LIG    1        0.002  -0.004   0.002  0.00  0.00    +0.144 C 
ENDROOT
BRANCH   7  10
ATOM     10  C   LIG    1        1.151   3.543   0.045  0.00  0.00    +0.150 C 
BRANCH  10  11
ATOM     11  C   LIG    1        0.484   4.026  -1.217  0.00  0.00    +0.307 C 
ATOM     12  O   LIG    1        0.149   3.233  -2.065  0.00  0.00    -0.251 OA
BRANCH  11  13
ATOM     13  O   LIG    1        0.261   5.337  -1.399  0.00  0.00    -0.481 OA
ATOM     14  H   LIG    1        0.521   5.952  -0.741  0.00  0.00    +0.295 HD
ENDBRANCH  11  13
ENDBRANCH  10  11
ENDBRANCH   7  10
TORSDOF 3
