REMARK  Name = ZINC03814167
REMARK                            x       y       z     vdW  Elec       q    Type
REMARK                         _______ _______ _______ _____ _____    ______ ____
ROOT
ATOM      1  C   LIG    1       -0.825   1.630  -1.196  0.00  0.00    +0.021 C 
ATOM      2  C   LIG    1       -0.013   1.086   0.008  0.00  0.00    +0.035 C 
ATOM      3  C   LIG    1       -0.798   1.615   1.227  0.00  0.00    +0.184 C 
ATOM      4  N   LIG    1       -1.581   2.775   0.768  0.00  0.00    -0.288 N 
ATOM      5  C   LIG    1       -2.419   3.507   1.529  0.00  0.00    +0.217 C 
ATOM      6  O   LIG    1       -2.579   3.224   2.698  0.00  0.00    -0.276 OA
ATOM      7  C   LIG    1       -1.294   3.006  -0.659  0.00  0.00    +0.109 C 
ENDROOT
BRANCH   3   8
ATOM      8  C   LIG    1        0.161   2.034   2.311  0.00  0.00    +0.325 C 
ATOM      9  O   LIG    1        0.186   3.183   2.685  0.00  0.00    -0.249 OA
BRANCH   8  10
ATOM     10  O   LIG    1        0.987   1.131   2.863  0.00  0.00    -0.479 OA
ATOM     11  H   LIG    1        0.968   0.240   2.573  0.00  0.00    +0.295 HD
ENDBRANCH   8  10
ENDBRANCH   3   8
BRANCH   5  12
ATOM     12  C   LIG    1       -3.156   4.675   0.928  0.00  0.00    +0.106 C 
BRANCH  12  13
ATOM     13  C   LIG    1       -4.034   5.329   1.998  0.00  0.00    +0.075 C 
BRANCH  13  14
ATOM     14  S   LIG    1       -4.922   6.735   1.274  0.00  0.00    -0.178 S 
ATOM     15  H   LIG    1       -5.650   7.221   2.295  0.00  0.00    +0.102 HD
ENDBRANCH  13  14
ENDBRANCH  12  13
ENDBRANCH   5  12
TORSDOF 5
