REMARK  Name = ZINC03786156
REMARK                            x       y       z     vdW  Elec       q    Type
REMARK                         _______ _______ _______ _____ _____    ______ ____
ROOT
ATOM      1  C   LIG    1        0.679  -2.115   1.088  0.00  0.00    +0.134 C 
ATOM      2  C   LIG    1        1.433  -2.553   2.353  0.00  0.00    +0.118 C 
ATOM      3  N   LIG    1        1.436  -4.024   2.375  0.00  0.00    -0.336 N 
ATOM      4  H   LIG    1        2.235  -4.513   2.626  0.00  0.00    +0.147 HD
ATOM      5  C   LIG    1        0.289  -4.691   2.033  0.00  0.00    +0.151 C 
ATOM      6  N   LIG    1       -0.782  -4.165   1.452  0.00  0.00    -0.378 N 
ATOM      7  H   LIG    1       -1.602  -4.737   1.218  0.00  0.00    +0.160 HD
ATOM      8  C   LIG    1       -0.740  -2.686   1.151  0.00  0.00    +0.129 C 
ENDROOT
BRANCH   1   9
ATOM      9  C   LIG    1        0.618  -0.611   1.029  0.00  0.00    +0.313 C 
ATOM     10  O   LIG    1        1.124   0.049   1.905  0.00  0.00    -0.250 OA
BRANCH   9  12
ATOM     11  C   LIG    1       -0.018   1.448   0.010  0.00  0.00    +0.280 C 
ATOM     12  O   LIG    1        0.002  -0.004   0.002  0.00  0.00    -0.468 OA
ENDBRANCH   9  12
ENDBRANCH   1   9
TORSDOF 2
