REMARK  Name = ZINC03870533
REMARK                            x       y       z     vdW  Elec       q    Type
REMARK                         _______ _______ _______ _____ _____    ______ ____
ROOT
ATOM      1  C   LIG    1       -4.410  -5.822  -2.304  0.00  0.00    +0.217 A 
ATOM      2  N   LIG    1       -5.425  -4.963  -2.226  0.00  0.00    -0.222 NA
ATOM      3  C   LIG    1       -6.674  -5.364  -2.343  0.00  0.00    +0.126 A 
ATOM      4  C   LIG    1       -6.923  -6.731  -2.556  0.00  0.00    +0.038 A 
ATOM      5  C   LIG    1       -8.226  -7.237  -2.691  0.00  0.00    +0.025 A 
ATOM      6  C   LIG    1       -8.377  -8.598  -2.899  0.00  0.00    +0.023 A 
ATOM      7  C   LIG    1       -7.232  -9.421  -2.966  0.00  0.00    +0.136 A 
ATOM      8  N   LIG    1       -6.019  -8.923  -2.836  0.00  0.00    -0.212 NA
ATOM      9  C   LIG    1       -5.818  -7.619  -2.635  0.00  0.00    +0.167 A 
ATOM     10  N   LIG    1       -4.584  -7.114  -2.508  0.00  0.00    -0.195 NA
ENDROOT
BRANCH   6  11
ATOM     11  C   LIG    1       -9.729  -9.187  -3.049  0.00  0.00    -0.008 A 
ATOM     12  C   LIG    1      -10.007 -10.036  -4.118  0.00  0.00    +0.054 A 
ATOM     13  C   LIG    1      -11.272 -10.585  -4.255  0.00  0.00    +0.124 A 
ATOM     14  C   LIG    1      -12.261 -10.289  -3.329  0.00  0.00    +0.091 A 
ATOM     15  C   LIG    1      -11.989  -9.443  -2.264  0.00  0.00    +0.124 A 
ATOM     16  C   LIG    1      -10.724  -8.896  -2.118  0.00  0.00    +0.054 A 
BRANCH  13  17
ATOM     17  O   LIG    1      -11.543 -11.413  -5.297  0.00  0.00    -0.495 OA
ATOM     18  C   LIG    1      -12.868 -11.943  -5.377  0.00  0.00    +0.277 C 
ENDBRANCH  13  17
BRANCH  15  19
ATOM     19  O   LIG    1      -12.961  -9.155  -1.359  0.00  0.00    -0.495 OA
ATOM     20  C   LIG    1      -14.240  -9.758  -1.568  0.00  0.00    +0.277 C 
ENDBRANCH  15  19
ENDBRANCH   6  11
BRANCH   7  21
ATOM     21  N   LIG    1       -7.387 -10.784  -3.174  0.00  0.00    -0.254 N 
ATOM     22  H   LIG    1       -8.275 -11.162  -3.271  0.00  0.00    +0.158 HD
ATOM     23  C   LIG    1       -6.303 -11.583  -3.241  0.00  0.00    +0.305 C 
ATOM     24  N   LIG    1       -6.454 -12.907  -3.442  0.00  0.00    -0.294 N 
ATOM     25  H   LIG    1       -7.342 -13.285  -3.539  0.00  0.00    +0.151 HD
ATOM     26  O   LIG    1       -5.190 -11.109  -3.119  0.00  0.00    -0.252 OA
BRANCH  24  27
ATOM     27  C   LIG    1       -5.277 -13.775  -3.515  0.00  0.00    +0.028 C 
ATOM     28  C   LIG    1       -4.381 -13.325  -4.671  0.00  0.00    +0.031 C 
ATOM     29  C   LIG    1       -5.722 -15.220  -3.748  0.00  0.00    +0.031 C 
ATOM     30  C   LIG    1       -4.497 -13.688  -2.201  0.00  0.00    +0.031 C 
ENDBRANCH  24  27
ENDBRANCH   7  21
BRANCH   1  31
ATOM     31  N   LIG    1       -3.122  -5.340  -2.174  0.00  0.00    -0.313 N 
ATOM     32  H   LIG    1       -2.368  -5.947  -2.232  0.00  0.00    +0.149 HD
BRANCH  31  33
ATOM     33  C   LIG    1       -2.895  -3.910  -1.948  0.00  0.00    +0.104 C 
BRANCH  33  34
ATOM     34  C   LIG    1       -1.392  -3.644  -1.840  0.00  0.00    +0.017 C 
BRANCH  34  35
ATOM     35  C   LIG    1       -1.155  -2.151  -1.603  0.00  0.00    -0.017 C 
BRANCH  35  36
ATOM     36  C   LIG    1        0.348  -1.884  -1.496  0.00  0.00    -0.079 C 
BRANCH  36  37
ATOM     37  N   LIG    1        0.576  -0.451  -1.269  0.00  0.00    +0.379 N 
ATOM     38  H   LIG    1        0.124   0.081  -1.998  0.00  0.00    -0.082 HD
BRANCH  37  40
ATOM     39  C   LIG    1        0.128   1.449   0.210  0.00  0.00    -0.017 C 
ATOM     40  C   LIG    1        0.019  -0.067   0.035  0.00  0.00    -0.082 C 
ENDBRANCH  37  40
BRANCH  37  41
ATOM     41  C   LIG    1        2.019  -0.176  -1.285  0.00  0.00    -0.082 C 
ATOM     42  C   LIG    1        2.573  -0.440  -2.687  0.00  0.00    -0.017 C 
ENDBRANCH  37  41
ENDBRANCH  36  37
ENDBRANCH  35  36
ENDBRANCH  34  35
ENDBRANCH  33  34
ENDBRANCH  31  33
ENDBRANCH   1  31
TORSDOF 13
