REMARK  Name = ZINC03870472
REMARK                            x       y       z     vdW  Elec       q    Type
REMARK                         _______ _______ _______ _____ _____    ______ ____
ROOT
ATOM      1  C   UNK    1        1.167   4.829  -1.638  0.00  0.00    -0.048 C 
ATOM      2  N   UNK    1        0.538   3.556  -1.251  0.00  0.00    +0.386 N 
ATOM      3  H   UNK    1       -0.470   3.697  -1.117  0.00  0.00    -0.085 HD
ATOM      4  H   UNK    1        0.691   2.859  -1.989  0.00  0.00    -0.085 HD
ATOM      5  C   UNK    1        1.145   3.085   0.008  0.00  0.00    -0.014 C 
ATOM      6  C   UNK    1        2.541   3.756   0.044  0.00  0.00    +0.129 C 
ATOM      7  C   UNK    1        2.236   5.147  -0.572  0.00  0.00    +0.125 C 
ENDROOT
BRANCH   6   8
ATOM      8  O   UNK    1        3.477   3.035  -0.759  0.00  0.00    -0.391 OA
ATOM      9  H   UNK    1        4.365   3.417  -0.767  0.00  0.00    +0.210 HD
ENDBRANCH   6   8
BRANCH   7  10
ATOM     10  O   UNK    1        3.405   5.702  -1.178  0.00  0.00    -0.391 OA
ATOM     11  H   UNK    1        3.249   6.537  -1.641  0.00  0.00    +0.210 HD
ENDBRANCH   7  10
BRANCH   5  12
ATOM     12  C   UNK    1        1.286   1.562  -0.002  0.00  0.00    +0.143 C 
BRANCH  12  13
ATOM     13  O   UNK    1       -0.011   0.963   0.007  0.00  0.00    -0.397 OA
ATOM     14  H   UNK    1        0.002  -0.004   0.002  0.00  0.00    +0.209 HD
ENDBRANCH  12  13
ENDBRANCH   5  12
TORSDOF 4
