REMARK  Name = ZINC03812915
REMARK                            x       y       z     vdW  Elec       q    Type
REMARK                         _______ _______ _______ _____ _____    ______ ____
ROOT
ATOM      1  C   LIG    1       -1.421  -0.198   0.343  0.00  0.00    +0.085 C 
ENDROOT
BRANCH   1   2
ATOM      2  C   LIG    1       -1.716   0.625   1.570  0.00  0.00    -0.020 A 
ATOM      3  C   LIG    1       -0.692   1.297   2.211  0.00  0.00    +0.054 A 
ATOM      4  C   LIG    1       -0.958   2.055   3.341  0.00  0.00    +0.165 A 
ATOM      5  C   LIG    1       -2.257   2.138   3.829  0.00  0.00    +0.204 A 
ATOM      6  C   LIG    1       -3.283   1.460   3.182  0.00  0.00    +0.165 A 
ATOM      7  C   LIG    1       -3.009   0.709   2.050  0.00  0.00    +0.054 A 
BRANCH   4   8
ATOM      8  O   LIG    1        0.050   2.716   3.971  0.00  0.00    -0.491 OA
ATOM      9  C   LIG    1        1.359   2.585   3.413  0.00  0.00    +0.277 C 
ENDBRANCH   4   8
BRANCH   5  10
ATOM     10  O   LIG    1       -2.522   2.881   4.939  0.00  0.00    -0.488 OA
ATOM     11  C   LIG    1       -2.860   4.254   4.735  0.00  0.00    +0.277 C 
ENDBRANCH   5  10
BRANCH   6  12
ATOM     12  O   LIG    1       -4.556   1.538   3.656  0.00  0.00    -0.491 OA
ATOM     13  C   LIG    1       -5.560   0.816   2.941  0.00  0.00    +0.277 C 
ENDBRANCH   6  12
ENDBRANCH   1   2
BRANCH   1  15
ATOM     14  C   LIG    1        0.465   1.333  -0.241  0.00  0.00    +0.009 C 
ATOM     15  C   LIG    1        0.073  -0.122   0.024  0.00  0.00    +0.007 C 
ATOM     16  C   LIG    1        0.876  -0.658   1.211  0.00  0.00    +0.009 C 
ENDBRANCH   1  15
BRANCH   1  17
ATOM     17  C   LIG    1       -1.800  -1.599   0.589  0.00  0.00    +0.074 C 
ATOM     18  N   LIG    1       -2.092  -2.681   0.779  0.00  0.00    -0.196 NA
ENDBRANCH   1  17
BRANCH   1  19
ATOM     19  C   LIG    1       -2.224   0.346  -0.841  0.00  0.00    +0.025 C 
BRANCH  19  20
ATOM     20  C   LIG    1       -1.925  -0.489  -2.087  0.00  0.00    -0.017 C 
BRANCH  20  21
ATOM     21  C   LIG    1       -2.727   0.056  -3.271  0.00  0.00    -0.079 C 
BRANCH  21  22
ATOM     22  N   LIG    1       -2.441  -0.747  -4.467  0.00  0.00    +0.378 N 
ATOM     23  H   LIG    1       -2.622  -1.720  -4.272  0.00  0.00    -0.082 HD
ATOM     24  C   LIG    1       -1.030  -0.578  -4.843  0.00  0.00    -0.096 C 
BRANCH  22  25
ATOM     25  C   LIG    1       -3.299  -0.301  -5.573  0.00  0.00    -0.075 C 
BRANCH  25  26
ATOM     26  C   LIG    1       -3.090  -1.216  -6.782  0.00  0.00    +0.017 C 
BRANCH  26  27
ATOM     27  C   LIG    1       -3.971  -0.758  -7.916  0.00  0.00    -0.045 A 
ATOM     28  C   LIG    1       -5.252  -1.261  -8.040  0.00  0.00    +0.007 A 
ATOM     29  C   LIG    1       -6.064  -0.845  -9.079  0.00  0.00    +0.049 A 
ATOM     30  C   LIG    1       -5.594   0.079  -9.998  0.00  0.00    +0.161 A 
ATOM     31  C   LIG    1       -4.304   0.586  -9.872  0.00  0.00    +0.162 A 
ATOM     32  C   LIG    1       -3.497   0.168  -8.826  0.00  0.00    +0.053 A 
BRANCH  30  33
ATOM     33  O   LIG    1       -6.391   0.490 -11.021  0.00  0.00    -0.491 OA
ATOM     34  C   LIG    1       -7.702  -0.073 -11.087  0.00  0.00    +0.277 C 
ENDBRANCH  30  33
BRANCH  31  35
ATOM     35  O   LIG    1       -3.838   1.494 -10.772  0.00  0.00    -0.491 OA
ATOM     36  C   LIG    1       -2.505   1.971 -10.581  0.00  0.00    +0.277 C 
ENDBRANCH  31  35
ENDBRANCH  26  27
ENDBRANCH  25  26
ENDBRANCH  22  25
ENDBRANCH  21  22
ENDBRANCH  20  21
ENDBRANCH  19  20
ENDBRANCH   1  19
TORSDOF 15
