REMARK  Name = ZINC03861806
REMARK                            x       y       z     vdW  Elec       q    Type
REMARK                         _______ _______ _______ _____ _____    ______ ____
ROOT
ATOM      1  C   LIG    1       -4.871   0.264   0.038  0.00  0.00    +0.064 C 
ATOM      2  C   LIG    1       -5.743  -0.168   1.204  0.00  0.00    -0.030 A 
ATOM      3  C   LIG    1       -5.382   0.328   2.458  0.00  0.00    +0.054 A 
ATOM      4  C   LIG    1       -6.157  -0.032   3.548  0.00  0.00    +0.167 A 
ATOM      5  C   LIG    1       -7.272  -0.870   3.392  0.00  0.00    +0.167 A 
ATOM      6  O   LIG    1       -7.848  -1.058   4.601  0.00  0.00    -0.453 OA
ATOM      7  C   LIG    1       -6.855  -0.654   5.568  0.00  0.00    +0.466 C 
ATOM      8  C   LIG    1       -7.623  -1.360   2.146  0.00  0.00    +0.056 A 
ATOM      9  O   LIG    1       -6.037   0.296   4.854  0.00  0.00    -0.453 OA
ATOM     10  C   LIG    1       -6.832  -0.999   1.053  0.00  0.00    -0.011 A 
ATOM     11  C   LIG    1       -7.236  -1.590  -0.287  0.00  0.00    +0.152 C 
ATOM     12  C   LIG    1       -6.041  -1.496  -1.216  0.00  0.00    +0.074 C 
ATOM     13  C   LIG    1       -6.352  -1.686  -2.708  0.00  0.00    +0.239 C 
ATOM     14  O   LIG    1       -5.350  -0.853  -3.361  0.00  0.00    -0.464 OA
ATOM     15  C   LIG    1       -4.868   0.094  -2.522  0.00  0.00    +0.312 C 
ATOM     16  O   LIG    1       -3.970   0.865  -2.763  0.00  0.00    -0.250 OA
ATOM     17  C   LIG    1       -5.645   0.017  -1.240  0.00  0.00    +0.118 C 
ENDROOT
BRANCH   1  20
ATOM     18  C   LIG    1       -2.436  -2.593   0.475  0.00  0.00    +0.165 A 
ATOM     19  C   LIG    1       -3.605  -1.848   0.484  0.00  0.00    +0.054 A 
ATOM     20  C   LIG    1       -3.598  -0.543   0.028  0.00  0.00    -0.032 A 
ATOM     21  C   LIG    1       -2.427   0.024  -0.439  0.00  0.00    +0.054 A 
ATOM     22  C   LIG    1       -1.254  -0.715  -0.451  0.00  0.00    +0.165 A 
ATOM     23  C   LIG    1       -1.255  -2.025   0.013  0.00  0.00    +0.204 A 
BRANCH  18  25
ATOM     24  C   LIG    1       -3.693  -4.395   1.385  0.00  0.00    +0.277 C 
ATOM     25  O   LIG    1       -2.444  -3.877   0.925  0.00  0.00    -0.491 OA
ENDBRANCH  18  25
BRANCH  22  26
ATOM     26  O   LIG    1       -0.102  -0.156  -0.910  0.00  0.00    -0.491 OA
ATOM     27  C   LIG    1       -0.174   1.196  -1.366  0.00  0.00    +0.277 C 
ENDBRANCH  22  26
BRANCH  23  28
ATOM     28  O   LIG    1       -0.104  -2.752   0.008  0.00  0.00    -0.488 OA
ATOM     29  C   LIG    1        0.180  -3.508  -1.171  0.00  0.00    +0.277 C 
ENDBRANCH  23  28
ENDBRANCH   1  20
BRANCH  11  30
ATOM     30  O   LIG    1       -7.612  -2.958  -0.118  0.00  0.00    -0.387 OA
ATOM     31  H   LIG    1       -8.357  -3.090   0.485  0.00  0.00    +0.210 HD
ENDBRANCH  11  30
TORSDOF 5
