REMARK  Name = ZINC03870920
REMARK                            x       y       z     vdW  Elec       q    Type
REMARK                         _______ _______ _______ _____ _____    ______ ____
ROOT
ATOM      1  C   LIG    1       -0.017   1.385   0.010  0.00  0.00    +0.003 A 
ATOM      2  C   LIG    1       -1.201   2.064   0.019  0.00  0.00    +0.013 A 
ATOM      3  C   LIG    1       -2.406   1.354   0.021  0.00  0.00    +0.036 A 
ATOM      4  C   LIG    1       -3.813   1.743   0.029  0.00  0.00    +0.135 A 
ATOM      5 BR   LIG    1       -4.480   3.512   0.042  0.00  0.00    -0.026 Br
ATOM      6  N   LIG    1       -4.527   0.653   0.027  0.00  0.00    -0.166 NA
ATOM      7  N   LIG    1       -3.691  -0.468   0.017  0.00  0.00    -0.274 N 
ATOM      8  H   LIG    1       -3.989  -1.392   0.013  0.00  0.00    +0.189 HD
ATOM      9  C   LIG    1       -2.385  -0.054   0.013  0.00  0.00    +0.097 A 
ATOM     10  C   LIG    1       -1.162  -0.720   0.004  0.00  0.00    +0.147 A 
ATOM     11  C   LIG    1        0.002  -0.004   0.002  0.00  0.00    +0.035 A 
ENDROOT
BRANCH  10  12
ATOM     12  N   LIG    1       -1.123  -2.200  -0.004  0.00  0.00    +0.008 N 
ATOM     13  O   LIG    1       -0.060  -2.776  -0.012  0.00  0.00    -0.130 OA
BRANCH  12  14
ATOM     14  O   LIG    1       -2.153  -2.832  -0.002  0.00  0.00    -0.396 OA
ATOM     15  H   LIG    1       -2.977  -2.385   0.004  0.00  0.00    +0.329 HD
ENDBRANCH  12  14
ENDBRANCH  10  12
TORSDOF 2
