REMARK  Name = ZINC03816292
REMARK                            x       y       z     vdW  Elec       q    Type
REMARK                         _______ _______ _______ _____ _____    ______ ____
ROOT
ATOM      1  C   LIG    1       -7.344   0.015   0.630  0.00  0.00    +0.134 A 
ATOM      2  C   LIG    1       -7.264   1.360   0.419  0.00  0.00    +0.074 A 
ATOM      3  C   LIG    1       -6.011   1.975   0.263  0.00  0.00    +0.078 A 
ATOM      4  C   LIG    1       -4.833   1.188   0.337  0.00  0.00    +0.044 A 
ATOM      5  C   LIG    1       -3.577   1.820   0.183  0.00  0.00    +0.139 A 
ATOM      6  C   LIG    1       -3.561   3.185  -0.045  0.00  0.00    +0.066 A 
ATOM      7  C   LIG    1       -4.758   3.886  -0.108  0.00  0.00    +0.115 A 
ATOM      8  C   LIG    1       -4.927  -0.189   0.564  0.00  0.00    +0.030 A 
ATOM      9  N   LIG    1       -5.919   3.291   0.041  0.00  0.00    -0.255 NA
ATOM     10  C   LIG    1       -6.177  -0.773   0.710  0.00  0.00    +0.079 A 
ENDROOT
BRANCH  10  11
ATOM     11  C   LIG    1       -6.286  -2.225   0.949  0.00  0.00    +0.245 C 
ATOM     12  N   LIG    1       -5.172  -2.980   1.025  0.00  0.00    -0.325 N 
ATOM     13  H   LIG    1       -5.244  -3.935   1.182  0.00  0.00    +0.145 HD
ATOM     14  H   LIG    1       -4.299  -2.570   0.923  0.00  0.00    +0.145 HD
ATOM     15  O   LIG    1       -7.380  -2.740   1.077  0.00  0.00    -0.270 OA
ENDBRANCH  10  11
BRANCH   1  17
ATOM     16  C   LIG    1       -9.704   0.281   0.685  0.00  0.00    +0.277 C 
ATOM     17  O   LIG    1       -8.560  -0.570   0.776  0.00  0.00    -0.494 OA
ENDBRANCH   1  17
BRANCH   5  18
ATOM     18  O   LIG    1       -2.425   1.110   0.250  0.00  0.00    -0.455 OA
BRANCH  18  19
ATOM     19  C   LIG    1       -1.250   1.792   0.194  0.00  0.00    +0.130 A 
ATOM     20  C   LIG    1       -0.808   2.503   1.301  0.00  0.00    +0.048 A 
ATOM     21  C   LIG    1        0.382   3.201   1.244  0.00  0.00    +0.028 A 
ATOM     22  C   LIG    1        1.139   3.188   0.080  0.00  0.00    +0.053 A 
ATOM     23  C   LIG    1        0.699   2.472  -1.026  0.00  0.00    +0.066 A 
ATOM     24 CL   LIG    1        1.645   2.454  -2.482  0.00  0.00    -0.082 Cl
ATOM     25  C   LIG    1       -0.492   1.774  -0.968  0.00  0.00    +0.068 A 
BRANCH  22  26
ATOM     26  N   LIG    1        2.348   3.896   0.022  0.00  0.00    -0.268 N 
ATOM     27  H   LIG    1        2.688   4.204  -0.833  0.00  0.00    +0.156 HD
ATOM     28  C   LIG    1        3.036   4.149   1.153  0.00  0.00    +0.304 C 
ATOM     29  N   LIG    1        4.236   4.759   1.089  0.00  0.00    -0.296 N 
ATOM     30  H   LIG    1        4.604   5.016   0.229  0.00  0.00    +0.151 HD
ATOM     31  O   LIG    1        2.574   3.826   2.230  0.00  0.00    -0.253 OA
BRANCH  29  32
ATOM     32  C   LIG    1        4.984   5.033   2.318  0.00  0.00    +0.075 C 
ATOM     33  C   LIG    1        5.645   6.407   2.451  0.00  0.00    +0.024 C 
ATOM     34  C   LIG    1        6.504   5.165   2.206  0.00  0.00    +0.024 C 
ENDBRANCH  29  32
ENDBRANCH  22  26
ENDBRANCH  18  19
ENDBRANCH   5  18
TORSDOF 6
