REMARK  Name = ZINC03643214
REMARK                            x       y       z     vdW  Elec       q    Type
REMARK                         _______ _______ _______ _____ _____    ______ ____
ROOT
ATOM      1  C   LIG    1       -1.293  -0.775   0.010  0.00  0.00    +0.178 C 
ENDROOT
BRANCH   1   7
ATOM      2  C   LIG    1       -0.017   1.378   0.010  0.00  0.00    +0.007 A 
ATOM      3  C   LIG    1        1.171   2.086   0.002  0.00  0.00    +0.013 A 
ATOM      4  C   LIG    1        2.377   1.411  -0.013  0.00  0.00    +0.055 A 
ATOM      5  C   LIG    1        2.396   0.029  -0.020  0.00  0.00    +0.013 A 
ATOM      6  C   LIG    1        1.208  -0.679  -0.012  0.00  0.00    +0.007 A 
ATOM      7  C   LIG    1        0.002  -0.004   0.002  0.00  0.00    -0.014 A 
BRANCH   4   8
ATOM      8  C   LIG    1        3.672   2.182  -0.022  0.00  0.00    +0.417 C 
ATOM      9  F   LIG    1        3.482   3.405  -0.674  0.00  0.00    -0.166 F 
ATOM     10  F   LIG    1        4.651   1.442  -0.695  0.00  0.00    -0.166 F 
ATOM     11  F   LIG    1        4.086   2.414   1.294  0.00  0.00    -0.166 F 
ENDBRANCH   4   8
ENDBRANCH   1   7
BRANCH   1  12
ATOM     12  C   LIG    1       -1.611  -1.237  -1.389  0.00  0.00    -0.014 A 
ATOM     13  C   LIG    1       -1.072  -2.416  -1.867  0.00  0.00    +0.007 A 
ATOM     14  C   LIG    1       -1.364  -2.840  -3.150  0.00  0.00    +0.013 A 
ATOM     15  C   LIG    1       -2.196  -2.084  -3.954  0.00  0.00    +0.055 A 
ATOM     16  C   LIG    1       -2.736  -0.905  -3.476  0.00  0.00    +0.013 A 
ATOM     17  C   LIG    1       -2.448  -0.484  -2.191  0.00  0.00    +0.007 A 
BRANCH  15  18
ATOM     18  C   LIG    1       -2.514  -2.545  -5.354  0.00  0.00    +0.417 C 
ATOM     19  F   LIG    1       -1.435  -3.278  -5.859  0.00  0.00    -0.166 F 
ATOM     20  F   LIG    1       -2.745  -1.432  -6.170  0.00  0.00    -0.166 F 
ATOM     21  F   LIG    1       -3.657  -3.352  -5.330  0.00  0.00    -0.166 F 
ENDBRANCH  15  18
ENDBRANCH   1  12
BRANCH   1  22
ATOM     22  O   LIG    1       -1.165  -1.910   0.869  0.00  0.00    -0.369 OA
BRANCH  22  23
ATOM     23  C   LIG    1       -2.389  -2.310   1.488  0.00  0.00    +0.142 C 
BRANCH  23  24
ATOM     24  C   LIG    1       -2.136  -3.528   2.380  0.00  0.00    -0.050 C 
BRANCH  24  25
ATOM     25  N   LIG    1       -1.246  -3.148   3.486  0.00  0.00    +0.384 N 
ATOM     26  H   LIG    1       -0.401  -2.741   3.115  0.00  0.00    -0.081 HD
ATOM     27  C   LIG    1       -0.914  -4.340   4.282  0.00  0.00    -0.074 C 
ATOM     28  C   LIG    1        0.210  -3.979   5.257  0.00  0.00    +0.009 C 
ATOM     29  C   LIG    1       -0.149  -2.718   5.994  0.00  0.00    -0.020 C 
ATOM     30  C   LIG    1       -1.107  -1.906   5.579  0.00  0.00    +0.016 C 
ATOM     31  C   LIG    1       -1.923  -2.171   4.347  0.00  0.00    -0.036 C 
BRANCH  30  32
ATOM     32  C   LIG    1       -1.386  -0.694   6.358  0.00  0.00    +0.331 C 
ATOM     33  O   LIG    1       -0.737  -0.452   7.367  0.00  0.00    -0.246 OA
BRANCH  32  34
ATOM     34  O   LIG    1       -2.267   0.075   5.998  0.00  0.00    -0.477 OA
ATOM     35  H   LIG    1       -2.764  -0.110   5.226  0.00  0.00    +0.295 HD
ENDBRANCH  32  34
ENDBRANCH  30  32
ENDBRANCH  24  25
ENDBRANCH  23  24
ENDBRANCH  22  23
ENDBRANCH   1  22
TORSDOF 10
