REMARK  Name = ZINC03830375
REMARK                            x       y       z     vdW  Elec       q    Type
REMARK                         _______ _______ _______ _____ _____    ______ ____
ROOT
ATOM      1  C   LIG    1       -4.662  -2.746  -5.002  0.00  0.00    +0.318 C 
ATOM      2  O   LIG    1       -5.341  -1.856  -5.456  0.00  0.00    -0.250 OA
ENDROOT
BRANCH   1   3
ATOM      3  C   LIG    1       -4.012  -3.744  -5.926  0.00  0.00    +0.093 C 
ATOM      4  C   LIG    1       -2.481  -3.650  -5.810  0.00  0.00    +0.023 C 
ATOM      5  C   LIG    1       -1.956  -3.267  -7.210  0.00  0.00    +0.001 C 
ATOM      6  C   LIG    1       -3.163  -2.576  -7.892  0.00  0.00    +0.001 C 
ATOM      7  C   LIG    1       -4.365  -3.415  -7.391  0.00  0.00    +0.023 C 
BRANCH   3   8
ATOM      8  C   LIG    1       -4.471  -5.138  -5.584  0.00  0.00    -0.031 A 
ATOM      9  C   LIG    1       -5.457  -5.327  -4.633  0.00  0.00    +0.005 A 
ATOM     10  C   LIG    1       -5.878  -6.606  -4.320  0.00  0.00    +0.000 A 
ATOM     11  C   LIG    1       -5.315  -7.695  -4.958  0.00  0.00    +0.000 A 
ATOM     12  C   LIG    1       -4.330  -7.506  -5.910  0.00  0.00    +0.000 A 
ATOM     13  C   LIG    1       -3.912  -6.227  -6.226  0.00  0.00    +0.005 A 
ENDBRANCH   3   8
ENDBRANCH   1   3
BRANCH   1  14
ATOM     14  O   LIG    1       -4.485  -2.846  -3.675  0.00  0.00    -0.462 OA
BRANCH  14  15
ATOM     15  C   LIG    1       -5.130  -1.866  -2.859  0.00  0.00    +0.260 C 
BRANCH  15  16
ATOM     16  C   LIG    1       -4.816  -2.141  -1.387  0.00  0.00    +0.200 C 
BRANCH  16  17
ATOM     17  O   LIG    1       -3.417  -1.962  -1.157  0.00  0.00    -0.378 OA
BRANCH  17  18
ATOM     18  C   LIG    1       -3.015  -2.196   0.194  0.00  0.00    +0.141 C 
BRANCH  18  19
ATOM     19  C   LIG    1       -1.531  -1.859   0.350  0.00  0.00    -0.050 C 
BRANCH  19  20
ATOM     20  N   LIG    1       -1.327  -0.424   0.113  0.00  0.00    +0.381 N 
ATOM     21  H   LIG    1       -1.712  -0.174  -0.786  0.00  0.00    -0.082 HD
BRANCH  20  23
ATOM     22  C   LIG    1       -1.893   1.841   0.852  0.00  0.00    -0.017 C 
ATOM     23  C   LIG    1       -2.000   0.347   1.166  0.00  0.00    -0.082 C 
ENDBRANCH  20  23
BRANCH  20  24
ATOM     24  C   LIG    1        0.112  -0.125   0.129  0.00  0.00    -0.082 C 
ATOM     25  C   LIG    1        0.788  -0.805  -1.063  0.00  0.00    -0.017 C 
ENDBRANCH  20  24
ENDBRANCH  19  20
ENDBRANCH  18  19
ENDBRANCH  17  18
ENDBRANCH  16  17
ENDBRANCH  15  16
ENDBRANCH  14  15
ENDBRANCH   1  14
TORSDOF 11
