REMARK  Name = ZINC03871023
REMARK                            x       y       z     vdW  Elec       q    Type
REMARK                         _______ _______ _______ _____ _____    ______ ____
ROOT
ATOM      1  C   LIG    1       -6.990   1.226   0.179  0.00  0.00    +0.001 C 
ATOM      2  C   LIG    1       -8.145   0.514   0.331  0.00  0.00    +0.003 C 
ENDROOT
BRANCH   1   5
ATOM      3  C   LIG    1       -4.606   1.268  -0.058  0.00  0.00    -0.050 C 
ATOM      4  C   LIG    1       -4.653   2.772  -0.134  0.00  0.00    +0.044 C 
ATOM      5  C   LIG    1       -5.760   0.557   0.093  0.00  0.00    +0.003 C 
BRANCH   3   7
ATOM      6  C   LIG    1       -2.223   1.306  -0.296  0.00  0.00    +0.004 C 
ATOM      7  C   LIG    1       -3.372   0.598  -0.144  0.00  0.00    +0.003 C 
BRANCH   6  10
ATOM      8  C   LIG    1       -1.882  -0.620  -2.162  0.00  0.00    +0.039 C 
ATOM      9  C   LIG    1       -0.772  -0.313  -1.190  0.00  0.00    -0.069 C 
ATOM     10  C   LIG    1       -0.973   0.638  -0.293  0.00  0.00    -0.043 C 
ATOM     11  C   LIG    1        0.048   1.050   0.727  0.00  0.00    -0.010 C 
ATOM     12  C   LIG    1        0.698   2.365   0.292  0.00  0.00    +0.016 C 
ATOM     13  C   LIG    1       -0.638   1.250   2.080  0.00  0.00    +0.016 C 
ATOM     14  C   LIG    1        1.126  -0.028   0.859  0.00  0.00    +0.011 C 
ATOM     15  C   LIG    1        1.627  -0.391  -0.544  0.00  0.00    +0.005 C 
ATOM     16  C   LIG    1        0.497  -1.109  -1.290  0.00  0.00    +0.031 C 
ENDBRANCH   6  10
ENDBRANCH   3   7
ENDBRANCH   1   5
BRANCH   2  17
ATOM     17  C   LIG    1       -9.376   1.183   0.417  0.00  0.00    -0.046 C 
ATOM     18  C   LIG    1       -9.423   2.687   0.342  0.00  0.00    +0.044 C 
ATOM     19  C   LIG    1      -10.528   0.472   0.569  0.00  0.00    +0.071 C 
BRANCH  19  20
ATOM     20  C   LIG    1      -11.777   1.129   0.506  0.00  0.00    +0.241 C 
ATOM     21  N   LIG    1      -12.910   0.452   0.777  0.00  0.00    -0.282 N 
ATOM     22  H   LIG    1      -12.863  -0.465   1.090  0.00  0.00    +0.155 HD
ATOM     23  O   LIG    1      -11.830   2.309   0.206  0.00  0.00    -0.270 OA
BRANCH  21  24
ATOM     24  C   LIG    1      -14.154   1.071   0.608  0.00  0.00    +0.034 A 
ATOM     25  C   LIG    1      -15.200   0.776   1.472  0.00  0.00    +0.027 A 
ATOM     26  C   LIG    1      -16.427   1.388   1.304  0.00  0.00    +0.047 A 
ATOM     27  C   LIG    1      -16.614   2.297   0.273  0.00  0.00    +0.117 A 
ATOM     28  C   LIG    1      -15.569   2.592  -0.590  0.00  0.00    +0.047 A 
ATOM     29  C   LIG    1      -14.340   1.986  -0.421  0.00  0.00    +0.027 A 
BRANCH  27  30
ATOM     30  O   LIG    1      -17.822   2.898   0.109  0.00  0.00    -0.507 OA
ATOM     31  H   LIG    1      -17.917   3.729   0.594  0.00  0.00    +0.292 HD
ENDBRANCH  27  30
ENDBRANCH  21  24
ENDBRANCH  19  20
ENDBRANCH   2  17
TORSDOF 7
