REMARK  Name = ZINC03806063
REMARK                            x       y       z     vdW  Elec       q    Type
REMARK                         _______ _______ _______ _____ _____    ______ ____
ROOT
ATOM      1  C   LIG    1        0.243  -0.081   2.785  0.00  0.00    -0.013 C 
ATOM      2  C   LIG    1        0.285   1.387   2.355  0.00  0.00    -0.071 C 
ENDROOT
BRANCH   2   3
ATOM      3  N   LIG    1       -0.612   1.589   1.202  0.00  0.00    +0.383 N 
ATOM      4  H   LIG    1       -1.452   1.010   1.321  0.00  0.00    -0.085 HD
ATOM      5  H   LIG    1       -0.883   2.578   1.153  0.00  0.00    -0.085 HD
BRANCH   3   6
ATOM      6  C   LIG    1        0.068   1.207  -0.050  0.00  0.00    -0.041 C 
BRANCH   6   7
ATOM      7  C   LIG    1       -0.834   1.552  -1.236  0.00  0.00    +0.210 C 
BRANCH   7   8
ATOM      8  O   LIG    1       -2.021   0.759  -1.179  0.00  0.00    -0.490 OA
BRANCH   8   9
ATOM      9  C   LIG    1       -2.889   0.870  -2.219  0.00  0.00    +0.162 A 
ATOM     10  C   LIG    1       -2.660   1.802  -3.219  0.00  0.00    +0.049 A 
ATOM     11  C   LIG    1       -3.541   1.910  -4.279  0.00  0.00    +0.004 A 
ATOM     12  C   LIG    1       -4.657   1.097  -4.339  0.00  0.00    +0.004 A 
ATOM     13  C   LIG    1       -4.895   0.169  -3.343  0.00  0.00    +0.049 A 
ATOM     14  C   LIG    1       -4.013   0.052  -2.280  0.00  0.00    +0.162 A 
BRANCH  14  15
ATOM     15  O   LIG    1       -4.246  -0.860  -1.299  0.00  0.00    -0.479 OA
BRANCH  15  16
ATOM     16  C   LIG    1       -5.357  -1.740  -1.481  0.00  0.00    +0.342 C 
BRANCH  16  17
ATOM     17  C   LIG    1       -5.516  -2.625  -0.243  0.00  0.00    +0.424 C 
ATOM     18  F   LIG    1       -4.313  -3.295   0.009  0.00  0.00    -0.167 F 
ATOM     19  F   LIG    1       -6.532  -3.560  -0.465  0.00  0.00    -0.167 F 
ATOM     20  F   LIG    1       -5.846  -1.829   0.859  0.00  0.00    -0.167 F 
ENDBRANCH  16  17
ENDBRANCH  15  16
ENDBRANCH  14  15
ENDBRANCH   8   9
ENDBRANCH   7   8
ENDBRANCH   6   7
ENDBRANCH   3   6
ENDBRANCH   2   3
BRANCH   2  21
ATOM     21  C   LIG    1       -0.179   2.272   3.514  0.00  0.00    +0.019 C 
BRANCH  21  22
ATOM     22  C   LIG    1       -0.009   3.721   3.138  0.00  0.00    -0.048 A 
ATOM     23  C   LIG    1        1.215   4.346   3.325  0.00  0.00    +0.009 A 
ATOM     24  C   LIG    1        1.383   5.669   2.981  0.00  0.00    -0.024 A 
ATOM     25  C   LIG    1        0.326   6.403   2.455  0.00  0.00    +0.045 A 
ATOM     26  N   LIG    1        0.707   7.717   2.198  0.00  0.00    -0.329 N 
ATOM     27  C   LIG    1        2.184   7.764   2.150  0.00  0.00    +0.110 C 
ATOM     28  C   LIG    1       -0.917   5.768   2.268  0.00  0.00    +0.058 A 
ATOM     29  C   LIG    1        2.589   6.584   3.064  0.00  0.00    +0.056 C 
ATOM     30  C   LIG    1       -1.070   4.425   2.615  0.00  0.00    +0.018 A 
BRANCH  28  31
ATOM     31  C   LIG    1       -2.054   6.521   1.707  0.00  0.00    +0.243 C 
ATOM     32  N   LIG    1       -3.272   5.949   1.638  0.00  0.00    -0.325 N 
ATOM     33  H   LIG    1       -4.020   6.445   1.269  0.00  0.00    +0.145 HD
ATOM     34  H   LIG    1       -3.401   5.043   1.958  0.00  0.00    +0.145 HD
ATOM     35  O   LIG    1       -1.892   7.658   1.306  0.00  0.00    -0.270 OA
ENDBRANCH  28  31
BRANCH  26  36
ATOM     36  C   LIG    1        0.184   8.626   3.227  0.00  0.00    +0.107 C 
BRANCH  36  37
ATOM     37  C   LIG    1        0.405  10.075   2.787  0.00  0.00    +0.047 C 
BRANCH  37  38
ATOM     38  C   LIG    1       -0.139  11.022   3.858  0.00  0.00    +0.157 C 
BRANCH  38  39
ATOM     39  O   LIG    1        0.068  12.375   3.447  0.00  0.00    -0.395 OA
ATOM     40  H   LIG    1       -0.254  13.032   4.080  0.00  0.00    +0.209 HD
ENDBRANCH  38  39
ENDBRANCH  37  38
ENDBRANCH  36  37
ENDBRANCH  26  36
ENDBRANCH  21  22
ENDBRANCH   2  21
TORSDOF 15
