REMARK  Name = ZINC03781835
REMARK                            x       y       z     vdW  Elec       q    Type
REMARK                         _______ _______ _______ _____ _____    ______ ____
ROOT
ATOM      1  N   LIG    1       -4.737   1.963   0.037  0.00  0.00    -0.276 N 
ATOM      2  C   LIG    1       -3.352   2.007   0.030  0.00  0.00    +0.170 A 
ATOM      3  C   LIG    1       -2.720   3.246   0.033  0.00  0.00    +0.150 A 
ATOM      4  N   LIG    1       -1.356   2.989   0.030  0.00  0.00    -0.321 N 
ATOM      5  C   LIG    1       -1.212   1.637   0.017  0.00  0.00    +0.193 A 
ATOM      6  H   LIG    1       -0.639   3.824   0.038  0.00  0.00    +0.169 HD
ATOM      7  C   LIG    1       -3.502   4.415   0.044  0.00  0.00    +0.282 A 
ATOM      8  N   LIG    1       -4.847   4.310   0.051  0.00  0.00    -0.259 N 
ATOM      9  O   LIG    1       -2.970   5.511   0.046  0.00  0.00    -0.265 OA
ATOM     10  N   LIG    1       -2.401   1.071   0.020  0.00  0.00    -0.196 NA
ATOM     11  C   LIG    1       -5.447   3.107   0.048  0.00  0.00    +0.334 A 
ATOM     12  O   LIG    1       -6.662   3.050   0.054  0.00  0.00    -0.246 OA
ENDROOT
BRANCH   5  13
ATOM     13  N   LIG    1       -0.011   0.966   0.007  0.00  0.00    -0.329 N 
ATOM     14  H   LIG    1        0.934   1.529   0.011  0.00  0.00    +0.145 HD
ATOM     15  H   LIG    1        0.004  -0.134  -0.003  0.00  0.00    +0.145 HD
ENDBRANCH   5  13
BRANCH   1  16
ATOM     16  C   LIG    1       -5.429   0.672   0.033  0.00  0.00    +0.132 C 
BRANCH  16  19
ATOM     17  C   LIG    1       -4.967  -1.072   1.928  0.00  0.00    +0.005 C 
ATOM     18  C   LIG    1       -6.477  -1.063   1.687  0.00  0.00    +0.005 C 
ATOM     19  C   LIG    1       -5.661   0.214   1.474  0.00  0.00    +0.009 C 
ENDBRANCH  16  19
ENDBRANCH   1  16
BRANCH   8  20
ATOM     20  C   LIG    1       -5.665   5.524   0.061  0.00  0.00    +0.133 C 
BRANCH  20  21
ATOM     21  C   LIG    1       -5.943   5.940   1.507  0.00  0.00    +0.009 C 
ATOM     22  C   LIG    1       -7.398   5.925   1.980  0.00  0.00    +0.005 C 
ATOM     23  C   LIG    1       -6.687   7.258   1.733  0.00  0.00    +0.005 C 
ENDBRANCH  20  21
ENDBRANCH   8  20
TORSDOF 5
