REMARK  Name = ZINC03830565
REMARK                            x       y       z     vdW  Elec       q    Type
REMARK                         _______ _______ _______ _____ _____    ______ ____
ROOT
ATOM      1  C   LIG    1       -0.016   1.359   0.009  0.00  0.00    +0.203 A 
ATOM      2  N   LIG    1        1.200   1.820   0.000  0.00  0.00    -0.231 NA
ATOM      3  C   LIG    1        2.075   0.785  -0.013  0.00  0.00    +0.147 A 
ATOM      4  C   LIG    1        3.476   0.675  -0.028  0.00  0.00    +0.149 A 
ATOM      5  N   LIG    1        4.016  -0.538  -0.040  0.00  0.00    -0.201 NA
ATOM      6  C   LIG    1        3.261  -1.624  -0.039  0.00  0.00    +0.226 A 
ATOM      7 CL   LIG    1        4.033  -3.179  -0.055  0.00  0.00    -0.041 Cl
ATOM      8  N   LIG    1        1.945  -1.569  -0.026  0.00  0.00    -0.198 NA
ATOM      9  C   LIG    1        1.316  -0.397  -0.013  0.00  0.00    +0.169 A 
ATOM     10  N   LIG    1        0.002  -0.004   0.002  0.00  0.00    -0.288 N 
ENDROOT
BRANCH  10  11
ATOM     11  C1* LIG    1       -1.167  -0.887   0.008  0.00  0.00    +0.225 C 
ATOM     12  C2* LIG    1       -1.573  -1.266  -1.439  0.00  0.00    +0.088 C 
ATOM     13  C3* LIG    1       -3.075  -1.605  -1.276  0.00  0.00    +0.150 C 
ATOM     14  C4* LIG    1       -3.483  -0.897   0.030  0.00  0.00    +0.175 C 
ATOM     15  O4* LIG    1       -2.326  -0.192   0.516  0.00  0.00    -0.348 OA
BRANCH  13  16
ATOM     16  O3* LIG    1       -3.825  -1.095  -2.380  0.00  0.00    -0.389 OA
ATOM     17  H3* LIG    1       -3.568  -1.467  -3.235  0.00  0.00    +0.210 HD
ENDBRANCH  13  16
BRANCH  14  18
ATOM     18  C5* LIG    1       -4.620   0.088  -0.245  0.00  0.00    +0.190 C 
BRANCH  18  19
ATOM     19  O5* LIG    1       -5.070   0.654   0.987  0.00  0.00    -0.392 OA
ATOM     20  H5* LIG    1       -5.793   1.289   0.888  0.00  0.00    +0.210 HD
ENDBRANCH  18  19
ENDBRANCH  14  18
ENDBRANCH  10  11
BRANCH   4  21
ATOM     21  N   LIG    1        4.274   1.806  -0.030  0.00  0.00    -0.341 N 
ATOM     22  H   LIG    1        5.240   1.717  -0.040  0.00  0.00    +0.144 HD
ATOM     23  H   LIG    1        3.868   2.686  -0.021  0.00  0.00    +0.144 HD
ENDBRANCH   4  21
TORSDOF 5
