REMARK  Name = ZINC03777578
REMARK                            x       y       z     vdW  Elec       q    Type
REMARK                         _______ _______ _______ _____ _____    ______ ____
ROOT
ATOM      1  C   LIG    1       -4.607   1.678   0.979  0.00  0.00    +0.004 C 
ATOM      2  C   LIG    1       -5.637   2.526   1.224  0.00  0.00    -0.043 C 
ATOM      3  C   LIG    1       -5.428   4.014   1.122  0.00  0.00    +0.044 C 
ENDROOT
BRANCH   2   4
ATOM      4  C   LIG    1       -6.955   1.993   1.589  0.00  0.00    -0.022 A 
ATOM      5  C   LIG    1       -7.687   1.232   0.669  0.00  0.00    +0.012 A 
ATOM      6  C   LIG    1       -8.919   0.734   1.021  0.00  0.00    +0.046 A 
ATOM      7  C   LIG    1       -9.451   0.991   2.285  0.00  0.00    +0.124 A 
ATOM      8  C   LIG    1       -8.731   1.747   3.199  0.00  0.00    +0.001 A 
ATOM      9  C   LIG    1       -9.272   2.038   4.576  0.00  0.00    -0.003 C 
ATOM     10  C   LIG    1       -8.992   3.498   4.935  0.00  0.00    +0.016 C 
ATOM     11  C   LIG    1       -8.590   1.123   5.595  0.00  0.00    +0.016 C 
ATOM     12  C   LIG    1      -10.783   1.789   4.600  0.00  0.00    +0.052 C 
ATOM     13  C   LIG    1      -11.056   0.423   3.957  0.00  0.00    +0.230 C 
ATOM     14  O   LIG    1      -10.676   0.488   2.582  0.00  0.00    -0.492 OA
ATOM     15  C   LIG    1       -7.491   2.247   2.857  0.00  0.00    +0.016 A 
ENDBRANCH   2   4
BRANCH   1  17
ATOM     16  C   LIG    1       -2.308   1.337   0.383  0.00  0.00    +0.003 C 
ATOM     17  C   LIG    1       -3.343   2.189   0.629  0.00  0.00    +0.001 C 
BRANCH  16  19
ATOM     18  C   LIG    1       -0.838   3.336  -0.068  0.00  0.00    +0.044 C 
ATOM     19  C   LIG    1       -1.047   1.847   0.034  0.00  0.00    -0.044 C 
ATOM     20  C   LIG    1       -0.012   0.996  -0.212  0.00  0.00    +0.094 C 
BRANCH  20  21
ATOM     21  C   LIG    1        1.209   1.495  -0.711  0.00  0.00    +0.330 C 
ATOM     22  O   LIG    1        1.304   2.667  -1.027  0.00  0.00    -0.246 OA
BRANCH  21  23
ATOM     23  O   LIG    1        2.273   0.673  -0.838  0.00  0.00    -0.478 OA
ATOM     24  H   LIG    1        2.200  -0.229  -0.595  0.00  0.00    +0.295 HD
ENDBRANCH  21  23
ENDBRANCH  20  21
ENDBRANCH  16  19
ENDBRANCH   1  17
TORSDOF 5
