REMARK  Name = ZINC03818629
REMARK                            x       y       z     vdW  Elec       q    Type
REMARK                         _______ _______ _______ _____ _____    ______ ____
ROOT
ATOM      1  N   LIG    1       -1.580  -1.901   0.483  0.00  0.00    -0.167 NA
ENDROOT
BRANCH   1   2
ATOM      2  S   LIG    1       -1.902  -2.971  -0.739  0.00  0.00    +0.061 S 
ATOM      3  O   LIG    1       -2.460  -2.215  -1.805  0.00  0.00    -0.153 OA
ATOM      4  O   LIG    1       -2.581  -4.070  -0.147  0.00  0.00    -0.153 OA
BRANCH   2   5
ATOM      5  C   LIG    1       -0.354  -3.586  -1.315  0.00  0.00    +0.106 A 
ATOM      6  C   LIG    1        0.313  -2.931  -2.333  0.00  0.00    +0.032 A 
ATOM      7  C   LIG    1        1.526  -3.411  -2.787  0.00  0.00    +0.047 A 
ATOM      8  C   LIG    1        2.075  -4.551  -2.219  0.00  0.00    +0.120 A 
ATOM      9  C   LIG    1        1.405  -5.207  -1.196  0.00  0.00    +0.047 A 
ATOM     10  C   LIG    1        0.194  -4.719  -0.743  0.00  0.00    +0.032 A 
BRANCH   8  11
ATOM     11  O   LIG    1        3.269  -5.026  -2.663  0.00  0.00    -0.495 OA
ATOM     12  C   LIG    1        3.774  -6.204  -2.032  0.00  0.00    +0.277 C 
ENDBRANCH   8  11
ENDBRANCH   2   5
ENDBRANCH   1   2
BRANCH   1  13
ATOM     13  C   LIG    1       -1.376  -0.482   0.179  0.00  0.00    +0.113 C 
BRANCH  13  15
ATOM     14  C   LIG    1        0.322   1.238  -0.456  0.00  0.00    +0.008 C 
ATOM     15  C   LIG    1        0.119  -0.209  -0.002  0.00  0.00    -0.001 C 
ATOM     16  C   LIG    1        0.842  -0.432   1.328  0.00  0.00    +0.008 C 
ENDBRANCH  13  15
ENDBRANCH   1  13
BRANCH   1  17
ATOM     17  C   LIG    1       -1.498  -2.372   1.867  0.00  0.00    +0.207 C 
BRANCH  17  18
ATOM     18  C   LIG    1       -2.831  -2.176   2.544  0.00  0.00    +0.251 C 
ATOM     19  N   LIG    1       -2.993  -2.540   3.831  0.00  0.00    -0.196 N 
ATOM     20  H   LIG    1       -2.252  -2.929   4.322  0.00  0.00    +0.182 HD
ATOM     21  O   LIG    1       -3.757  -1.690   1.930  0.00  0.00    -0.272 OA
BRANCH  19  22
ATOM     22  O   LIG    1       -4.245  -2.355   4.467  0.00  0.00    -0.295 OA
ATOM     23  H   LIG    1       -4.264  -2.646   5.389  0.00  0.00    +0.241 HD
ENDBRANCH  19  22
ENDBRANCH  17  18
ENDBRANCH   1  17
TORSDOF 8
