REMARK  Name = ZINC03869768
REMARK                            x       y       z     vdW  Elec       q    Type
REMARK                         _______ _______ _______ _____ _____    ______ ____
ROOT
ATOM      1  C   LIG    1       -1.262  -0.760   0.011  0.00  0.00    +0.180 A 
ATOM      2  C   LIG    1       -1.227  -2.138  -0.097  0.00  0.00    +0.203 A 
ATOM      3  C   LIG    1       -2.425  -2.865  -0.089  0.00  0.00    +0.176 A 
ATOM      4  C   LIG    1       -3.640  -2.155   0.029  0.00  0.00    +0.104 A 
ATOM      5  C   LIG    1       -4.875  -2.837   0.042  0.00  0.00    +0.135 A 
ATOM      6  C   LIG    1       -6.038  -2.132   0.157  0.00  0.00    +0.097 A 
ATOM      7  C   LIG    1       -6.010  -0.732   0.263  0.00  0.00    +0.186 A 
ATOM      8  C   LIG    1       -4.792  -0.045   0.251  0.00  0.00    +0.098 A 
ATOM      9  O   LIG    1       -7.153  -0.053   0.375  0.00  0.00    -0.288 OA
ATOM     10  C   LIG    1       -3.607  -0.747   0.135  0.00  0.00    +0.147 A 
ATOM     11  O   LIG    1       -2.425  -0.097   0.128  0.00  0.00    -0.451 OA
ENDROOT
BRANCH   1  17
ATOM     12  C   LIG    1        0.139   1.125  -0.812  0.00  0.00    +0.015 A 
ATOM     13  C   LIG    1        1.322   1.829  -0.816  0.00  0.00    +0.046 A 
ATOM     14  C   LIG    1        2.380   1.419  -0.014  0.00  0.00    +0.117 A 
ATOM     15  C   LIG    1        2.249   0.297   0.797  0.00  0.00    +0.046 A 
ATOM     16  C   LIG    1        1.070  -0.413   0.808  0.00  0.00    +0.015 A 
ATOM     17  C   LIG    1        0.002  -0.004   0.002  0.00  0.00    +0.021 A 
BRANCH  14  18
ATOM     18  O   LIG    1        3.545   2.115  -0.022  0.00  0.00    -0.507 OA
ATOM     19  H   LIG    1        3.583   2.827   0.632  0.00  0.00    +0.292 HD
ENDBRANCH  14  18
ENDBRANCH   1  17
BRANCH   2  20
ATOM     20  O   LIG    1       -0.036  -2.785  -0.209  0.00  0.00    -0.501 OA
ATOM     21  H   LIG    1       -0.115  -3.747  -0.278  0.00  0.00    +0.292 HD
ENDBRANCH   2  20
BRANCH   3  22
ATOM     22  O   LIG    1       -2.417  -4.213  -0.193  0.00  0.00    -0.503 OA
ATOM     23  H   LIG    1       -1.604  -4.672  -0.271  0.00  0.00    +0.292 HD
ENDBRANCH   3  22
BRANCH   5  24
ATOM     24  O   LIG    1       -4.906  -4.190  -0.060  0.00  0.00    -0.506 OA
ATOM     25  H   LIG    1       -5.797  -4.565  -0.042  0.00  0.00    +0.292 HD
ENDBRANCH   5  24
TORSDOF 5
