REMARK  Name = ZINC03812168
REMARK                            x       y       z     vdW  Elec       q    Type
REMARK                         _______ _______ _______ _____ _____    ______ ____
ROOT
ATOM      1  C   LIG    1       -2.467  -1.101   0.686  0.00  0.00    +0.104 C 
ATOM      2  C   LIG    1       -2.723   0.327   1.146  0.00  0.00    +0.051 C 
ATOM      3  C   LIG    1       -2.522   1.389   0.079  0.00  0.00    +0.124 C 
ATOM      4  N   LIG    1       -1.134   1.840   0.010  0.00  0.00    -0.346 N 
ATOM      5  C   LIG    1       -0.013   1.075   0.008  0.00  0.00    +0.095 A 
ATOM      6  C   LIG    1        1.101   1.853   0.002  0.00  0.00    +0.013 A 
ATOM      7  C   LIG    1        2.529   1.499   0.029  0.00  0.00    +0.059 C 
ATOM      8  C   LIG    1        3.212   0.406   0.555  0.00  0.00    +0.059 C 
ATOM      9  C   LIG    1        4.641   0.640   0.230  0.00  0.00    +0.252 C 
ATOM     10  N   LIG    1        4.773   1.829  -0.376  0.00  0.00    -0.248 N 
ATOM     11  H   LIG    1        5.620   2.225  -0.632  0.00  0.00    +0.158 HD
ATOM     12  O   LIG    1        5.580  -0.098   0.431  0.00  0.00    -0.270 OA
ATOM     13  C   LIG    1        2.706  -0.774   1.279  0.00  0.00    +0.013 A 
ATOM     14  C   LIG    1        1.421  -1.027   1.658  0.00  0.00    +0.095 A 
ATOM     15  N   LIG    1        1.317  -2.282   2.168  0.00  0.00    -0.344 N 
ATOM     16  C   LIG    1        0.075  -2.960   2.549  0.00  0.00    +0.150 C 
ATOM     17  C   LIG    1       -0.946  -2.843   1.415  0.00  0.00    +0.181 C 
ATOM     18  C   LIG    1        2.572  -2.852   2.265  0.00  0.00    +0.050 A 
ATOM     19  C   LIG    1        3.001  -4.095   2.714  0.00  0.00    +0.026 A 
ATOM     20  C   LIG    1        4.344  -4.400   2.739  0.00  0.00    +0.002 A 
ATOM     21  C   LIG    1        5.271  -3.453   2.334  0.00  0.00    +0.001 A 
ATOM     22  C   LIG    1        4.856  -2.222   1.871  0.00  0.00    +0.010 A 
ATOM     23  C   LIG    1        3.503  -1.921   1.768  0.00  0.00    +0.008 A 
ATOM     24  C   LIG    1        3.568   2.370  -0.577  0.00  0.00    +0.252 C 
ATOM     25  O   LIG    1        3.368   3.402  -1.191  0.00  0.00    -0.270 OA
ATOM     26  C   LIG    1        0.615   3.256  -0.037  0.00  0.00    +0.008 A 
ATOM     27  C   LIG    1        1.231   4.501  -0.032  0.00  0.00    +0.010 A 
ATOM     28  C   LIG    1        0.476   5.650  -0.126  0.00  0.00    +0.001 A 
ATOM     29  C   LIG    1       -0.909   5.572  -0.194  0.00  0.00    +0.002 A 
ATOM     30  C   LIG    1       -1.535   4.346  -0.158  0.00  0.00    +0.026 A 
ATOM     31  C   LIG    1       -0.785   3.178  -0.061  0.00  0.00    +0.050 A 
ATOM     32  O   LIG    1       -1.133  -1.468   1.072  0.00  0.00    -0.377 OA
ENDROOT
BRANCH   1  33
ATOM     33  C   LIG    1       -2.658  -1.307  -0.810  0.00  0.00    -0.048 C 
BRANCH  33  35
ATOM     34  C   LIG    1       -3.659  -3.493  -0.524  0.00  0.00    -0.096 C 
ATOM     35  N   LIG    1       -2.527  -2.748  -1.113  0.00  0.00    +0.378 N 
ATOM     36  H   LIG    1       -1.651  -3.096  -0.706  0.00  0.00    -0.083 HD
ATOM     37  C   LIG    1       -2.493  -2.955  -2.576  0.00  0.00    -0.096 C 
ENDBRANCH  33  35
ENDBRANCH   1  33
TORSDOF 2
