REMARK  Name = ZINC03812923
REMARK                            x       y       z     vdW  Elec       q    Type
REMARK                         _______ _______ _______ _____ _____    ______ ____
ROOT
ATOM      1  N   LIG    1       -0.071  -2.779  -0.012  0.00  0.00    -0.338 N 
ATOM      2  H   LIG    1        0.289  -2.362  -0.811  0.00  0.00    +0.146 HD
ENDROOT
BRANCH   1   3
ATOM      3  C   LIG    1       -0.123  -4.152   0.085  0.00  0.00    +0.080 C 
ATOM      4  C   LIG    1       -1.303  -4.860  -0.220  0.00  0.00    +0.026 C 
ATOM      5  C   LIG    1       -2.464  -4.184  -0.633  0.00  0.00    +0.007 C 
ATOM      6  C   LIG    1       -3.589  -4.893  -0.922  0.00  0.00    +0.000 C 
ATOM      7  C   LIG    1       -3.607  -6.283  -0.812  0.00  0.00    +0.002 C 
ATOM      8  C   LIG    1       -2.503  -6.971  -0.415  0.00  0.00    +0.019 C 
ATOM      9  C   LIG    1       -1.316  -6.275  -0.107  0.00  0.00    +0.059 C 
ATOM     10  N   LIG    1       -0.228  -6.937   0.282  0.00  0.00    -0.310 NA
ATOM     11  H   LIG    1       -0.264  -7.904   0.351  0.00  0.00    +0.122 HD
ATOM     12  C   LIG    1        0.909  -6.310   0.580  0.00  0.00    +0.059 C 
ATOM     13  C   LIG    1        2.042  -7.042   0.989  0.00  0.00    +0.019 C 
ATOM     14  C   LIG    1        3.201  -6.392   1.274  0.00  0.00    +0.002 C 
ATOM     15  C   LIG    1        3.288  -5.002   1.187  0.00  0.00    +0.000 C 
ATOM     16  C   LIG    1        2.216  -4.259   0.801  0.00  0.00    +0.007 C 
ATOM     17  C   LIG    1        1.004  -4.897   0.487  0.00  0.00    +0.026 C 
ENDBRANCH   1   3
BRANCH   1  23
ATOM     18  C   LIG    1       -0.372  -0.601   1.001  0.00  0.00    +0.143 A 
ATOM     19  C   LIG    1       -0.840   0.183   2.042  0.00  0.00    +0.072 A 
ATOM     20  C   LIG    1       -1.470  -0.410   3.128  0.00  0.00    +0.051 A 
ATOM     21  C   LIG    1       -1.629  -1.790   3.171  0.00  0.00    +0.026 A 
ATOM     22  C   LIG    1       -1.163  -2.573   2.133  0.00  0.00    +0.028 A 
ATOM     23  C   LIG    1       -0.539  -1.984   1.043  0.00  0.00    +0.070 A 
BRANCH  18  25
ATOM     24  C   LIG    1        0.381   1.401  -0.040  0.00  0.00    +0.277 C 
ATOM     25  O   LIG    1        0.244  -0.022  -0.064  0.00  0.00    -0.493 OA
ENDBRANCH  18  25
BRANCH  20  26
ATOM     26  N   LIG    1       -1.943   0.381   4.180  0.00  0.00    -0.221 N 
ATOM     27  H   LIG    1       -1.829   1.359   4.150  0.00  0.00    +0.173 HD
BRANCH  26  28
ATOM     28  S   LIG    1       -2.693  -0.326   5.476  0.00  0.00    +0.040 S 
ATOM     29  C   LIG    1       -3.131   1.052   6.571  0.00  0.00    +0.218 C 
ATOM     30  O   LIG    1       -1.691  -1.133   6.079  0.00  0.00    -0.155 OA
ATOM     31  O   LIG    1       -3.869  -0.915   4.936  0.00  0.00    -0.155 OA
ENDBRANCH  26  28
ENDBRANCH  20  26
ENDBRANCH   1  23
TORSDOF 5
