REMARK  Name = ZINC03779075
REMARK                            x       y       z     vdW  Elec       q    Type
REMARK                         _______ _______ _______ _____ _____    ______ ____
ROOT
ATOM      1  C   LIG    1       -0.013   1.086   0.008  0.00  0.00    +0.232 C 
ENDROOT
BRANCH   1   2
ATOM      2  C   LIG    1       -0.753   1.593  -1.232  0.00  0.00    +0.082 C 
BRANCH   2   3
ATOM      3  C   LIG    1       -0.037   1.099  -2.490  0.00  0.00    +0.232 C 
BRANCH   3   4
ATOM      4  O   LIG    1       -0.728   1.573  -3.648  0.00  0.00    -0.491 OA
BRANCH   4   5
ATOM      5  C   LIG    1       -0.219   1.222  -4.856  0.00  0.00    +0.127 A 
ATOM      6  C   LIG    1        0.927   0.434  -4.923  0.00  0.00    +0.047 A 
ATOM      7  C   LIG    1        1.450   0.073  -6.143  0.00  0.00    +0.020 A 
ATOM      8  C   LIG    1        0.829   0.498  -7.322  0.00  0.00    +0.079 A 
ATOM      9  C   LIG    1       -0.326   1.292  -7.253  0.00  0.00    +0.139 A 
ATOM     10  C   LIG    1       -0.846   1.644  -6.019  0.00  0.00    +0.037 A 
BRANCH   8  11
ATOM     11  C   LIG    1        1.385   0.115  -8.631  0.00  0.00    +0.247 C 
ATOM     12  N   LIG    1        2.495  -0.648  -8.694  0.00  0.00    -0.314 N 
ATOM     13  H   LIG    1        2.927  -0.944  -7.877  0.00  0.00    +0.149 HD
ATOM     14  C   LIG    1        3.048  -1.029  -9.995  0.00  0.00    +0.128 C 
ATOM     15  O   LIG    1        0.843   0.486  -9.654  0.00  0.00    -0.270 OA
ENDBRANCH   8  11
BRANCH   9  16
ATOM     16  O   LIG    1       -0.935   1.709  -8.392  0.00  0.00    -0.494 OA
ATOM     17  C   LIG    1       -1.947   0.859  -8.934  0.00  0.00    +0.277 C 
ENDBRANCH   9  16
BRANCH  10  18
ATOM     18  C   LIG    1       -2.089   2.491  -5.939  0.00  0.00    +0.046 C 
BRANCH  18  19
ATOM     19  C   LIG    1       -1.699   3.970  -5.916  0.00  0.00    -0.006 C 
ATOM     20  C   LIG    1       -2.045   4.773  -4.661  0.00  0.00    +0.004 C 
ATOM     21  C   LIG    1       -2.829   5.000  -5.955  0.00  0.00    +0.004 C 
ENDBRANCH  18  19
ENDBRANCH  10  18
ENDBRANCH   4   5
ENDBRANCH   3   4
ENDBRANCH   2   3
ENDBRANCH   1   2
BRANCH   1  22
ATOM     22  O   LIG    1       -0.682   1.547   1.184  0.00  0.00    -0.491 OA
BRANCH  22  24
ATOM     23  C   LIG    1       -0.742   1.598   3.560  0.00  0.00    +0.036 A 
ATOM     24  C   LIG    1       -0.149   1.182   2.380  0.00  0.00    +0.127 A 
ATOM     25  C   LIG    1        0.994   0.397   2.421  0.00  0.00    +0.046 A 
ATOM     26  C   LIG    1        1.532   0.027   3.638  0.00  0.00    +0.011 A 
ATOM     27  C   LIG    1        0.938   0.437   4.820  0.00  0.00    -0.005 A 
ATOM     28  C   LIG    1        1.555   0.008   6.127  0.00  0.00    +0.042 C 
ATOM     29  C   LIG    1        1.036   0.898   7.259  0.00  0.00    +0.049 C 
ATOM     30  C   LIG    1       -0.491   0.986   7.142  0.00  0.00    +0.174 C 
ATOM     31  O   LIG    1       -0.811   1.652   5.920  0.00  0.00    -0.488 OA
ATOM     32  C   LIG    1       -0.201   1.224   4.784  0.00  0.00    +0.131 A 
BRANCH  30  33
ATOM     33  C   LIG    1       -1.054   1.777   8.323  0.00  0.00    +0.055 C 
BRANCH  33  34
ATOM     34  C   LIG    1       -2.583   1.756   8.269  0.00  0.00    +0.124 C 
BRANCH  34  35
ATOM     35  C   LIG    1       -3.138   2.536   9.433  0.00  0.00    +0.305 C 
ATOM     36  O   LIG    1       -2.388   3.055  10.225  0.00  0.00    -0.251 OA
BRANCH  35  37
ATOM     37  O   LIG    1       -4.466   2.653   9.591  0.00  0.00    -0.481 OA
ATOM     38  H   LIG    1       -5.048   2.250   8.977  0.00  0.00    +0.295 HD
ENDBRANCH  35  37
ENDBRANCH  34  35
ENDBRANCH  33  34
ENDBRANCH  30  33
BRANCH  23  39
ATOM     39  C   LIG    1       -1.981   2.456   3.516  0.00  0.00    +0.042 C 
BRANCH  39  41
ATOM     40  C   LIG    1       -4.479   2.431   3.463  0.00  0.00    +0.004 C 
ATOM     41  C   LIG    1       -3.221   1.560   3.507  0.00  0.00    +0.001 C 
ENDBRANCH  39  41
ENDBRANCH  23  39
ENDBRANCH  22  24
ENDBRANCH   1  22
TORSDOF 16
