REMARK  Name = ZINC03870796
REMARK                            x       y       z     vdW  Elec       q    Type
REMARK                         _______ _______ _______ _____ _____    ______ ____
ROOT
ATOM      1  C   LIG    1       -0.019   1.526   0.010  0.00  0.00    +0.000 C 
ATOM      2  C   LIG    1        1.417   2.055  -0.000  0.00  0.00    +0.000 C 
ATOM      3  C   LIG    1        2.003   1.911  -1.406  0.00  0.00    +0.000 C 
ATOM      4  C   LIG    1        2.370   0.447  -1.657  0.00  0.00    +0.006 C 
ATOM      5  C   LIG    1        3.077  -0.122  -0.425  0.00  0.00    +0.016 C 
ATOM      6  C   LIG    1        2.191  -1.187   0.225  0.00  0.00    +0.006 C 
ATOM      7  C   LIG    1        1.056  -0.506   0.991  0.00  0.00    +0.000 C 
ATOM      8  C   LIG    1        0.002  -0.004   0.002  0.00  0.00    +0.000 C 
ENDROOT
BRANCH   5   9
ATOM      9  C   LIG    1        4.407  -0.751  -0.845  0.00  0.00    +0.100 C 
BRANCH   9  10
ATOM     10  O   LIG    1        5.234   0.244  -1.452  0.00  0.00    -0.393 OA
ATOM     11  H   LIG    1        5.441   0.990  -0.872  0.00  0.00    +0.210 HD
ENDBRANCH   9  10
BRANCH   9  12
ATOM     12  C   LIG    1        5.114  -1.319   0.387  0.00  0.00    -0.054 C 
BRANCH  12  13
ATOM     13  N   LIG    1        6.391  -1.923  -0.016  0.00  0.00    +0.380 N 
ATOM     14  H   LIG    1        6.974  -1.221  -0.444  0.00  0.00    -0.090 HD
ATOM     15  H   LIG    1        6.218  -2.666  -0.676  0.00  0.00    -0.090 HD
ATOM     16  H   LIG    1        6.856  -2.298   0.797  0.00  0.00    -0.090 HD
ENDBRANCH  12  13
ENDBRANCH   9  12
ENDBRANCH   5   9
TORSDOF 4
