REMARK  Name = ZINC03633221
REMARK                            x       y       z     vdW  Elec       q    Type
REMARK                         _______ _______ _______ _____ _____    ______ ____
ROOT
ATOM      1  N   LIG    1        0.688  -0.476  -1.203  0.00  0.00    -0.320 N 
ENDROOT
BRANCH   1   3
ATOM      2  C   LIG    1       -0.019   1.526   0.010  0.00  0.00    +0.024 C 
ATOM      3  C   LIG    1        0.002  -0.004   0.002  0.00  0.00    +0.102 C 
ENDBRANCH   1   3
BRANCH   1   4
ATOM      4  C   LIG    1       -0.013  -0.705  -2.332  0.00  0.00    +0.106 C 
ATOM      5  S   LIG    1       -1.679  -0.446  -2.356  0.00  0.00    -0.028 S 
BRANCH   4   6
ATOM      6  S   LIG    1        0.776  -1.248  -3.719  0.00  0.00    -0.120 S 
ATOM      7  H   LIG    1        2.105  -1.383  -3.461  0.00  0.00    +0.109 HD
ENDBRANCH   4   6
ENDBRANCH   1   4
BRANCH   1   8
ATOM      8  C   LIG    1        2.135  -0.701  -1.182  0.00  0.00    +0.102 C 
ATOM      9  C   LIG    1        2.421  -2.145  -0.763  0.00  0.00    +0.024 C 
ENDBRANCH   1   8
TORSDOF 4
