REMARK  Name = ZINC03872446
REMARK                            x       y       z     vdW  Elec       q    Type
REMARK                         _______ _______ _______ _____ _____    ______ ____
ROOT
ATOM      1  C   LIG    1       -0.017   1.383   0.010  0.00  0.00    +0.065 A 
ATOM      2  C   LIG    1        1.186   2.077   0.002  0.00  0.00    +0.074 A 
ATOM      3  C   LIG    1        2.393   1.345  -0.001  0.00  0.00    +0.047 A 
ATOM      4  C   LIG    1        3.648   2.105   0.003  0.00  0.00    +0.047 A 
ATOM      5  C   LIG    1        4.847   1.387  -0.199  0.00  0.00    +0.074 A 
ATOM      6  C   LIG    1        4.721  -0.062  -0.420  0.00  0.00    +0.345 A 
ATOM      7  O   LIG    1        3.607  -0.698   0.020  0.00  0.00    -0.418 OA
ATOM      8  O   LIG    1        5.601  -0.680  -0.988  0.00  0.00    -0.244 OA
ATOM      9  C   LIG    1        6.050   2.080  -0.199  0.00  0.00    +0.065 A 
ATOM     10  C   LIG    1        6.038   3.456  -0.020  0.00  0.00    +0.163 A 
ATOM     11  C   LIG    1        4.848   4.161   0.167  0.00  0.00    +0.202 A 
ATOM     12  C   LIG    1        3.632   3.486   0.187  0.00  0.00    +0.185 A 
ATOM     13  O   LIG    1        2.453   4.117   0.412  0.00  0.00    -0.418 OA
ATOM     14  C   LIG    1        2.417  -0.048  -0.005  0.00  0.00    +0.185 A 
ATOM     15  C   LIG    1        1.199  -0.721  -0.010  0.00  0.00    +0.202 A 
ATOM     16  C   LIG    1        1.301   3.544  -0.016  0.00  0.00    +0.345 A 
ATOM     17  O   LIG    1        0.377   4.231  -0.409  0.00  0.00    -0.244 OA
ATOM     18  C   LIG    1        0.002  -0.004   0.002  0.00  0.00    +0.163 A 
ENDROOT
BRANCH  10  19
ATOM     19  O   LIG    1        7.216   4.135  -0.027  0.00  0.00    -0.503 OA
ATOM     20  H   LIG    1        7.487   4.444  -0.902  0.00  0.00    +0.292 HD
ENDBRANCH  10  19
BRANCH  11  21
ATOM     21  O   LIG    1        4.877   5.510   0.329  0.00  0.00    -0.501 OA
ATOM     22  H   LIG    1        4.812   6.007  -0.498  0.00  0.00    +0.292 HD
ENDBRANCH  11  21
BRANCH  15  23
ATOM     23  O   LIG    1        1.176  -2.080  -0.026  0.00  0.00    -0.501 OA
ATOM     24  H   LIG    1        1.171  -2.483   0.852  0.00  0.00    +0.292 HD
ENDBRANCH  15  23
BRANCH  18  25
ATOM     25  O   LIG    1       -1.176  -0.682   0.006  0.00  0.00    -0.503 OA
ATOM     26  H   LIG    1       -1.523  -0.874  -0.876  0.00  0.00    +0.292 HD
ENDBRANCH  18  25
TORSDOF 4
