REMARK  Name = ZINC03814891
REMARK                            x       y       z     vdW  Elec       q    Type
REMARK                         _______ _______ _______ _____ _____    ______ ____
ROOT
ATOM      1  C   LIG    1        4.171  -0.963   1.399  0.00  0.00    -0.006 C 
ATOM      2  C   LIG    1        5.458  -1.797   1.387  0.00  0.00    +0.005 C 
ATOM      3  C   LIG    1        5.765  -2.235   2.818  0.00  0.00    +0.019 C 
ATOM      4  C   LIG    1        5.737  -1.052   3.748  0.00  0.00    +0.062 C 
ATOM      5  C   LIG    1        5.135   0.137   3.415  0.00  0.00    +0.038 C 
ATOM      6  C   LIG    1        5.153   1.180   4.349  0.00  0.00    +0.126 C 
ATOM      7  N   LIG    1        5.752   0.993   5.519  0.00  0.00    -0.274 NA
ATOM      8  H   LIG    1        5.046   1.153   6.238  0.00  0.00    +0.126 HD
ATOM      9  C   LIG    1        6.325  -0.167   5.801  0.00  0.00    +0.193 C 
ATOM     10  N   LIG    1        6.320  -1.169   4.938  0.00  0.00    -0.286 NA
ATOM     11  H   LIG    1        6.750  -2.006   5.178  0.00  0.00    +0.125 HD
ATOM     12  C   LIG    1        4.464   0.368   2.090  0.00  0.00    +0.011 C 
ENDROOT
BRANCH   6  13
ATOM     13  N   LIG    1        4.554   2.394   4.055  0.00  0.00    -0.315 NA
ATOM     14  H   LIG    1        4.569   3.113   4.706  0.00  0.00    +0.120 HD
ATOM     15  H   LIG    1        4.118   2.525   3.198  0.00  0.00    +0.120 HD
ENDBRANCH   6  13
BRANCH   9  16
ATOM     16  N   LIG    1        6.945  -0.334   7.027  0.00  0.00    -0.303 NA
ATOM     17  H   LIG    1        7.369  -1.178   7.246  0.00  0.00    +0.121 HD
ATOM     18  H   LIG    1        6.956   0.394   7.669  0.00  0.00    +0.121 HD
ENDBRANCH   9  16
BRANCH   1  19
ATOM     19  C   LIG    1        3.711  -0.707  -0.038  0.00  0.00    +0.038 C 
BRANCH  19  23
ATOM     20  C   LIG    1       -0.017   1.378   0.010  0.00  0.00    +0.000 A 
ATOM     21  C   LIG    1        1.171   2.086   0.002  0.00  0.00    +0.000 A 
ATOM     22  C   LIG    1        2.377   1.411  -0.013  0.00  0.00    +0.003 A 
ATOM     23  C   LIG    1        2.396   0.029  -0.020  0.00  0.00    -0.047 A 
ATOM     24  C   LIG    1        1.208  -0.679  -0.012  0.00  0.00    +0.003 A 
ATOM     25  C   LIG    1        0.002  -0.004   0.002  0.00  0.00    +0.000 A 
ENDBRANCH  19  23
ENDBRANCH   1  19
TORSDOF 4
