REMARK  Name = ZINC03819496
REMARK                            x       y       z     vdW  Elec       q    Type
REMARK                         _______ _______ _______ _____ _____    ______ ____
ROOT
ATOM      1  C   LIG    1       -3.473   5.140   7.450  0.00  0.00    +0.022 A 
ATOM      2  C   LIG    1       -2.652   6.265   7.402  0.00  0.00    +0.012 A 
ATOM      3  C   LIG    1       -2.784   7.254   8.356  0.00  0.00    +0.002 A 
ATOM      4  C   LIG    1       -3.720   7.123   9.366  0.00  0.00    -0.064 A 
ATOM      5  C   LIG    1       -4.533   6.006   9.422  0.00  0.00    +0.002 A 
ATOM      6  C   LIG    1       -4.414   5.014   8.470  0.00  0.00    +0.012 A 
ENDROOT
BRANCH   1   9
ATOM      7  C   LIG    1       -2.707   2.942   4.742  0.00  0.00    +0.259 A 
ATOM      8  N   LIG    1       -2.471   4.067   5.391  0.00  0.00    -0.187 NA
ATOM      9  C   LIG    1       -3.340   4.077   6.423  0.00  0.00    +0.202 A 
ATOM     10  N   LIG    1       -4.040   2.973   6.355  0.00  0.00    -0.056 NA
ATOM     11  O   LIG    1       -3.692   2.312   5.400  0.00  0.00    -0.332 OA
BRANCH   7  15
ATOM     12  C   LIG    1       -0.718   1.572   1.248  0.00  0.00    -0.047 A 
ATOM     13  C   LIG    1       -0.357   2.780   1.817  0.00  0.00    +0.004 A 
ATOM     14  C   LIG    1       -1.003   3.234   2.948  0.00  0.00    +0.013 A 
ATOM     15  C   LIG    1       -2.014   2.465   3.526  0.00  0.00    +0.039 A 
ATOM     16  C   LIG    1       -2.370   1.244   2.950  0.00  0.00    +0.013 A 
ATOM     17  C   LIG    1       -1.720   0.805   1.816  0.00  0.00    +0.004 A 
BRANCH  12  18
ATOM     18  C   LIG    1       -0.013   1.086   0.008  0.00  0.00    +0.038 C 
BRANCH  18  20
ATOM     19  C   LIG    1        0.031   1.205  -2.487  0.00  0.00    +0.007 C 
ATOM     20  C   LIG    1       -0.753   1.593  -1.232  0.00  0.00    -0.013 C 
ATOM     21  C   LIG    1       -2.147   0.964  -1.286  0.00  0.00    +0.007 C 
ENDBRANCH  18  20
ENDBRANCH  12  18
ENDBRANCH   7  15
ENDBRANCH   1   9
BRANCH   4  22
ATOM     22  C   LIG    1       -3.855   8.203  10.409  0.00  0.00    -0.043 C 
BRANCH  22  23
ATOM     23  N   LIG    1       -2.874   8.010  11.555  0.00  0.00    +0.383 N 
ATOM     24  H   LIG    1       -3.046   7.099  11.997  0.00  0.00    -0.081 HD
ATOM     25  C   LIG    1       -2.884   9.055  12.462  0.00  0.00    -0.066 C 
ATOM     26  C   LIG    1       -1.375   8.795  12.572  0.00  0.00    +0.065 C 
ATOM     27  C   LIG    1       -1.554   8.178  11.178  0.00  0.00    -0.066 C 
BRANCH  26  28
ATOM     28  C   LIG    1       -0.533  10.044  12.591  0.00  0.00    +0.304 C 
ATOM     29  O   LIG    1       -1.061  11.129  12.522  0.00  0.00    -0.251 OA
BRANCH  28  30
ATOM     30  O   LIG    1        0.803   9.952  12.685  0.00  0.00    -0.481 OA
ATOM     31  H   LIG    1        1.212   9.111  12.738  0.00  0.00    +0.295 HD
ENDBRANCH  28  30
ENDBRANCH  26  28
ENDBRANCH  22  23
ENDBRANCH   4  22
TORSDOF 8
