REMARK  Name = ZINC03831051
REMARK                            x       y       z     vdW  Elec       q    Type
REMARK                         _______ _______ _______ _____ _____    ______ ____
ROOT
ATOM      1  C   LIG    1       -0.044   1.710  -0.881  0.00  0.00    +0.050 C 
ATOM      2  C   LIG    1       -0.086   0.213  -0.568  0.00  0.00    +0.157 C 
ENDROOT
BRANCH   2   3
ATOM      3  O   LIG    1       -1.437  -0.247  -0.621  0.00  0.00    -0.464 OA
BRANCH   3   4
ATOM      4  C   LIG    1       -2.144  -0.196   0.519  0.00  0.00    +0.304 C 
ATOM      5  C   LIG    1       -3.576  -0.665   0.539  0.00  0.00    +0.136 C 
ATOM      6  O   LIG    1       -1.632   0.225   1.529  0.00  0.00    -0.251 OA
ENDBRANCH   3   4
ENDBRANCH   2   3
BRANCH   2   7
ATOM      7  C   LIG    1        0.753  -0.547  -1.597  0.00  0.00    -0.031 C 
BRANCH   7   8
ATOM      8  N   LIG    1        0.844  -1.960  -1.207  0.00  0.00    +0.377 N 
ATOM      9  C   LIG    1        1.377  -2.058   0.159  0.00  0.00    -0.093 C 
ATOM     10  C   LIG    1        1.738  -2.667  -2.133  0.00  0.00    -0.093 C 
ATOM     11  C   LIG    1       -0.492  -2.569  -1.256  0.00  0.00    -0.093 C 
ENDBRANCH   7   8
ENDBRANCH   2   7
TORSDOF 4
