REMARK  Name = ZINC03808881
REMARK                            x       y       z     vdW  Elec       q    Type
REMARK                         _______ _______ _______ _____ _____    ______ ____
ROOT
ATOM      1  C   LIG    1        2.152   0.038   1.111  0.00  0.00    -0.046 C 
ATOM      2  N   LIG    1        0.775  -0.490   1.161  0.00  0.00    +0.384 N 
ATOM      3  H   LIG    1        0.805  -1.516   1.142  0.00  0.00    -0.085 HD
ATOM      4  H   LIG    1        0.322  -0.176   2.027  0.00  0.00    -0.085 HD
ATOM      5  C   LIG    1        0.002  -0.004   0.002  0.00  0.00    -0.050 C 
ATOM      6  C   LIG    1       -0.019   1.527   0.010  0.00  0.00    +0.112 C 
ATOM      7  O   LIG    1        1.325   2.017   0.000  0.00  0.00    -0.379 OA
ATOM      8  C   LIG    1        2.110   1.569   1.109  0.00  0.00    +0.144 C 
ENDROOT
BRANCH   1  10
ATOM      9  C   LIG    1        3.068  -1.972   2.278  0.00  0.00    +0.002 C 
ATOM     10  C   LIG    1        2.923  -0.450   2.339  0.00  0.00    -0.017 C 
ENDBRANCH   1  10
BRANCH   6  11
ATOM     11  C   LIG    1       -0.757   2.034  -1.230  0.00  0.00    +0.150 C 
BRANCH  11  12
ATOM     12  C   LIG    1       -0.885   3.534  -1.159  0.00  0.00    +0.307 C 
ATOM     13  O   LIG    1       -0.431   4.136  -0.214  0.00  0.00    -0.251 OA
BRANCH  12  14
ATOM     14  O   LIG    1       -1.502   4.203  -2.147  0.00  0.00    -0.481 OA
ATOM     15  H   LIG    1       -1.853   3.736  -2.879  0.00  0.00    +0.295 HD
ENDBRANCH  12  14
ENDBRANCH  11  12
ENDBRANCH   6  11
TORSDOF 4
