REMARK  Name = ZINC03813088
REMARK                            x       y       z     vdW  Elec       q    Type
REMARK                         _______ _______ _______ _____ _____    ______ ____
ROOT
ATOM      1  C   LIG    1        3.689  -5.843  -5.109  0.00  0.00    +0.051 C 
ATOM      2  C   LIG    1        5.199  -5.501  -5.178  0.00  0.00    +0.129 C 
ATOM      3  C   LIG    1        5.734  -6.565  -6.168  0.00  0.00    +0.106 C 
ATOM      4  C   LIG    1        4.949  -7.821  -5.835  0.00  0.00    +0.140 C 
ATOM      5  O   LIG    1        5.290  -8.959  -6.055  0.00  0.00    -0.297 OA
ATOM      6  C   LIG    1        3.654  -7.384  -5.176  0.00  0.00    +0.065 C 
ENDROOT
BRANCH   2   7
ATOM      7  O   LIG    1        5.399  -4.181  -5.687  0.00  0.00    -0.391 OA
ATOM      8  H   LIG    1        6.327  -3.920  -5.749  0.00  0.00    +0.210 HD
ENDBRANCH   2   7
BRANCH   1  10
ATOM      9  C   LIG    1        2.071  -4.538  -3.829  0.00  0.00    -0.000 C 
ATOM     10  C   LIG    1        3.094  -5.356  -3.813  0.00  0.00    -0.022 C 
BRANCH   9  11
ATOM     11  C   LIG    1        1.476  -4.051  -2.532  0.00  0.00    +0.137 C 
BRANCH  11  12
ATOM     12  O   LIG    1        2.265  -4.522  -1.439  0.00  0.00    -0.388 OA
ATOM     13  H   LIG    1        3.185  -4.224  -1.460  0.00  0.00    +0.210 HD
ENDBRANCH  11  12
BRANCH  11  14
ATOM     14  C   LIG    1        1.455  -2.521  -2.524  0.00  0.00    +0.035 C 
BRANCH  14  15
ATOM     15  C   LIG    1        0.739  -2.027  -1.265  0.00  0.00    +0.003 C 
BRANCH  15  16
ATOM     16  C   LIG    1        0.718  -0.497  -1.257  0.00  0.00    -0.000 C 
BRANCH  16  18
ATOM     17  C   LIG    1       -0.019   1.526   0.010  0.00  0.00    +0.004 C 
ATOM     18  C   LIG    1        0.002  -0.004   0.002  0.00  0.00    -0.003 C 
ENDBRANCH  16  18
ENDBRANCH  15  16
ENDBRANCH  14  15
ENDBRANCH  11  14
ENDBRANCH   9  11
ENDBRANCH   1  10
BRANCH   6  19
ATOM     19  C   LIG    1        2.457  -7.845  -6.010  0.00  0.00    +0.012 C 
BRANCH  19  20
ATOM     20  C   LIG    1        2.362  -9.371  -5.965  0.00  0.00    +0.001 C 
BRANCH  20  21
ATOM     21  C   LIG    1        1.165  -9.832  -6.799  0.00  0.00    +0.000 C 
BRANCH  21  22
ATOM     22  C   LIG    1        1.070 -11.359  -6.755  0.00  0.00    +0.001 C 
BRANCH  22  23
ATOM     23  C   LIG    1       -0.128 -11.819  -7.588  0.00  0.00    +0.011 C 
BRANCH  23  24
ATOM     24  C   LIG    1       -0.223 -13.346  -7.544  0.00  0.00    +0.120 C 
BRANCH  24  25
ATOM     25  C   LIG    1       -1.402 -13.800  -8.365  0.00  0.00    +0.305 C 
ATOM     26  O   LIG    1       -2.101 -12.979  -8.933  0.00  0.00    -0.251 OA
BRANCH  25  27
ATOM     27  O   LIG    1       -1.656 -14.988  -8.461  0.00  0.00    -0.481 OA
ATOM     28  H   LIG    1       -1.119 -15.619  -8.025  0.00  0.00    +0.295 HD
ENDBRANCH  25  27
ENDBRANCH  24  25
ENDBRANCH  23  24
ENDBRANCH  22  23
ENDBRANCH  21  22
ENDBRANCH  20  21
ENDBRANCH  19  20
ENDBRANCH   6  19
TORSDOF 16
