REMARK  Name = ZINC03831551
REMARK                            x       y       z     vdW  Elec       q    Type
REMARK                         _______ _______ _______ _____ _____    ______ ____
ROOT
ATOM      1  C   LIG    1        0.707  -0.490  -1.238  0.00  0.00    +0.226 C 
ATOM      2  N   LIG    1        2.051  -0.601  -1.250  0.00  0.00    -0.304 N 
ATOM      3  H   LIG    1        2.563  -0.367  -0.460  0.00  0.00    +0.149 HD
ATOM      4  O   LIG    1        0.066  -0.782  -2.225  0.00  0.00    -0.275 OA
ENDROOT
BRANCH   1   6
ATOM      5  C   LIG    1       -0.019   1.526   0.010  0.00  0.00    +0.028 C 
ATOM      6  C   LIG    1        0.002  -0.004   0.002  0.00  0.00    +0.126 C 
BRANCH   6   7
ATOM      7  S   LIG    1       -1.700  -0.632   0.015  0.00  0.00    -0.166 S 
ATOM      8  H   LIG    1       -2.220  -0.139   1.153  0.00  0.00    +0.102 HD
ENDBRANCH   6   7
ENDBRANCH   1   6
BRANCH   2   9
ATOM      9  C   LIG    1        2.736  -1.073  -2.455  0.00  0.00    +0.224 C 
BRANCH   9  10
ATOM     10  C   LIG    1        4.223  -1.105  -2.207  0.00  0.00    +0.322 C 
ATOM     11  O   LIG    1        4.668  -0.764  -1.125  0.00  0.00    -0.249 OA
BRANCH  10  12
ATOM     12  O   LIG    1        4.980  -1.471  -3.090  0.00  0.00    -0.480 OA
ATOM     13  H   LIG    1        4.638  -1.733  -3.922  0.00  0.00    +0.295 HD
ENDBRANCH  10  12
ENDBRANCH   9  10
ENDBRANCH   2   9
TORSDOF 5
