REMARK  Name = ZINC03861599
REMARK                            x       y       z     vdW  Elec       q    Type
REMARK                         _______ _______ _______ _____ _____    ______ ____
ROOT
ATOM      1  C   LIG    1       -0.900  -2.590  -0.003  0.00  0.00    +0.062 C 
ATOM      2  C   LIG    1       -0.185  -2.898  -1.320  0.00  0.00    +0.046 C 
ATOM      3  C   LIG    1       -1.175  -2.753  -2.461  0.00  0.00    -0.059 C 
ATOM      4  C   LIG    1       -0.801  -2.033  -3.518  0.00  0.00    +0.046 C 
ATOM      5  C   LIG    1       -1.712  -1.872  -4.657  0.00  0.00    +0.156 C 
ATOM      6  C   LIG    1       -2.805  -2.912  -4.800  0.00  0.00    +0.080 C 
ATOM      7  C   LIG    1       -3.491  -3.045  -3.441  0.00  0.00    +0.019 C 
ATOM      8  O   LIG    1       -1.596  -0.955  -5.443  0.00  0.00    -0.293 OA
ATOM      9  C   LIG    1       -2.507  -3.429  -2.350  0.00  0.00    -0.007 C 
ATOM     10  C   LIG    1       -2.278  -4.940  -2.431  0.00  0.00    +0.016 C 
ATOM     11  C   LIG    1       -3.132  -3.136  -0.981  0.00  0.00    +0.003 C 
ATOM     12  C   LIG    1       -4.431  -3.925  -0.846  0.00  0.00    +0.005 C 
ATOM     13  C   LIG    1       -5.044  -3.781   0.561  0.00  0.00    +0.011 C 
ATOM     14  C   LIG    1       -3.998  -4.247   1.555  0.00  0.00    +0.011 C 
ATOM     15  C   LIG    1       -3.527  -5.653   1.178  0.00  0.00    +0.015 C 
ATOM     16  C   LIG    1       -4.352  -4.218   3.033  0.00  0.00    +0.120 C 
ATOM     17  C   LIG    1       -5.459  -3.189   3.317  0.00  0.00    +0.060 C 
ATOM     18  C   LIG    1       -6.281  -3.892   4.427  0.00  0.00    +0.124 C 
ATOM     19  C   LIG    1       -5.535  -5.199   4.655  0.00  0.00    +0.308 C 
ATOM     20  O   LIG    1       -5.532  -5.864   5.663  0.00  0.00    -0.251 OA
ATOM     21  O   LIG    1       -4.874  -5.468   3.501  0.00  0.00    -0.457 OA
ATOM     22  C   LIG    1       -3.064  -3.846   3.791  0.00  0.00    +0.049 C 
ATOM     23  C   LIG    1       -1.979  -3.609   2.703  0.00  0.00    +0.008 C 
ATOM     24  C   LIG    1       -2.807  -3.254   1.462  0.00  0.00    +0.003 C 
ATOM     25  C   LIG    1       -2.128  -3.496   0.126  0.00  0.00    +0.010 C 
ENDROOT
BRANCH   1  26
ATOM     26  S   LIG    1       -1.424  -0.854   0.011  0.00  0.00    -0.084 S 
BRANCH  26  28
ATOM     27  C   LIG    1       -0.018   1.503   0.010  0.00  0.00    +0.099 C 
ATOM     28  C   LIG    1        0.002  -0.004   0.002  0.00  0.00    +0.187 C 
ATOM     29  O   LIG    1        1.061  -0.596  -0.011  0.00  0.00    -0.286 OA
ENDBRANCH  26  28
ENDBRANCH   1  26
TORSDOF 2
