REMARK  Name = ZINC03872168
REMARK                            x       y       z     vdW  Elec       q    Type
REMARK                         _______ _______ _______ _____ _____    ______ ____
ROOT
ATOM      1  C   LIG    1       -8.758  -1.161   5.316  0.00  0.00    +0.162 A 
ATOM      2  C   LIG    1       -8.950  -1.154   3.963  0.00  0.00    +0.062 A 
ATOM      3  C   LIG    1       -7.921  -0.719   3.119  0.00  0.00    +0.044 A 
ATOM      4  C   LIG    1       -6.689  -0.289   3.670  0.00  0.00    +0.082 A 
ATOM      5  N   LIG    1       -5.716   0.118   2.840  0.00  0.00    -0.214 NA
ATOM      6  C   LIG    1       -5.912   0.126   1.535  0.00  0.00    +0.220 A 
ATOM      7  N   LIG    1       -7.053  -0.269   0.977  0.00  0.00    -0.199 NA
ATOM      8  C   LIG    1       -6.514  -0.305   5.059  0.00  0.00    +0.078 A 
ATOM      9  C   LIG    1       -8.071  -0.693   1.711  0.00  0.00    +0.129 A 
ATOM     10  C   LIG    1       -7.542  -0.737   5.868  0.00  0.00    +0.164 A 
ENDROOT
BRANCH   6  11
ATOM     11  N   LIG    1       -4.886   0.558   0.713  0.00  0.00    -0.293 N 
ATOM     12  C   LIG    1       -3.659  -0.213   0.954  0.00  0.00    +0.127 C 
ATOM     13  C   LIG    1       -2.601   0.167  -0.087  0.00  0.00    +0.127 C 
ATOM     14  N   LIG    1       -2.436   1.629  -0.078  0.00  0.00    -0.289 N 
ATOM     15  C   LIG    1       -1.214   2.191   0.020  0.00  0.00    +0.282 C 
ATOM     16  O   LIG    1       -1.098   3.402   0.003  0.00  0.00    -0.267 OA
ATOM     17  C   LIG    1       -3.645   2.459  -0.174  0.00  0.00    +0.097 C 
ATOM     18  C   LIG    1       -3.291   3.929   0.018  0.00  0.00    +0.024 C 
ATOM     19  C   LIG    1       -2.700   4.142   1.412  0.00  0.00    +0.002 C 
ATOM     20  C   LIG    1       -3.727   3.715   2.464  0.00  0.00    +0.002 C 
ATOM     21  C   LIG    1       -4.050   2.232   2.279  0.00  0.00    +0.024 C 
ATOM     22  C   LIG    1       -4.642   2.000   0.887  0.00  0.00    +0.097 C 
BRANCH  15  23
ATOM     23  C   LIG    1       -0.026   1.341   0.147  0.00  0.00    +0.189 A 
ATOM     24  C   LIG    1        1.247   1.773   0.389  0.00  0.00    +0.054 A 
ATOM     25  C   LIG    1        2.061   0.630   0.425  0.00  0.00    +0.042 A 
ATOM     26  C   LIG    1        1.260  -0.436   0.207  0.00  0.00    +0.196 A 
ATOM     27  O   LIG    1        0.003  -0.003   0.040  0.00  0.00    -0.458 OA
ENDBRANCH  15  23
ENDBRANCH   6  11
BRANCH   9  28
ATOM     28  N   LIG    1       -9.248  -1.100   1.118  0.00  0.00    -0.343 N 
ATOM     29  H   LIG    1       -9.986  -1.409   1.667  0.00  0.00    +0.144 HD
ATOM     30  H   LIG    1       -9.338  -1.078   0.152  0.00  0.00    +0.144 HD
ENDBRANCH   9  28
BRANCH   1  32
ATOM     31  C   LIG    1      -10.973  -2.004   5.511  0.00  0.00    +0.277 C 
ATOM     32  O   LIG    1       -9.758  -1.584   6.135  0.00  0.00    -0.491 OA
ENDBRANCH   1  32
BRANCH  10  33
ATOM     33  O   LIG    1       -7.375  -0.754   7.216  0.00  0.00    -0.491 OA
ATOM     34  C   LIG    1       -6.113  -0.310   7.719  0.00  0.00    +0.277 C 
ENDBRANCH  10  33
TORSDOF 5
