REMARK  Name = ZINC03816332
REMARK                            x       y       z     vdW  Elec       q    Type
REMARK                         _______ _______ _______ _____ _____    ______ ____
ROOT
ATOM      1  C   LIG    1        4.743   0.160  -0.042  0.00  0.00    +0.109 A 
ATOM      2  N   LIG    1        3.651  -0.572  -0.035  0.00  0.00    -0.239 NA
ATOM      3  C   LIG    1        2.416  -0.031  -0.021  0.00  0.00    +0.079 A 
ATOM      4  C   LIG    1        1.169  -0.701  -0.013  0.00  0.00    +0.032 A 
ATOM      5  C   LIG    1        0.002  -0.004   0.002  0.00  0.00    +0.047 A 
ATOM      6  C   LIG    1       -0.017   1.388   0.010  0.00  0.00    +0.118 A 
ATOM      7  C   LIG    1        1.184   2.082   0.002  0.00  0.00    +0.062 A 
ATOM      8  C   LIG    1        2.366   1.383  -0.013  0.00  0.00    +0.043 A 
ATOM      9  S   LIG    1        4.087   1.823  -0.027  0.00  0.00    -0.067 S 
ENDROOT
BRANCH   1  13
ATOM     10  C   LIG    1        8.799  -1.105  -0.087  0.00  0.00    +0.027 A 
ATOM     11  C   LIG    1        7.777  -2.049  -0.082  0.00  0.00    +0.023 A 
ATOM     12  C   LIG    1        6.462  -1.642  -0.068  0.00  0.00    +0.012 A 
ATOM     13  C   LIG    1        6.154  -0.280  -0.057  0.00  0.00    +0.007 A 
ATOM     14  C   LIG    1        7.181   0.666  -0.067  0.00  0.00    +0.012 A 
ATOM     15  C   LIG    1        8.495   0.253  -0.078  0.00  0.00    +0.023 A 
BRANCH  10  17
ATOM     16  C   LIG    1       11.207  -0.527  -0.108  0.00  0.00    +0.125 C 
ATOM     17  N   LIG    1       10.130  -1.520  -0.103  0.00  0.00    -0.347 N 
ATOM     18  H   LIG    1       10.342  -2.466  -0.110  0.00  0.00    +0.146 HD
ENDBRANCH  10  17
ENDBRANCH   1  13
BRANCH   6  19
ATOM     19  O   LIG    1       -1.199   2.060   0.019  0.00  0.00    -0.507 OA
ATOM     20  H   LIG    1       -1.536   2.249   0.905  0.00  0.00    +0.292 HD
ENDBRANCH   6  19
TORSDOF 3
