REMARK  Name = ZINC03812984
REMARK                            x       y       z     vdW  Elec       q    Type
REMARK                         _______ _______ _______ _____ _____    ______ ____
ROOT
ATOM      1  C   LIG    1       -2.798   1.575   2.512  0.00  0.00    -0.096 C 
ATOM      2  N   LIG    1       -2.133   1.100   1.290  0.00  0.00    +0.380 N 
ATOM      3  H   LIG    1       -2.123   0.073   1.296  0.00  0.00    -0.082 HD
ATOM      4  C   LIG    1       -0.738   1.586   1.259  0.00  0.00    -0.061 C 
ATOM      5  C   LIG    1       -0.630   3.094   1.356  0.00  0.00    +0.020 C 
ATOM      6  C   LIG    1       -0.828   3.783   0.032  0.00  0.00    -0.045 A 
ATOM      7  C   LIG    1       -0.865   3.102  -1.165  0.00  0.00    -0.034 A 
ATOM      8  C   LIG    1       -1.006   3.797  -2.355  0.00  0.00    +0.049 A 
ATOM      9  C   LIG    1       -1.123   5.178  -2.351  0.00  0.00    +0.117 A 
ATOM     10  C   LIG    1       -1.100   5.862  -1.145  0.00  0.00    +0.045 A 
ATOM     11  C   LIG    1       -0.758   1.599  -1.226  0.00  0.00    -0.004 C 
ATOM     12  C   LIG    1       -0.047   1.149  -2.497  0.00  0.00    +0.012 C 
ATOM     13  C   LIG    1        1.388   1.682  -2.501  0.00  0.00    +0.001 C 
ATOM     14  C   LIG    1        2.131   1.151  -1.273  0.00  0.00    +0.000 C 
ATOM     15  C   LIG    1        1.420   1.622  -0.003  0.00  0.00    +0.003 C 
ATOM     16  C   LIG    1       -2.179   1.020  -1.206  0.00  0.00    -0.007 C 
ATOM     17  C   LIG    1       -0.954   5.167   0.037  0.00  0.00    +0.007 A 
ATOM     18  C   LIG    1       -0.013   1.086   0.008  0.00  0.00    -0.014 C 
ATOM     19  C   LIG    1       -2.884   1.559   0.095  0.00  0.00    -0.078 C 
ENDROOT
BRANCH   9  20
ATOM     20  O   LIG    1       -1.258   5.856  -3.520  0.00  0.00    -0.507 OA
ATOM     21  H   LIG    1       -0.419   6.127  -3.917  0.00  0.00    +0.292 HD
ENDBRANCH   9  20
TORSDOF 1
