REMARK  Name = ZINC03831042
REMARK                            x       y       z     vdW  Elec       q    Type
REMARK                         _______ _______ _______ _____ _____    ______ ____
ROOT
ATOM      1  N   LIG    1        0.678   0.179  -0.003  0.00  0.00    -0.298 N 
ATOM      2  C   LIG    1       -0.451  -0.555  -0.354  0.00  0.00    +0.048 A 
ATOM      3  C   LIG    1       -1.391   0.025  -1.201  0.00  0.00    +0.024 A 
ATOM      4  C   LIG    1       -2.526  -0.672  -1.567  0.00  0.00    +0.002 A 
ATOM      5  C   LIG    1       -2.737  -1.954  -1.094  0.00  0.00    +0.001 A 
ATOM      6  C   LIG    1       -1.810  -2.541  -0.254  0.00  0.00    +0.017 A 
ATOM      7  C   LIG    1       -0.667  -1.846   0.117  0.00  0.00    +0.034 A 
ATOM      8  S   LIG    1        0.505  -2.612   1.187  0.00  0.00    -0.086 S 
ATOM      9  C   LIG    1        1.958  -1.637   0.993  0.00  0.00    +0.034 A 
ATOM     10  C   LIG    1        3.181  -2.142   1.412  0.00  0.00    +0.018 A 
ATOM     11  C   LIG    1        4.332  -1.388   1.265  0.00  0.00    +0.018 A 
ATOM     12  C   LIG    1        4.263  -0.130   0.699  0.00  0.00    +0.040 A 
ATOM     13  C   LIG    1        3.049   0.380   0.281  0.00  0.00    +0.041 A 
ATOM     14  C   LIG    1        1.887  -0.368   0.420  0.00  0.00    +0.049 A 
ENDROOT
BRANCH  12  15
ATOM     15  S   LIG    1        5.730   0.828   0.509  0.00  0.00    +0.051 S 
ATOM     16  C   LIG    1        6.348   0.364  -1.131  0.00  0.00    +0.127 C 
ATOM     17  O   LIG    1        6.605   0.319   1.507  0.00  0.00    -0.252 OA
ENDBRANCH  12  15
BRANCH   1  18
ATOM     18  C   LIG    1        0.591   1.639  -0.090  0.00  0.00    +0.109 C 
BRANCH  18  19
ATOM     19  C   LIG    1        0.993   2.091  -1.495  0.00  0.00    +0.004 C 
BRANCH  19  23
ATOM     20  C   LIG    1        2.753   3.487  -3.190  0.00  0.00    -0.096 C 
ATOM     21  N   LIG    1        1.414   4.046  -2.909  0.00  0.00    +0.380 N 
ATOM     22  H   LIG    1        0.752   3.695  -3.611  0.00  0.00    -0.082 HD
ATOM     23  C   LIG    1        0.961   3.619  -1.567  0.00  0.00    -0.067 C 
ATOM     24  C   LIG    1       -0.472   4.111  -1.348  0.00  0.00    -0.015 C 
ATOM     25  C   LIG    1       -0.502   5.639  -1.442  0.00  0.00    -0.003 C 
ATOM     26  C   LIG    1        0.040   6.069  -2.808  0.00  0.00    -0.019 C 
ATOM     27  C   LIG    1        1.457   5.521  -2.985  0.00  0.00    -0.079 C 
ENDBRANCH  19  23
ENDBRANCH  18  19
ENDBRANCH   1  18
TORSDOF 4
