REMARK  Name = ZINC03861782
REMARK                            x       y       z     vdW  Elec       q    Type
REMARK                         _______ _______ _______ _____ _____    ______ ____
ROOT
ATOM      1  C   UNK A  0       -1.486  -6.236   0.904  0.00  0.00    +0.248 C 
ATOM      2  N   PHE A  1       -2.563  -6.957   0.535  0.00  0.00    -0.298 N 
ATOM      3  H   PHE A  1       -3.323  -6.516   0.122  0.00  0.00    +0.150 HD
ATOM      4  O   UNK A  0       -0.534  -6.788   1.421  0.00  0.00    -0.270 OA
ENDROOT
BRANCH   1  12
ATOM      5  C   UNK A  0       -0.019   1.526   0.010  0.00  0.00    +0.052 C 
ATOM      6  C   UNK A  0        0.002  -0.004   0.002  0.00  0.00    +0.178 C 
ATOM      7  C   UNK A  0       -1.432  -0.534   0.013  0.00  0.00    +0.082 C 
ATOM      8  C   UNK A  0       -1.437  -2.022   0.247  0.00  0.00    -0.008 A 
ATOM      9  C   UNK A  0       -2.534  -2.776  -0.126  0.00  0.00    +0.046 A 
ATOM     10 CL   UNK A  0       -3.901  -2.001  -0.864  0.00  0.00    -0.083 Cl
ATOM     11  C   UNK A  0       -2.552  -4.141   0.086  0.00  0.00    +0.037 A 
ATOM     12  C   UNK A  0       -1.461  -4.778   0.680  0.00  0.00    +0.080 A 
ATOM     13  C   UNK A  0       -0.341  -4.026   1.061  0.00  0.00    +0.143 A 
ATOM     14  C   UNK A  0       -0.336  -2.645   0.840  0.00  0.00    +0.106 A 
ATOM     15  C   UNK A  0        0.835  -1.828   1.225  0.00  0.00    +0.343 C 
ATOM     16  O   UNK A  0        1.877  -2.342   1.581  0.00  0.00    -0.245 OA
ATOM     17  O   UNK A  0        0.695  -0.479   1.164  0.00  0.00    -0.458 OA
BRANCH  13  18
ATOM     18  O   UNK A  0        0.724  -4.630   1.639  0.00  0.00    -0.505 OA
ATOM     19  H   UNK A  0        1.392  -4.935   1.010  0.00  0.00    +0.292 HD
ENDBRANCH  13  18
ENDBRANCH   1  12
BRANCH   2  20
ATOM     20  CA  PHE A  1       -2.588  -8.404   0.758  0.00  0.00    +0.186 C 
BRANCH  20  21
ATOM     21  C   PHE A  1       -1.909  -9.101  -0.393  0.00  0.00    +0.326 C 
ATOM     22  O   PHE A  1       -1.334 -10.161  -0.210  0.00  0.00    -0.249 OA
BRANCH  21  23
ATOM     23  OXT PHE A  1       -1.934  -8.605  -1.506  0.00  0.00    -0.479 OA
ATOM     24  HXT PHE A  1       -2.375  -7.791  -1.647  0.00  0.00    +0.295 HD
ENDBRANCH  21  23
ENDBRANCH  20  21
BRANCH  20  25
ATOM     25  CB  PHE A  1       -4.039  -8.880   0.858  0.00  0.00    +0.069 C 
BRANCH  25  26
ATOM     26  CG  PHE A  1       -4.682  -8.278   2.080  0.00  0.00    -0.045 A 
ATOM     27  CD2 PHE A  1       -4.619  -8.940   3.292  0.00  0.00    +0.004 A 
ATOM     28  CE2 PHE A  1       -5.209  -8.387   4.413  0.00  0.00    +0.000 A 
ATOM     29  CZ  PHE A  1       -5.862  -7.172   4.322  0.00  0.00    +0.000 A 
ATOM     30  CE1 PHE A  1       -5.925  -6.510   3.111  0.00  0.00    +0.000 A 
ATOM     31  CD1 PHE A  1       -5.331  -7.060   1.991  0.00  0.00    +0.004 A 
ENDBRANCH  25  26
ENDBRANCH  20  25
ENDBRANCH   2  20
TORSDOF 7
