REMARK  Name = ZINC03870145
REMARK                            x       y       z     vdW  Elec       q    Type
REMARK                         _______ _______ _______ _____ _____    ______ ____
ROOT
ATOM      1  O   LIG    1        1.184  -0.668  -0.116  0.00  0.00    -0.397 OA
ENDROOT
BRANCH   1   3
ATOM      2  C   LIG    1        0.077   1.355   0.251  0.00  0.00    +0.066 C 
ATOM      3  C   LIG    1        0.032   0.035   0.056  0.00  0.00    +0.208 C 
BRANCH   3   4
ATOM      4  C   LIG    1       -1.265  -0.660   0.026  0.00  0.00    +0.372 C 
ATOM      5  O   LIG    1       -2.301  -0.028   0.180  0.00  0.00    -0.242 OA
BRANCH   4   6
ATOM      6  O   LIG    1       -1.307  -1.870  -0.153  0.00  0.00    -0.475 OA
ATOM      7  H   LIG    1       -0.513  -2.354  -0.270  0.00  0.00    +0.296 HD
ENDBRANCH   4   6
ENDBRANCH   3   4
ENDBRANCH   1   3
BRANCH   1   8
ATOM      8  P   LIG    1        2.208   0.001  -1.162  0.00  0.00    +0.528 P 
ATOM      9  O   LIG    1        1.470   0.268  -2.518  0.00  0.00    -0.216 OA
BRANCH   8  10
ATOM     10  O   LIG    1        3.413  -0.971  -1.407  0.00  0.00    -0.293 OA
ATOM     11  H   LIG    1        3.084  -1.810  -1.767  0.00  0.00    +0.223 HD
ENDBRANCH   8  10
BRANCH   8  12
ATOM     12  O   LIG    1        2.740   1.355  -0.581  0.00  0.00    -0.293 OA
ATOM     13  H   LIG    1        1.994   1.956  -0.429  0.00  0.00    +0.223 HD
ENDBRANCH   8  12
ENDBRANCH   1   8
TORSDOF 6
