REMARK  Name = ZINC03818628
REMARK                            x       y       z     vdW  Elec       q    Type
REMARK                         _______ _______ _______ _____ _____    ______ ____
ROOT
ATOM      1  S   LIG    1       -0.431   0.940   2.995  0.00  0.00    +0.083 S 
ATOM      2  O   LIG    1       -1.698   0.802   3.623  0.00  0.00    -0.151 OA
ATOM      3  O   LIG    1       -0.131   2.011   2.111  0.00  0.00    -0.151 OA
ENDROOT
BRANCH   1   4
ATOM      4  C   LIG    1        0.766   1.004   4.287  0.00  0.00    +0.108 A 
ATOM      5  C   LIG    1        0.481   0.442   5.519  0.00  0.00    +0.029 A 
ATOM      6  C   LIG    1        1.415   0.489   6.534  0.00  0.00    +0.010 A 
ATOM      7  C   LIG    1        2.646   1.105   6.317  0.00  0.00    -0.018 A 
ATOM      8  C   LIG    1        2.927   1.669   5.075  0.00  0.00    +0.010 A 
ATOM      9  C   LIG    1        1.989   1.611   4.064  0.00  0.00    +0.029 A 
BRANCH   7  10
ATOM     10  C   LIG    1        3.653   1.159   7.405  0.00  0.00    -0.018 A 
ATOM     11  C   LIG    1        3.374   0.590   8.646  0.00  0.00    +0.008 A 
ATOM     12  C   LIG    1        4.315   0.643   9.654  0.00  0.00    +0.001 A 
ATOM     13  C   LIG    1        5.533   1.260   9.435  0.00  0.00    +0.000 A 
ATOM     14  C   LIG    1        5.816   1.827   8.205  0.00  0.00    +0.001 A 
ATOM     15  C   LIG    1        4.885   1.775   7.188  0.00  0.00    +0.008 A 
ENDBRANCH   7  10
ENDBRANCH   1   4
BRANCH   1  16
ATOM     16  N   LIG    1       -0.165  -0.460   2.151  0.00  0.00    -0.045 NA
BRANCH  16  17
ATOM     17  O   LIG    1        0.778  -0.482   1.096  0.00  0.00    -0.273 OA
BRANCH  17  19
ATOM     18  C   LIG    1        2.602  -2.066   1.018  0.00  0.00    +0.040 C 
ATOM     19  C   LIG    1        2.124  -0.703   1.523  0.00  0.00    +0.138 C 
ATOM     20  C   LIG    1        3.026   0.396   0.958  0.00  0.00    +0.040 C 
ENDBRANCH  17  19
ENDBRANCH  16  17
BRANCH  16  21
ATOM     21  C   LIG    1       -0.907  -1.675   2.497  0.00  0.00    +0.239 C 
BRANCH  21  22
ATOM     22  C   LIG    1       -0.140  -2.453   3.535  0.00  0.00    +0.254 C 
ATOM     23  N   LIG    1       -0.634  -3.615   4.007  0.00  0.00    -0.196 N 
ATOM     24  H   LIG    1       -1.483  -3.951   3.678  0.00  0.00    +0.182 HD
ATOM     25  O   LIG    1        0.921  -2.034   3.946  0.00  0.00    -0.272 OA
BRANCH  23  26
ATOM     26  O   LIG    1        0.086  -4.346   4.983  0.00  0.00    -0.295 OA
ATOM     27  H   LIG    1       -0.347  -5.165   5.259  0.00  0.00    +0.241 HD
ENDBRANCH  23  26
ENDBRANCH  21  22
ENDBRANCH  16  21
ENDBRANCH   1  16
TORSDOF 8
