REMARK  Name = ZINC03799010
REMARK                            x       y       z     vdW  Elec       q    Type
REMARK                         _______ _______ _______ _____ _____    ______ ____
ROOT
ATOM      1  C   LIG    1        1.164   2.102   0.002  0.00  0.00    -0.035 A 
ATOM      2  C   LIG    1        2.375   1.437  -0.011  0.00  0.00    +0.050 A 
ATOM      3  C   LIG    1        2.401   0.051  -0.019  0.00  0.00    +0.124 A 
ATOM      4  C   LIG    1        1.215  -0.672  -0.015  0.00  0.00    +0.039 A 
ATOM      5  C   LIG    1        0.002  -0.004   0.002  0.00  0.00    +0.128 A 
ATOM      6  O   LIG    1       -1.184  -0.666   0.017  0.00  0.00    -0.486 OA
ATOM      7  C   LIG    1       -1.190  -2.055  -0.321  0.00  0.00    +0.109 C 
ATOM      8  C   LIG    1       -0.956  -2.221  -1.823  0.00  0.00    +0.055 C 
ATOM      9  C   LIG    1       -2.536  -2.673   0.062  0.00  0.00    +0.055 C 
ATOM     10  C   LIG    1       -0.067  -2.743   0.457  0.00  0.00    +0.044 C 
ATOM     11  C   LIG    1       -0.083  -4.251   0.203  0.00  0.00    +0.035 C 
ATOM     12  C   LIG    1        1.194  -4.856   0.729  0.00  0.00    -0.025 C 
ATOM     13  C   LIG    1        2.254  -4.179   1.039  0.00  0.00    -0.048 C 
ATOM     14  C   LIG    1        2.372  -2.687   0.899  0.00  0.00    +0.041 C 
ATOM     15  C   LIG    1        1.273  -2.174  -0.033  0.00  0.00    +0.037 C 
ATOM     16  C   LIG    1       -0.017   1.388   0.010  0.00  0.00    +0.050 A 
ENDROOT
BRANCH   1  17
ATOM     17  C   LIG    1        1.132   3.609   0.008  0.00  0.00    -0.010 C 
ATOM     18  C   LIG    1        0.411   4.099   1.265  0.00  0.00    +0.016 C 
ATOM     19  C   LIG    1        0.390   4.108  -1.233  0.00  0.00    +0.016 C 
BRANCH  17  20
ATOM     20  C   LIG    1        2.564   4.149  -0.002  0.00  0.00    +0.011 C 
BRANCH  20  21
ATOM     21  C   LIG    1        2.532   5.678   0.004  0.00  0.00    +0.001 C 
BRANCH  21  22
ATOM     22  C   LIG    1        3.963   6.218  -0.007  0.00  0.00    +0.000 C 
BRANCH  22  23
ATOM     23  C   LIG    1        3.931   7.748  -0.001  0.00  0.00    -0.000 C 
BRANCH  23  25
ATOM     24  C   LIG    1        5.331   9.818  -0.005  0.00  0.00    +0.004 C 
ATOM     25  C   LIG    1        5.363   8.288  -0.011  0.00  0.00    -0.003 C 
ENDBRANCH  23  25
ENDBRANCH  22  23
ENDBRANCH  21  22
ENDBRANCH  20  21
ENDBRANCH  17  20
ENDBRANCH   1  17
BRANCH   3  26
ATOM     26  O   LIG    1        3.592  -0.604  -0.031  0.00  0.00    -0.506 OA
ATOM     27  H   LIG    1        3.931  -0.788  -0.918  0.00  0.00    +0.292 HD
ENDBRANCH   3  26
BRANCH  13  28
ATOM     28  C   LIG    1        3.443  -4.934   1.573  0.00  0.00    +0.186 C 
BRANCH  28  29
ATOM     29  O   LIG    1        3.136  -6.328   1.630  0.00  0.00    -0.391 OA
ATOM     30  H   LIG    1        3.858  -6.877   1.966  0.00  0.00    +0.210 HD
ENDBRANCH  28  29
ENDBRANCH  13  28
TORSDOF 9
