REMARK  Name = ZINC03848612
REMARK                            x       y       z     vdW  Elec       q    Type
REMARK                         _______ _______ _______ _____ _____    ______ ____
ROOT
ATOM      1  C   LIG    1        4.826   0.289  -0.042  0.00  0.00    +0.059 A 
ATOM      2  C   LIG    1        3.670  -0.490  -0.043  0.00  0.00    +0.026 A 
ATOM      3  C   LIG    1        2.422   0.130  -0.026  0.00  0.00    +0.019 A 
ATOM      4  C   LIG    1        1.189  -0.663  -0.026  0.00  0.00    +0.018 A 
ATOM      5  C   LIG    1        0.002  -0.004  -0.010  0.00  0.00    +0.092 A 
ATOM      6  C   LIG    1       -0.017   1.407   0.007  0.00  0.00    +0.337 A 
ATOM      7  O   LIG    1        1.115   2.128   0.007  0.00  0.00    -0.422 OA
ATOM      8  O   LIG    1       -1.089   1.985   0.016  0.00  0.00    -0.245 OA
ATOM      9  C   LIG    1        2.329   1.538  -0.009  0.00  0.00    +0.143 A 
ATOM     10  C   LIG    1        3.484   2.306  -0.008  0.00  0.00    +0.093 A 
ATOM     11  C   LIG    1        4.725   1.695  -0.024  0.00  0.00    +0.131 A 
ENDROOT
BRANCH   1  13
ATOM     12  C   LIG    1        6.255  -1.852   0.045  0.00  0.00    +0.092 C 
ATOM     13  C   LIG    1        6.145  -0.352  -0.059  0.00  0.00    +0.164 C 
ATOM     14  O   LIG    1        7.147   0.324  -0.158  0.00  0.00    -0.292 OA
ENDBRANCH   1  13
BRANCH  11  15
ATOM     15  O   LIG    1        5.848   2.452  -0.024  0.00  0.00    -0.506 OA
ATOM     16  H   LIG    1        6.181   2.662   0.860  0.00  0.00    +0.292 HD
ENDBRANCH  11  15
TORSDOF 2
