REMARK  Name = ZINC03780014
REMARK                            x       y       z     vdW  Elec       q    Type
REMARK                         _______ _______ _______ _____ _____    ______ ____
ROOT
ATOM      1  C   LIG    1        1.461  -3.060   2.068  0.00  0.00    +0.163 C 
ENDROOT
BRANCH   1   2
ATOM      2  C   LIG    1        0.939  -3.702   3.327  0.00  0.00    +0.233 C 
ATOM      3  N   LIG    1        1.755  -4.459   4.087  0.00  0.00    -0.317 N 
ATOM      4  H   LIG    1        2.679  -4.590   3.823  0.00  0.00    +0.148 HD
ATOM      5  C   LIG    1        1.247  -5.084   5.311  0.00  0.00    +0.128 C 
ATOM      6  O   LIG    1       -0.217  -3.539   3.656  0.00  0.00    -0.274 OA
ENDBRANCH   1   2
BRANCH   1   8
ATOM      7  C   LIG    1       -0.044  -3.728   0.272  0.00  0.00    +0.217 C 
ATOM      8  N   LIG    1        0.346  -2.790   1.158  0.00  0.00    -0.303 N 
ATOM      9  H   LIG    1       -0.113  -1.936   1.193  0.00  0.00    +0.149 HD
ATOM     10  O   LIG    1        0.480  -4.822   0.278  0.00  0.00    -0.275 OA
BRANCH   7  11
ATOM     11  C   LIG    1       -1.129  -3.417  -0.726  0.00  0.00    +0.084 C 
BRANCH  11  12
ATOM     12  C   LIG    1       -2.469  -3.290   0.001  0.00  0.00    +0.016 C 
BRANCH  12  14
ATOM     13  C   LIG    1       -4.901  -2.796  -0.287  0.00  0.00    +0.007 C 
ATOM     14  C   LIG    1       -3.538  -2.804  -0.981  0.00  0.00    -0.016 C 
ATOM     15  C   LIG    1       -3.195  -1.388  -1.448  0.00  0.00    +0.007 C 
ENDBRANCH  12  14
ENDBRANCH  11  12
BRANCH  11  16
ATOM     16  C   LIG    1       -1.212  -4.545  -1.756  0.00  0.00    +0.110 C 
BRANCH  16  17
ATOM     17  C   LIG    1       -1.520  -3.965  -3.113  0.00  0.00    +0.236 C 
ATOM     18  N   LIG    1       -2.119  -4.725  -4.051  0.00  0.00    -0.197 N 
ATOM     19  H   LIG    1       -2.352  -5.645  -3.853  0.00  0.00    +0.182 HD
ATOM     20  O   LIG    1       -1.228  -2.814  -3.360  0.00  0.00    -0.274 OA
BRANCH  18  21
ATOM     21  O   LIG    1       -2.407  -4.180  -5.325  0.00  0.00    -0.295 OA
ATOM     22  H   LIG    1       -2.837  -4.800  -5.931  0.00  0.00    +0.241 HD
ENDBRANCH  18  21
ENDBRANCH  16  17
ENDBRANCH  11  16
ENDBRANCH   7  11
ENDBRANCH   1   8
BRANCH   1  23
ATOM     23  C   LIG    1        2.162  -1.746   2.420  0.00  0.00    +0.069 C 
BRANCH  23  24
ATOM     24  C   LIG    1        2.791  -1.165   1.179  0.00  0.00    -0.020 A 
ATOM     25  C   LIG    1        4.061  -1.328   0.777  0.00  0.00    +0.087 A 
ATOM     26  N   LIG    1        4.270  -0.652  -0.395  0.00  0.00    -0.360 N 
ATOM     27  C   LIG    1        3.110  -0.021  -0.784  0.00  0.00    +0.047 A 
ATOM     28  C   LIG    1        2.774   0.781  -1.869  0.00  0.00    +0.026 A 
ATOM     29  C   LIG    1        1.489   1.263  -1.992  0.00  0.00    +0.002 A 
ATOM     30  C   LIG    1        0.528   0.969  -1.035  0.00  0.00    +0.001 A 
ATOM     31  C   LIG    1        0.838   0.187   0.043  0.00  0.00    +0.010 A 
ATOM     32  H   LIG    1        5.110  -0.622  -0.878  0.00  0.00    +0.165 HD
ATOM     33  C   LIG    1        2.131  -0.320   0.182  0.00  0.00    +0.003 A 
ENDBRANCH  23  24
ENDBRANCH   1  23
TORSDOF 10
