REMARK  Name = ZINC03826943
REMARK                            x       y       z     vdW  Elec       q    Type
REMARK                         _______ _______ _______ _____ _____    ______ ____
ROOT
ATOM      1  C   LIG    1        2.335   1.412  -0.013  0.00  0.00    -0.042 A 
ATOM      2  C   LIG    1        2.408   0.030  -0.021  0.00  0.00    +0.021 A 
ATOM      3  C   LIG    1        1.213  -0.697  -0.013  0.00  0.00    +0.043 A 
ATOM      4  C   LIG    1        0.002  -0.004   0.002  0.00  0.00    +0.127 A 
ATOM      5  N   LIG    1       -0.016   1.313   0.009  0.00  0.00    -0.262 NA
ATOM      6  C   LIG    1        1.095   2.025   0.003  0.00  0.00    +0.112 A 
ENDROOT
BRANCH   1  10
ATOM      7  C   LIG    1        3.564   3.221  -2.250  0.00  0.00    -0.095 C 
ATOM      8  N   LIG    1        3.409   3.475  -0.782  0.00  0.00    +0.382 N 
ATOM      9  H   LIG    1        2.474   3.860  -0.604  0.00  0.00    -0.081 HD
ATOM     10  C   LIG    1        3.593   2.242  -0.021  0.00  0.00    -0.037 C 
ATOM     11  C   LIG    1        3.919   2.740   1.404  0.00  0.00    -0.013 C 
ATOM     12  C   LIG    1        4.474   4.167   1.212  0.00  0.00    -0.020 C 
ATOM     13  C   LIG    1        4.437   4.410  -0.312  0.00  0.00    -0.078 C 
ENDBRANCH   1  10
BRANCH   3  14
ATOM     14  C   LIG    1        1.232  -2.129  -0.022  0.00  0.00    -0.068 C 
ATOM     15  C   LIG    1        1.248  -3.303  -0.029  0.00  0.00    +0.009 C 
ENDBRANCH   3  14
TORSDOF 2
