REMARK  Name = ZINC03778381
REMARK                            x       y       z     vdW  Elec       q    Type
REMARK                         _______ _______ _______ _____ _____    ______ ____
ROOT
ATOM      1  N   LIG    1        1.093   1.873   0.002  0.00  0.00    -0.286 N 
ATOM      2  C   LIG    1       -0.013   1.076   0.008  0.00  0.00    +0.203 A 
ATOM      3  N   LIG    1       -1.089   1.808   0.017  0.00  0.00    -0.231 NA
ATOM      4  C   LIG    1       -0.743   3.118   0.026  0.00  0.00    +0.147 A 
ATOM      5  C   LIG    1       -1.456   4.328   0.039  0.00  0.00    +0.150 A 
ATOM      6  N   LIG    1       -0.771   5.467   0.038  0.00  0.00    -0.219 NA
ATOM      7  C   LIG    1        0.549   5.471   0.025  0.00  0.00    +0.225 A 
ATOM      8  N   LIG    1        1.259   4.362   0.013  0.00  0.00    -0.216 NA
ATOM      9  C   LIG    1        0.661   3.175   0.013  0.00  0.00    +0.167 A 
ENDROOT
BRANCH   1  14
ATOM     10  C   LIG    1        3.038   1.332   1.427  0.00  0.00    +0.198 C 
ATOM     11  C   LIG    1        3.947   0.080   1.401  0.00  0.00    +0.179 C 
ATOM     12  C   LIG    1        3.838  -0.433  -0.052  0.00  0.00    +0.177 C 
ATOM     13  O   LIG    1        2.574   0.076  -0.529  0.00  0.00    -0.346 OA
ATOM     14  C   LIG    1        2.487   1.422  -0.013  0.00  0.00    +0.254 C 
BRANCH  10  16
ATOM     15  C   LIG    1        3.774   2.848   3.131  0.00  0.00    +0.194 C 
ATOM     16  O   LIG    1        3.799   2.499   1.746  0.00  0.00    -0.373 OA
ENDBRANCH  10  16
BRANCH  11  17
ATOM     17  O   LIG    1        5.297   0.434   1.707  0.00  0.00    -0.386 OA
ATOM     18  H   LIG    1        5.920  -0.303   1.647  0.00  0.00    +0.210 HD
ENDBRANCH  11  17
BRANCH  12  19
ATOM     19  C   LIG    1        3.840  -1.963  -0.077  0.00  0.00    +0.190 C 
BRANCH  19  20
ATOM     20  O   LIG    1        3.782  -2.417  -1.431  0.00  0.00    -0.392 OA
ATOM     21  H   LIG    1        3.780  -3.380  -1.523  0.00  0.00    +0.210 HD
ENDBRANCH  19  20
ENDBRANCH  12  19
ENDBRANCH   1  14
BRANCH   5  22
ATOM     22  N   LIG    1       -2.840   4.334   0.053  0.00  0.00    -0.324 N 
ATOM     23  H   LIG    1       -3.183   3.869  -0.762  0.00  0.00    +0.148 HD
BRANCH  22  24
ATOM     24  C   LIG    1       -3.567   5.606   0.068  0.00  0.00    +0.072 C 
ATOM     25  C   LIG    1       -3.696   6.104   1.509  0.00  0.00    +0.022 C 
ATOM     26  C   LIG    1       -4.455   7.432   1.524  0.00  0.00    +0.002 C 
ATOM     27  C   LIG    1       -5.849   7.229   0.927  0.00  0.00    +0.000 C 
ATOM     28  C   LIG    1       -5.720   6.732  -0.514  0.00  0.00    +0.002 C 
ATOM     29  C   LIG    1       -4.961   5.404  -0.529  0.00  0.00    +0.022 C 
ENDBRANCH  22  24
ENDBRANCH   5  22
TORSDOF 7
