REMARK  Name = ZINC03671450
REMARK                            x       y       z     vdW  Elec       q    Type
REMARK                         _______ _______ _______ _____ _____    ______ ____
ROOT
ATOM      1  C   LIG    1       -1.270  -0.766   0.011  0.00  0.00    +0.080 A 
ATOM      2  C   LIG    1       -2.466  -0.112  -0.082  0.00  0.00    +0.076 A 
ATOM      3  S   LIG    1       -3.605  -1.490  -0.023  0.00  0.00    -0.060 S 
ATOM      4  C   LIG    1       -2.383  -2.786   0.118  0.00  0.00    +0.161 A 
ATOM      5  N   LIG    1       -1.259  -2.094   0.103  0.00  0.00    -0.225 NA
ENDROOT
BRANCH   1  12
ATOM      6  C   LIG    1       -0.017   1.390   0.010  0.00  0.00    +0.011 A 
ATOM      7  C   LIG    1        1.170   2.093   0.002  0.00  0.00    +0.016 A 
ATOM      8  C   LIG    1        2.378   1.418  -0.013  0.00  0.00    +0.018 A 
ATOM      9 BR   LIG    1        4.001   2.389  -0.024  0.00  0.00    -0.050 Br
ATOM     10  C   LIG    1        2.402   0.034  -0.022  0.00  0.00    +0.016 A 
ATOM     11  C   LIG    1        1.221  -0.680  -0.014  0.00  0.00    +0.011 A 
ATOM     12  C   LIG    1        0.002  -0.004   0.002  0.00  0.00    +0.001 A 
ENDBRANCH   1  12
BRANCH   4  13
ATOM     13  N   LIG    1       -2.567  -4.156   0.213  0.00  0.00    -0.310 N 
ATOM     14  C   LIG    1       -1.414  -5.060   0.329  0.00  0.00    +0.108 C 
ATOM     15  C   LIG    1       -1.609  -5.952   1.560  0.00  0.00    +0.033 C 
ATOM     16  C   LIG    1       -2.959  -6.665   1.459  0.00  0.00    +0.101 C 
ATOM     17  C   LIG    1       -4.084  -5.629   1.430  0.00  0.00    +0.033 C 
ATOM     18  C   LIG    1       -3.918  -4.733   0.205  0.00  0.00    +0.108 C 
BRANCH  16  19
ATOM     19  C   LIG    1       -3.139  -7.569   2.651  0.00  0.00    +0.308 C 
ATOM     20  O   LIG    1       -4.257  -7.798   3.079  0.00  0.00    -0.251 OA
BRANCH  19  21
ATOM     21  O   LIG    1       -2.166  -8.072   3.187  0.00  0.00    -0.480 OA
ATOM     22  H   LIG    1       -1.306  -7.896   2.858  0.00  0.00    +0.295 HD
ENDBRANCH  19  21
ENDBRANCH  16  19
ENDBRANCH   4  13
TORSDOF 4
