REMARK  Name = ZINC03816287
REMARK                            x       y       z     vdW  Elec       q    Type
REMARK                         _______ _______ _______ _____ _____    ______ ____
ROOT
ATOM      1  C   LIG    1       -5.186  -3.228   0.036  0.00  0.00    +0.015 A 
ATOM      2  C   LIG    1       -4.884  -4.588   0.112  0.00  0.00    +0.016 A 
ATOM      3  C   LIG    1       -5.880  -5.519   0.120  0.00  0.00    +0.013 A 
ATOM      4  C   LIG    1       -7.215  -5.112   0.050  0.00  0.00    +0.027 A 
ATOM      5  C   LIG    1       -7.529  -3.743  -0.027  0.00  0.00    +0.067 A 
ATOM      6  N   LIG    1       -8.897  -3.648  -0.083  0.00  0.00    -0.276 N 
ATOM      7  N   LIG    1       -9.452  -4.930  -0.042  0.00  0.00    -0.173 NA
ATOM      8  H   LIG    1       -9.399  -2.820  -0.141  0.00  0.00    +0.189 HD
ATOM      9  C   LIG    1       -8.497  -5.830   0.036  0.00  0.00    +0.093 A 
ATOM     10  C   LIG    1       -6.501  -2.804  -0.028  0.00  0.00    +0.042 A 
ENDROOT
BRANCH   9  11
ATOM     11  C   LIG    1       -8.678  -7.288   0.099  0.00  0.00    +0.032 C 
ATOM     12  C   LIG    1       -9.916  -7.813   0.078  0.00  0.00    +0.030 C 
BRANCH  12  13
ATOM     13  C   LIG    1      -10.098  -9.273   0.141  0.00  0.00    +0.064 A 
ATOM     14  C   LIG    1      -11.386  -9.814   0.112  0.00  0.00    +0.028 A 
ATOM     15  C   LIG    1      -11.539 -11.187   0.172  0.00  0.00    +0.004 A 
ATOM     16  C   LIG    1      -10.401 -11.978   0.258  0.00  0.00    +0.020 A 
ATOM     17  C   LIG    1       -9.156 -11.378   0.281  0.00  0.00    +0.111 A 
ATOM     18  N   LIG    1       -9.034 -10.068   0.219  0.00  0.00    -0.256 NA
ENDBRANCH  12  13
ENDBRANCH   9  11
BRANCH   1  19
ATOM     19  S   LIG    1       -3.883  -2.041   0.028  0.00  0.00    -0.089 S 
BRANCH  19  25
ATOM     20  C   LIG    1       -2.704  -0.722  -2.077  0.00  0.00    +0.050 A 
ATOM     21  C   LIG    1       -2.491  -0.484  -3.438  0.00  0.00    +0.014 A 
ATOM     22  C   LIG    1       -3.168  -1.225  -4.380  0.00  0.00    +0.001 A 
ATOM     23  C   LIG    1       -4.063  -2.209  -3.987  0.00  0.00    +0.001 A 
ATOM     24  C   LIG    1       -4.286  -2.456  -2.649  0.00  0.00    +0.016 A 
ATOM     25  C   LIG    1       -3.607  -1.722  -1.683  0.00  0.00    +0.025 A 
BRANCH  20  29
ATOM     26  C   LIG    1       -0.401   1.813  -0.440  0.00  0.00    +0.128 C 
ATOM     27  N   LIG    1       -1.118   1.028  -1.448  0.00  0.00    -0.314 N 
ATOM     28  H   LIG    1       -0.970   1.198  -2.391  0.00  0.00    +0.149 HD
ATOM     29  C   LIG    1       -1.983   0.069  -1.064  0.00  0.00    +0.245 C 
ATOM     30  O   LIG    1       -2.168  -0.145   0.119  0.00  0.00    -0.270 OA
ENDBRANCH  20  29
ENDBRANCH  19  25
ENDBRANCH   1  19
TORSDOF 5
