REMARK  Name = ZINC03869685
REMARK                            x       y       z     vdW  Elec       q    Type
REMARK                         _______ _______ _______ _____ _____    ______ ____
ROOT
ATOM      1  C   LIG    1       -1.262  -0.760   0.010  0.00  0.00    +0.181 A 
ATOM      2  C   LIG    1       -2.459  -0.076   0.124  0.00  0.00    +0.203 A 
ATOM      3  C   LIG    1       -3.666  -0.787   0.132  0.00  0.00    +0.176 A 
ATOM      4  C   LIG    1       -3.617  -2.194   0.022  0.00  0.00    +0.104 A 
ATOM      5  C   LIG    1       -4.802  -2.959   0.024  0.00  0.00    +0.135 A 
ATOM      6  C   LIG    1       -4.733  -4.318  -0.084  0.00  0.00    +0.097 A 
ATOM      7  C   LIG    1       -3.487  -4.957  -0.198  0.00  0.00    +0.186 A 
ATOM      8  C   LIG    1       -2.305  -4.209  -0.202  0.00  0.00    +0.098 A 
ATOM      9  O   LIG    1       -3.431  -6.286  -0.303  0.00  0.00    -0.288 OA
ATOM     10  C   LIG    1       -2.362  -2.833  -0.092  0.00  0.00    +0.147 A 
ATOM     11  O   LIG    1       -1.229  -2.099  -0.100  0.00  0.00    -0.451 OA
ENDROOT
BRANCH   1  17
ATOM     12  C   LIG    1        0.139   1.125  -0.812  0.00  0.00    +0.015 A 
ATOM     13  C   LIG    1        1.323   1.830  -0.818  0.00  0.00    +0.050 A 
ATOM     14  C   LIG    1        2.381   1.423  -0.017  0.00  0.00    +0.158 A 
ATOM     15  C   LIG    1        2.252   0.298   0.797  0.00  0.00    +0.159 A 
ATOM     16  C   LIG    1        1.069  -0.414   0.809  0.00  0.00    +0.060 A 
ATOM     17  C   LIG    1        0.002  -0.004   0.002  0.00  0.00    +0.025 A 
BRANCH  14  18
ATOM     18  O   LIG    1        3.546   2.123  -0.027  0.00  0.00    -0.503 OA
ATOM     19  H   LIG    1        3.583   2.835   0.626  0.00  0.00    +0.292 HD
ENDBRANCH  14  18
BRANCH  15  20
ATOM     20  O   LIG    1        3.292  -0.097   1.579  0.00  0.00    -0.503 OA
ATOM     21  H   LIG    1        3.292   0.298   2.462  0.00  0.00    +0.292 HD
ENDBRANCH  15  20
ENDBRANCH   1  17
BRANCH   2  22
ATOM     22  O   LIG    1       -2.464   1.280   0.229  0.00  0.00    -0.501 OA
ATOM     23  H   LIG    1       -3.348   1.666   0.305  0.00  0.00    +0.292 HD
ENDBRANCH   2  22
BRANCH   3  24
ATOM     24  O   LIG    1       -4.848  -0.142   0.244  0.00  0.00    -0.503 OA
ATOM     25  H   LIG    1       -4.868   0.792   0.316  0.00  0.00    +0.292 HD
ENDBRANCH   3  24
BRANCH   5  26
ATOM     26  O   LIG    1       -6.007  -2.346   0.134  0.00  0.00    -0.506 OA
ATOM     27  H   LIG    1       -6.760  -2.954   0.126  0.00  0.00    +0.292 HD
ENDBRANCH   5  26
TORSDOF 6
