REMARK  Name = ZINC03818726
REMARK                            x       y       z     vdW  Elec       q    Type
REMARK                         _______ _______ _______ _____ _____    ______ ____
ROOT
ATOM      1  C   LIG    1        2.624  -3.189   0.323  0.00  0.00    +0.109 A 
ATOM      2  C   LIG    1        1.292  -3.158   0.696  0.00  0.00    +0.029 A 
ATOM      3  C   LIG    1        0.407  -4.105   0.212  0.00  0.00    +0.002 A 
ATOM      4  C   LIG    1        0.848  -5.090  -0.647  0.00  0.00    +0.008 A 
ATOM      5  C   LIG    1        2.192  -5.128  -1.030  0.00  0.00    -0.023 A 
ATOM      6  C   LIG    1        3.079  -4.164  -0.540  0.00  0.00    +0.036 A 
ENDROOT
BRANCH   1   7
ATOM      7  S   LIG    1        3.740  -1.977   0.946  0.00  0.00    +0.072 S 
ATOM      8  O   LIG    1        3.248  -1.589   2.221  0.00  0.00    -0.150 OA
ATOM      9  O   LIG    1        5.050  -2.497   0.761  0.00  0.00    -0.150 OA
BRANCH   7  10
ATOM     10  N   LIG    1        3.617  -0.648  -0.034  0.00  0.00    -0.216 N 
ATOM     11  H   LIG    1        3.319   0.199   0.333  0.00  0.00    +0.174 HD
BRANCH  10  15
ATOM     12  C   LIG    1        4.584  -0.940  -4.073  0.00  0.00    +0.000 A 
ATOM     13  C   LIG    1        3.421  -0.299  -3.687  0.00  0.00    +0.002 A 
ATOM     14  C   LIG    1        3.097  -0.200  -2.348  0.00  0.00    +0.024 A 
ATOM     15  C   LIG    1        3.941  -0.746  -1.389  0.00  0.00    +0.048 A 
ATOM     16  C   LIG    1        5.108  -1.389  -1.780  0.00  0.00    +0.024 A 
ATOM     17  C   LIG    1        5.426  -1.485  -3.121  0.00  0.00    +0.002 A 
ENDBRANCH  10  15
ENDBRANCH   7  10
ENDBRANCH   1   7
BRANCH   5  18
ATOM     18  C   LIG    1        2.671  -6.176  -1.947  0.00  0.00    +0.013 C 
ATOM     19  C   LIG    1        1.812  -7.101  -2.420  0.00  0.00    +0.070 C 
BRANCH  19  20
ATOM     20  C   LIG    1        2.288  -8.143  -3.332  0.00  0.00    +0.259 C 
ATOM     21  N   LIG    1        1.430  -9.068  -3.805  0.00  0.00    -0.194 N 
ATOM     22  H   LIG    1        0.497  -9.043  -3.542  0.00  0.00    +0.183 HD
ATOM     23  O   LIG    1        3.459  -8.174  -3.663  0.00  0.00    -0.269 OA
BRANCH  21  24
ATOM     24  O   LIG    1        1.890 -10.075  -4.687  0.00  0.00    -0.295 OA
ATOM     25  H   LIG    1        1.203 -10.693  -4.973  0.00  0.00    +0.241 HD
ENDBRANCH  21  24
ENDBRANCH  19  20
ENDBRANCH   5  18
TORSDOF 6
