REMARK  Name = ZINC03871391
REMARK                            x       y       z     vdW  Elec       q    Type
REMARK                         _______ _______ _______ _____ _____    ______ ____
ROOT
ATOM      1  C   UNK A  0        2.511  -4.870   4.242  0.00  0.00    +0.217 C 
ATOM      2  N   VAL A  1        3.099  -6.043   3.935  0.00  0.00    -0.304 N 
ATOM      3  H   VAL A  1        3.015  -6.409   3.041  0.00  0.00    +0.149 HD
ATOM      4  O   UNK A  0        2.616  -4.413   5.360  0.00  0.00    -0.275 OA
ENDROOT
BRANCH   1   5
ATOM      5  C   UNK A  0        1.722  -4.127   3.196  0.00  0.00    +0.084 C 
BRANCH   5   6
ATOM      6  C   UNK A  0        1.164  -2.836   3.799  0.00  0.00    +0.013 C 
BRANCH   6   7
ATOM      7  C   UNK A  0        2.316  -1.879   4.110  0.00  0.00    +0.001 C 
BRANCH   7   8
ATOM      8  C   UNK A  0        1.751  -0.541   4.593  0.00  0.00    -0.000 C 
BRANCH   8  10
ATOM      9  C   UNK A  0        2.339   1.754   5.388  0.00  0.00    +0.004 C 
ATOM     10  C   UNK A  0        2.903   0.416   4.904  0.00  0.00    -0.003 C 
ENDBRANCH   8  10
ENDBRANCH   7   8
ENDBRANCH   6   7
ENDBRANCH   5   6
BRANCH   5  11
ATOM     11  C   UNK A  0        0.566  -5.004   2.709  0.00  0.00    +0.110 C 
BRANCH  11  12
ATOM     12  C   UNK A  0       -0.114  -4.337   1.542  0.00  0.00    +0.236 C 
ATOM     13  N   UNK A  0       -1.154  -4.940   0.933  0.00  0.00    -0.197 N 
ATOM     14  H   UNK A  0       -1.464  -5.804   1.246  0.00  0.00    +0.182 HD
ATOM     15  O   UNK A  0        0.275  -3.256   1.150  0.00  0.00    -0.274 OA
BRANCH  13  16
ATOM     16  O   UNK A  0       -1.793  -4.313  -0.165  0.00  0.00    -0.295 OA
ATOM     17  H   UNK A  0       -2.527  -4.822  -0.535  0.00  0.00    +0.241 HD
ENDBRANCH  13  16
ENDBRANCH  11  12
ENDBRANCH   5  11
ENDBRANCH   1   5
BRANCH   2  18
ATOM     18  CA  VAL A  1        3.866  -6.766   4.953  0.00  0.00    +0.162 C 
BRANCH  18  19
ATOM     19  C   VAL A  1        4.886  -7.649   4.280  0.00  0.00    +0.236 C 
ATOM     20  N   PRO A  2        6.006  -8.007   4.939  0.00  0.00    -0.295 N 
ATOM     21  CD  PRO A  2        6.312  -7.696   6.347  0.00  0.00    +0.108 C 
ATOM     22  CG  PRO A  2        7.319  -8.788   6.785  0.00  0.00    +0.021 C 
ATOM     23  CB  PRO A  2        8.165  -8.966   5.496  0.00  0.00    +0.026 C 
ATOM     24  CA  PRO A  2        7.124  -8.777   4.373  0.00  0.00    +0.101 C 
ATOM     25  O   VAL A  1        4.699  -8.037   3.147  0.00  0.00    -0.274 OA
BRANCH  24  26
ATOM     26  C   PRO A  2        7.751  -8.006   3.210  0.00  0.00    +0.178 C 
BRANCH  26  27
ATOM     27  O   PRO A  2        8.340  -6.800   3.700  0.00  0.00    -0.393 OA
ATOM     28  H   PRO A  2        8.758  -6.259   3.016  0.00  0.00    +0.209 HD
ENDBRANCH  26  27
ENDBRANCH  24  26
ENDBRANCH  18  19
BRANCH  18  29
ATOM     29  CB  VAL A  1        2.919  -7.628   5.789  0.00  0.00    +0.012 C 
ATOM     30  CG2 VAL A  1        2.111  -8.542   4.865  0.00  0.00    +0.009 C 
ATOM     31  CG1 VAL A  1        1.965  -6.724   6.573  0.00  0.00    +0.009 C 
ENDBRANCH  18  29
ENDBRANCH   2  18
TORSDOF 13
