REMARK  Name = ZINC03785745
REMARK                            x       y       z     vdW  Elec       q    Type
REMARK                         _______ _______ _______ _____ _____    ______ ____
ROOT
ATOM      1  C   LIG    1       -2.960   2.497   2.458  0.00  0.00    -0.095 C 
ATOM      2  N   LIG    1       -1.616   2.378   1.799  0.00  0.00    +0.382 N 
ATOM      3  H   LIG    1       -0.945   1.991   2.472  0.00  0.00    -0.081 HD
ATOM      4  C   LIG    1       -1.152   3.686   1.321  0.00  0.00    -0.054 C 
ATOM      5  C   LIG    1        0.336   3.520   0.975  0.00  0.00    +0.092 C 
ATOM      6  C   LIG    1        0.469   2.503  -0.163  0.00  0.00    +0.030 C 
ATOM      7  C   LIG    1       -0.241   1.202   0.221  0.00  0.00    -0.007 C 
ATOM      8  C   LIG    1       -1.927   3.882  -0.002  0.00  0.00    -0.016 C 
ATOM      9  C   LIG    1       -2.288   2.441  -0.475  0.00  0.00    -0.017 C 
ATOM     10  C   LIG    1       -1.691   1.526   0.619  0.00  0.00    -0.068 C 
ENDROOT
BRANCH   6  11
ATOM     11  C   LIG    1        1.928   2.222  -0.415  0.00  0.00    -0.044 A 
ATOM     12  C   LIG    1        2.553   2.758  -1.525  0.00  0.00    +0.005 A 
ATOM     13  C   LIG    1        3.893   2.504  -1.754  0.00  0.00    +0.014 A 
ATOM     14  C   LIG    1        4.605   1.706  -0.878  0.00  0.00    +0.013 A 
ATOM     15  I   LIG    1        6.632   1.313  -1.229  0.00  0.00    -0.044 I 
ATOM     16  C   LIG    1        3.978   1.165   0.230  0.00  0.00    +0.014 A 
ATOM     17  C   LIG    1        2.640   1.424   0.461  0.00  0.00    +0.005 A 
ENDBRANCH   6  11
BRANCH   5  18
ATOM     18  C   LIG    1        1.084   3.024   2.185  0.00  0.00    +0.309 C 
ATOM     19  O   LIG    1        0.646   2.100   2.829  0.00  0.00    -0.251 OA
BRANCH  18  20
ATOM     20  O   LIG    1        2.236   3.609   2.548  0.00  0.00    -0.468 OA
ATOM     21  C   LIG    1        2.902   3.080   3.725  0.00  0.00    +0.280 C 
ENDBRANCH  18  20
ENDBRANCH   5  18
TORSDOF 3
