REMARK  Name = ZINC03814480
REMARK                            x       y       z     vdW  Elec       q    Type
REMARK                         _______ _______ _______ _____ _____    ______ ____
ROOT
ATOM      1  C   LIG    1       -1.231   1.758   0.017  0.00  0.00    +0.044 A 
ATOM      2  C   LIG    1       -0.013   1.076   0.008  0.00  0.00    +0.062 A 
ATOM      3  C   LIG    1        1.175   1.784   0.000  0.00  0.00    +0.163 A 
ATOM      4  C   LIG    1        1.157   3.176   0.008  0.00  0.00    +0.201 A 
ATOM      5  C   LIG    1       -0.057   3.859   0.023  0.00  0.00    +0.163 A 
ATOM      6  C   LIG    1       -1.247   3.155   0.030  0.00  0.00    +0.062 A 
ENDROOT
BRANCH   1   9
ATOM      7  N   LIG    1       -3.676   1.665   0.029  0.00  0.00    -0.311 N 
ATOM      8  H   LIG    1       -3.688   2.635   0.034  0.00  0.00    +0.149 HD
ATOM      9  C   LIG    1       -2.501   1.005   0.019  0.00  0.00    +0.244 C 
ATOM     10  O   LIG    1       -2.486  -0.211   0.013  0.00  0.00    -0.270 OA
BRANCH   7  11
ATOM     11  C   LIG    1       -4.936   0.917   0.030  0.00  0.00    +0.104 C 
BRANCH  11  13
ATOM     12  C   LIG    1       -7.426   1.116   0.043  0.00  0.00    +0.005 C 
ATOM     13  C   LIG    1       -6.111   1.897   0.041  0.00  0.00    +0.015 C 
ENDBRANCH  11  13
ENDBRANCH   7  11
ENDBRANCH   1   9
BRANCH   3  14
ATOM     14  O   LIG    1        2.361   1.120  -0.015  0.00  0.00    -0.503 OA
ATOM     15  H   LIG    1        2.696   0.933  -0.902  0.00  0.00    +0.292 HD
ENDBRANCH   3  14
BRANCH   4  16
ATOM     16  O   LIG    1        2.325   3.870   0.000  0.00  0.00    -0.501 OA
ATOM     17  H   LIG    1        2.655   4.075  -0.885  0.00  0.00    +0.292 HD
ENDBRANCH   4  16
BRANCH   5  18
ATOM     18  O   LIG    1       -0.071   5.218   0.030  0.00  0.00    -0.503 OA
ATOM     19  H   LIG    1       -0.084   5.616  -0.851  0.00  0.00    +0.292 HD
ENDBRANCH   5  18
TORSDOF 6
