REMARK  Name = ZINC03812994
REMARK                            x       y       z     vdW  Elec       q    Type
REMARK                         _______ _______ _______ _____ _____    ______ ____
ROOT
ATOM      1  C   LIG    1        4.653  -1.085   2.918  0.00  0.00    +0.138 C 
ATOM      2  N   LIG    1        4.375  -0.535   1.589  0.00  0.00    -0.272 N 
ATOM      3  C   LIG    1        3.356  -1.122   0.855  0.00  0.00    +0.045 A 
ATOM      4  C   LIG    1        3.254  -2.514   0.897  0.00  0.00    +0.026 A 
ATOM      5  C   LIG    1        2.265  -3.168   0.196  0.00  0.00    +0.034 A 
ATOM      6  C   LIG    1        1.358  -2.446  -0.562  0.00  0.00    +0.122 A 
ATOM      7  C   LIG    1        1.444  -1.074  -0.617  0.00  0.00    +0.044 A 
ATOM      8  C   LIG    1        2.446  -0.394   0.097  0.00  0.00    +0.024 A 
ATOM      9  C   LIG    1        2.480   1.073  -0.015  0.00  0.00    +0.078 C 
ATOM     10  N   LIG    1        3.550   1.778  -0.121  0.00  0.00    -0.273 NA
ATOM     11  C   LIG    1        4.879   1.167  -0.140  0.00  0.00    +0.238 C 
ATOM     12  C   LIG    1        5.122   0.488   1.181  0.00  0.00    +0.241 C 
ATOM     13  O   LIG    1        6.021   0.884   1.892  0.00  0.00    -0.273 OA
ENDROOT
BRANCH   9  14
ATOM     14  C   LIG    1        1.185   1.791   0.000  0.00  0.00    +0.036 A 
ATOM     15  C   LIG    1        0.758   2.491  -1.129  0.00  0.00    +0.013 A 
ATOM     16  C   LIG    1       -0.446   3.162  -1.106  0.00  0.00    +0.001 A 
ATOM     17  C   LIG    1       -1.238   3.135   0.029  0.00  0.00    +0.003 A 
ATOM     18  C   LIG    1       -0.823   2.443   1.152  0.00  0.00    +0.039 A 
ATOM     19  C   LIG    1        0.386   1.770   1.146  0.00  0.00    +0.133 A 
ATOM     20  F   LIG    1        0.791   1.096   2.244  0.00  0.00    -0.205 F 
ENDBRANCH   9  14
BRANCH   6  21
ATOM     21  N   LIG    1        0.295  -3.151  -1.314  0.00  0.00    +0.006 N 
ATOM     22  O   LIG    1        0.219  -4.366  -1.265  0.00  0.00    -0.130 OA
BRANCH  21  23
ATOM     23  O   LIG    1       -0.502  -2.517  -1.980  0.00  0.00    -0.396 OA
ATOM     24  H   LIG    1       -0.444  -1.582  -2.018  0.00  0.00    +0.329 HD
ENDBRANCH  21  23
ENDBRANCH   6  21
TORSDOF 3
