REMARK  Name = ZINC03809445
REMARK                            x       y       z     vdW  Elec       q    Type
REMARK                         _______ _______ _______ _____ _____    ______ ____
ROOT
ATOM      1  O   LIG    1        3.021  -2.055   1.847  0.00  0.00    -0.373 OA
ENDROOT
BRANCH   1   3
ATOM      2  C   LIG    1        3.711  -0.707  -0.038  0.00  0.00    -0.012 C 
ATOM      3  C   LIG    1        4.049  -1.180   1.378  0.00  0.00    +0.109 C 
ATOM      4  C   LIG    1        5.386  -1.927   1.355  0.00  0.00    +0.028 C 
ATOM      5  C   LIG    1        5.294  -3.088   0.361  0.00  0.00    -0.017 C 
ATOM      6  C   LIG    1        4.910  -2.545  -1.016  0.00  0.00    -0.082 C 
ATOM      7  N   LIG    1        3.611  -1.866  -0.933  0.00  0.00    +0.385 N 
ATOM      8  H   LIG    1        3.336  -1.556  -1.853  0.00  0.00    -0.085 HD
ATOM      9  H   LIG    1        2.919  -2.507  -0.576  0.00  0.00    -0.085 HD
BRANCH   2  13
ATOM     10  C   LIG    1       -0.017   1.378   0.010  0.00  0.00    +0.000 A 
ATOM     11  C   LIG    1        1.171   2.086   0.002  0.00  0.00    +0.000 A 
ATOM     12  C   LIG    1        2.377   1.411  -0.013  0.00  0.00    +0.002 A 
ATOM     13  C   LIG    1        2.396   0.029  -0.020  0.00  0.00    -0.059 A 
ATOM     14  C   LIG    1        1.208  -0.679  -0.012  0.00  0.00    +0.002 A 
ATOM     15  C   LIG    1        0.002  -0.004   0.002  0.00  0.00    +0.000 A 
ENDBRANCH   2  13
ENDBRANCH   1   3
BRANCH   1  16
ATOM     16  C   LIG    1        2.834  -2.026   3.263  0.00  0.00    +0.195 C 
BRANCH  16  17
ATOM     17  C   LIG    1        1.732  -2.980   3.644  0.00  0.00    -0.021 A 
ATOM     18  C   LIG    1        0.422  -2.541   3.689  0.00  0.00    +0.018 A 
ATOM     19  C   LIG    1       -0.589  -3.417   4.039  0.00  0.00    +0.056 A 
ATOM     20  C   LIG    1       -0.289  -4.732   4.343  0.00  0.00    +0.024 A 
ATOM     21  C   LIG    1        1.021  -5.171   4.298  0.00  0.00    +0.056 A 
ATOM     22  C   LIG    1        2.031  -4.296   3.944  0.00  0.00    +0.018 A 
BRANCH  19  23
ATOM     23  C   LIG    1       -2.017  -2.939   4.089  0.00  0.00    +0.417 C 
ATOM     24  F   LIG    1       -2.042  -1.581   4.426  0.00  0.00    -0.166 F 
ATOM     25  F   LIG    1       -2.721  -3.671   5.050  0.00  0.00    -0.166 F 
ATOM     26  F   LIG    1       -2.613  -3.119   2.836  0.00  0.00    -0.166 F 
ENDBRANCH  19  23
BRANCH  21  27
ATOM     27  C   LIG    1        1.347  -6.604   4.630  0.00  0.00    +0.417 C 
ATOM     28  F   LIG    1        2.221  -6.643   5.721  0.00  0.00    -0.166 F 
ATOM     29  F   LIG    1        1.953  -7.213   3.525  0.00  0.00    -0.166 F 
ATOM     30  F   LIG    1        0.170  -7.288   4.951  0.00  0.00    -0.166 F 
ENDBRANCH  21  27
ENDBRANCH  16  17
ENDBRANCH   1  16
TORSDOF 6
