REMARK  Name = ZINC03786875
REMARK                            x       y       z     vdW  Elec       q    Type
REMARK                         _______ _______ _______ _____ _____    ______ ____
ROOT
ATOM      1  C   LIG    1       -2.084   5.832  -3.145  0.00  0.00    +0.229 C 
ENDROOT
BRANCH   1   2
ATOM      2  O   LIG    1       -1.230   4.771  -3.578  0.00  0.00    -0.488 OA
BRANCH   2   6
ATOM      3  C   LIG    1       -0.461   1.755  -0.860  0.00  0.00    +0.041 A 
ATOM      4  C   LIG    1       -1.287   2.825  -0.507  0.00  0.00    +0.017 A 
ATOM      5  C   LIG    1       -1.540   3.829  -1.417  0.00  0.00    +0.050 A 
ATOM      6  C   LIG    1       -0.977   3.780  -2.685  0.00  0.00    +0.162 A 
ATOM      7  C   LIG    1       -0.156   2.712  -3.045  0.00  0.00    +0.162 A 
ATOM      8  C   LIG    1        0.107   1.706  -2.135  0.00  0.00    +0.062 A 
BRANCH   3  10
ATOM      9  N   LIG    1       -0.075   0.970   1.425  0.00  0.00    -0.292 N 
ATOM     10  C   LIG    1       -0.189   0.679   0.113  0.00  0.00    +0.247 C 
ATOM     11  O   LIG    1       -0.068  -0.469  -0.268  0.00  0.00    -0.270 OA
BRANCH   9  13
ATOM     12  C   LIG    1       -0.473   3.382   1.486  0.00  0.00    +0.028 C 
ATOM     13  C   LIG    1       -0.911   2.016   2.018  0.00  0.00    +0.070 C 
ATOM     14  C   LIG    1       -2.375   1.770   1.649  0.00  0.00    +0.028 C 
ENDBRANCH   9  13
BRANCH   9  15
ATOM     15  C   LIG    1        0.885   0.239   2.256  0.00  0.00    +0.070 C 
ATOM     16  C   LIG    1        0.156  -0.384   3.449  0.00  0.00    +0.028 C 
ATOM     17  C   LIG    1        1.960   1.203   2.762  0.00  0.00    +0.028 C 
ENDBRANCH   9  15
ENDBRANCH   3  10
BRANCH   7  18
ATOM     18  O   LIG    1        0.391   2.664  -4.289  0.00  0.00    -0.491 OA
ATOM     19  C   LIG    1        1.222   1.541  -4.590  0.00  0.00    +0.277 C 
ENDBRANCH   7  18
ENDBRANCH   2   6
ENDBRANCH   1   2
BRANCH   1  20
ATOM     20  C   LIG    1       -2.251   6.846  -4.278  0.00  0.00    +0.041 C 
BRANCH  20  21
ATOM     21  C   LIG    1       -3.166   7.982  -3.814  0.00  0.00    +0.007 C 
BRANCH  21  22
ATOM     22  C   LIG    1       -3.333   8.996  -4.947  0.00  0.00    +0.041 C 
BRANCH  22  23
ATOM     23  C   LIG    1       -4.248  10.132  -4.484  0.00  0.00    +0.229 C 
BRANCH  23  24
ATOM     24  O   LIG    1       -4.404  11.080  -5.542  0.00  0.00    -0.492 OA
BRANCH  24  25
ATOM     25  C   LIG    1       -5.191  12.157  -5.293  0.00  0.00    +0.121 A 
ATOM     26  C   LIG    1       -5.806  12.295  -4.055  0.00  0.00    +0.046 A 
ATOM     27  C   LIG    1       -6.602  13.390  -3.797  0.00  0.00    +0.019 A 
ATOM     28  C   LIG    1       -6.798  14.356  -4.785  0.00  0.00    +0.061 A 
ATOM     29  C   LIG    1       -6.184  14.211  -6.030  0.00  0.00    +0.019 A 
ATOM     30  C   LIG    1       -5.385  13.116  -6.279  0.00  0.00    +0.046 A 
BRANCH  28  31
ATOM     31  C   LIG    1       -7.656  15.530  -4.514  0.00  0.00    +0.266 C 
ATOM     32  N   LIG    1       -7.801  16.410  -5.494  0.00  0.00    -0.288 N 
ATOM     33  H   LIG    1       -7.328  16.260  -6.393  0.00  0.00    +0.301 HD
ATOM     34  H   LIG    1       -8.382  17.237  -5.355  0.00  0.00    +0.301 HD
BRANCH  31  35
ATOM     35  N   LIG    1       -8.262  15.671  -3.284  0.00  0.00    -0.250 N 
ATOM     36  H   LIG    1       -8.824  16.442  -3.106  0.00  0.00    +0.288 HD
ATOM     37  H   LIG    1       -8.126  15.001  -2.597  0.00  0.00    +0.288 HD
ENDBRANCH  31  35
ENDBRANCH  28  31
ENDBRANCH  24  25
ENDBRANCH  23  24
ENDBRANCH  22  23
ENDBRANCH  21  22
ENDBRANCH  20  21
ENDBRANCH   1  20
TORSDOF 14
