REMARK  Name = ZINC03864891
REMARK                            x       y       z     vdW  Elec       q    Type
REMARK                         _______ _______ _______ _____ _____    ______ ____
ROOT
ATOM      1  C   LIG    1        0.920   5.034   0.020  0.00  0.00    +0.019 C 
ATOM      2  C   LIG    1        2.259   5.260   0.008  0.00  0.00    +0.053 C 
ENDROOT
BRANCH   1   5
ATOM      3  C   LIG    1       -1.090   1.905   0.017  0.00  0.00    +0.008 A 
ATOM      4  C   LIG    1       -0.891   3.263   0.028  0.00  0.00    +0.015 A 
ATOM      5  C   LIG    1        0.427   3.708   0.018  0.00  0.00    +0.012 A 
ATOM      6  S   LIG    1        1.332   2.170   0.001  0.00  0.00    -0.097 S 
ATOM      7  C   LIG    1       -0.013   1.076   0.008  0.00  0.00    +0.046 A 
ENDBRANCH   1   5
BRANCH   2   8
ATOM      8  C   LIG    1        2.753   6.586   0.011  0.00  0.00    +0.193 C 
ATOM      9  O   LIG    1        1.976   7.526   0.024  0.00  0.00    -0.287 OA
BRANCH   8  10
ATOM     10  C   LIG    1        4.200   6.830  -0.002  0.00  0.00    +0.059 A 
ATOM     11  C   LIG    1        4.883   8.037  -0.003  0.00  0.00    +0.019 A 
ATOM     12  C   LIG    1        6.255   7.979  -0.017  0.00  0.00    +0.008 A 
ATOM     13  C   LIG    1        6.867   6.766  -0.029  0.00  0.00    +0.046 A 
ATOM     14  S   LIG    1        5.540   5.652  -0.014  0.00  0.00    -0.093 S 
ENDBRANCH   8  10
ENDBRANCH   2   8
TORSDOF 3
