REMARK  Name = ZINC03794601
REMARK                            x       y       z     vdW  Elec       q    Type
REMARK                         _______ _______ _______ _____ _____    ______ ____
ROOT
ATOM      1  C   LIG    1       -2.776  -4.090  -0.245  0.00  0.00    +0.120 C 
ATOM      2  C   LIG    1       -4.248  -4.415  -0.135  0.00  0.00    -0.006 A 
ATOM      3  C   LIG    1       -5.264  -3.890   0.640  0.00  0.00    +0.008 A 
ATOM      4  C   LIG    1       -6.546  -4.391   0.533  0.00  0.00    +0.019 A 
ATOM      5  C   LIG    1       -6.814  -5.431  -0.360  0.00  0.00    +0.052 A 
ATOM      6  C   LIG    1       -5.782  -5.958  -1.139  0.00  0.00    +0.025 A 
ATOM      7  C   LIG    1       -4.508  -5.449  -1.023  0.00  0.00    -0.014 A 
ATOM      8  C   LIG    1       -3.204  -5.791  -1.707  0.00  0.00    +0.197 C 
ATOM      9  O   LIG    1       -2.336  -4.663  -1.490  0.00  0.00    -0.360 OA
ENDROOT
BRANCH   1  10
ATOM     10  C   LIG    1       -2.020  -4.703   0.905  0.00  0.00    -0.011 A 
ATOM     11  C   LIG    1       -0.956  -5.551   0.659  0.00  0.00    +0.009 A 
ATOM     12  C   LIG    1       -0.261  -6.113   1.713  0.00  0.00    +0.039 A 
ATOM     13  C   LIG    1       -0.631  -5.828   3.016  0.00  0.00    +0.123 A 
ATOM     14  F   LIG    1        0.047  -6.377   4.047  0.00  0.00    -0.205 F 
ATOM     15  C   LIG    1       -1.697  -4.979   3.262  0.00  0.00    +0.039 A 
ATOM     16  C   LIG    1       -2.387  -4.413   2.206  0.00  0.00    +0.009 A 
ENDBRANCH   1  10
BRANCH   5  17
ATOM     17  C   LIG    1       -8.142  -5.955  -0.475  0.00  0.00    +0.099 C 
ATOM     18  N   LIG    1       -9.195  -6.371  -0.566  0.00  0.00    -0.191 NA
ENDBRANCH   5  17
BRANCH   1  19
ATOM     19  C   LIG    1       -2.571  -2.574  -0.261  0.00  0.00    +0.043 C 
BRANCH  19  20
ATOM     20  C   LIG    1       -1.082  -2.262  -0.424  0.00  0.00    -0.015 C 
BRANCH  20  21
ATOM     21  C   LIG    1       -0.877  -0.746  -0.440  0.00  0.00    -0.079 C 
BRANCH  21  23
ATOM     22  C   LIG    1        0.737   1.004  -0.732  0.00  0.00    -0.097 C 
ATOM     23  N   LIG    1        0.552  -0.447  -0.596  0.00  0.00    +0.376 N 
ATOM     24  H   LIG    1        0.905  -0.910  -1.421  0.00  0.00    -0.083 HD
ATOM     25  C   LIG    1        1.284  -0.925   0.584  0.00  0.00    -0.097 C 
ENDBRANCH  21  23
ENDBRANCH  20  21
ENDBRANCH  19  20
ENDBRANCH   1  19
TORSDOF 6
