REMARK  Name = ZINC03810035
REMARK                            x       y       z     vdW  Elec       q    Type
REMARK                         _______ _______ _______ _____ _____    ______ ____
ROOT
ATOM      1  C   LIG    1       -0.622  -6.658   3.610  0.00  0.00    +0.116 C 
ATOM      2  C   LIG    1        0.880  -6.901   3.437  0.00  0.00    +0.013 C 
ATOM      3  C   LIG    1        1.364  -6.190   2.171  0.00  0.00    -0.076 C 
ATOM      4  N   LIG    1        1.105  -4.741   2.305  0.00  0.00    +0.380 N 
ATOM      5  H   LIG    1        1.558  -4.400   3.161  0.00  0.00    -0.082 HD
ATOM      6  C   LIG    1       -0.349  -4.491   2.400  0.00  0.00    -0.076 C 
ATOM      7  C   LIG    1       -0.884  -5.151   3.673  0.00  0.00    +0.013 C 
ENDROOT
BRANCH   1   8
ATOM      8  O   LIG    1       -1.069  -7.272   4.821  0.00  0.00    -0.364 OA
BRANCH   8   9
ATOM      9  C   LIG    1       -2.428  -7.710   4.784  0.00  0.00    +0.179 C 
BRANCH   9  13
ATOM     10  C   LIG    1       -2.899 -11.105   7.333  0.00  0.00    +0.000 A 
ATOM     11  C   LIG    1       -3.546 -11.063   6.113  0.00  0.00    +0.000 A 
ATOM     12  C   LIG    1       -3.393  -9.964   5.287  0.00  0.00    +0.006 A 
ATOM     13  C   LIG    1       -2.594  -8.908   5.683  0.00  0.00    -0.014 A 
ATOM     14  C   LIG    1       -1.943  -8.953   6.902  0.00  0.00    +0.006 A 
ATOM     15  C   LIG    1       -2.100 -10.049   7.729  0.00  0.00    +0.000 A 
ENDBRANCH   9  13
BRANCH   9  16
ATOM     16  C   LIG    1       -3.328  -6.598   5.256  0.00  0.00    -0.014 A 
ATOM     17  C   LIG    1       -2.905  -5.745   6.258  0.00  0.00    +0.006 A 
ATOM     18  C   LIG    1       -3.728  -4.721   6.688  0.00  0.00    +0.000 A 
ATOM     19  C   LIG    1       -4.980  -4.558   6.124  0.00  0.00    +0.000 A 
ATOM     20  C   LIG    1       -5.405  -5.414   5.126  0.00  0.00    +0.000 A 
ATOM     21  C   LIG    1       -4.579  -6.434   4.692  0.00  0.00    +0.006 A 
ENDBRANCH   9  16
ENDBRANCH   8   9
ENDBRANCH   1   8
BRANCH   4  22
ATOM     22  C   LIG    1        1.666  -4.019   1.145  0.00  0.00    -0.078 C 
BRANCH  22  23
ATOM     23  C   LIG    1        1.157  -2.576   1.158  0.00  0.00    -0.011 C 
BRANCH  23  24
ATOM     24  C   LIG    1        1.756  -1.813  -0.025  0.00  0.00    +0.076 C 
BRANCH  24  25
ATOM     25  C   LIG    1        1.254  -0.392  -0.012  0.00  0.00    +0.148 A 
ATOM     26  N   LIG    1        1.990   0.725  -0.013  0.00  0.00    -0.243 N 
ATOM     27  H   LIG    1        2.973   0.768  -0.022  0.00  0.00    +0.192 HD
ATOM     28  N   LIG    1        1.193   1.728  -0.000  0.00  0.00    -0.047 NA
ATOM     29  N   LIG    1       -0.015   1.284   0.009  0.00  0.00    -0.023 NA
ATOM     30  N   LIG    1        0.002  -0.004   0.002  0.00  0.00    -0.114 NA
ENDBRANCH  24  25
ENDBRANCH  23  24
ENDBRANCH  22  23
ENDBRANCH   4  22
TORSDOF 8
