REMARK  Name = ZINC03801116
REMARK                            x       y       z     vdW  Elec       q    Type
REMARK                         _______ _______ _______ _____ _____    ______ ____
ROOT
ATOM      1  C   LIG    1        1.298  -0.631  -1.491  0.00  0.00    +0.340 C 
ATOM      2  O   LIG    1        1.354   0.036  -2.506  0.00  0.00    -0.245 OA
ENDROOT
BRANCH   1   3
ATOM      3  C   LIG    1        1.003  -2.073  -1.573  0.00  0.00    +0.067 A 
ATOM      4  C   LIG    1        1.069  -2.869  -0.428  0.00  0.00    +0.015 A 
ATOM      5  C   LIG    1        0.790  -4.218  -0.510  0.00  0.00    +0.001 A 
ATOM      6  C   LIG    1        0.445  -4.790  -1.723  0.00  0.00    +0.001 A 
ATOM      7  C   LIG    1        0.374  -4.019  -2.866  0.00  0.00    +0.009 A 
ATOM      8  C   LIG    1        0.647  -2.655  -2.803  0.00  0.00    -0.004 A 
BRANCH   8   9
ATOM      9  C   LIG    1        0.567  -1.822  -4.026  0.00  0.00    -0.017 A 
ATOM     10  C   LIG    1       -0.326  -0.753  -4.088  0.00  0.00    +0.008 A 
ATOM     11  C   LIG    1       -0.393   0.021  -5.228  0.00  0.00    +0.001 A 
ATOM     12  C   LIG    1        0.417  -0.267  -6.312  0.00  0.00    +0.000 A 
ATOM     13  C   LIG    1        1.302  -1.329  -6.258  0.00  0.00    +0.001 A 
ATOM     14  C   LIG    1        1.381  -2.107  -5.122  0.00  0.00    +0.008 A 
ENDBRANCH   8   9
ENDBRANCH   1   3
BRANCH   1  15
ATOM     15  O   LIG    1        1.507  -0.052  -0.292  0.00  0.00    -0.461 OA
BRANCH  15  16
ATOM     16  C   LIG    1        1.793   1.371  -0.288  0.00  0.00    +0.230 C 
BRANCH  16  17
ATOM     17  C   LIG    1        2.000   1.846   1.151  0.00  0.00    +0.023 C 
BRANCH  17  18
ATOM     18  C   LIG    1        2.301   3.346   1.156  0.00  0.00    -0.076 C 
BRANCH  18  19
ATOM     19  N   LIG    1        2.477   3.793   2.554  0.00  0.00    +0.379 N 
ATOM     20  H   LIG    1        1.670   3.482   3.107  0.00  0.00    -0.082 HD
BRANCH  19  22
ATOM     21  C   LIG    1        4.928   3.599   2.291  0.00  0.00    -0.017 C 
ATOM     22  C   LIG    1        3.706   3.201   3.123  0.00  0.00    -0.082 C 
ENDBRANCH  19  22
BRANCH  19  23
ATOM     23  C   LIG    1        2.555   5.268   2.606  0.00  0.00    -0.082 C 
ATOM     24  C   LIG    1        2.358   5.719   4.055  0.00  0.00    -0.017 C 
ENDBRANCH  19  23
ENDBRANCH  18  19
ENDBRANCH  17  18
ENDBRANCH  16  17
ENDBRANCH  15  16
ENDBRANCH   1  15
TORSDOF 9
