REMARK  Name = ZINC03789437
REMARK                            x       y       z     vdW  Elec       q    Type
REMARK                         _______ _______ _______ _____ _____    ______ ____
ROOT
ATOM      1  C   LIG    1       -2.562  -6.249  -1.194  0.00  0.00    +0.160 C 
ENDROOT
BRANCH   1   2
ATOM      2  N   LIG    1       -2.591  -6.631  -2.608  0.00  0.00    -0.300 N 
ATOM      3  H   LIG    1       -2.393  -5.973  -3.292  0.00  0.00    +0.150 HD
ATOM      4  C   LIG    1       -2.893  -7.897  -2.958  0.00  0.00    +0.245 C 
ATOM      5  O   LIG    1       -3.141  -8.722  -2.100  0.00  0.00    -0.270 OA
BRANCH   4   6
ATOM      6  C   LIG    1       -2.922  -8.282  -4.384  0.00  0.00    +0.038 A 
ATOM      7  C   LIG    1       -2.632  -7.338  -5.371  0.00  0.00    +0.014 A 
ATOM      8  C   LIG    1       -2.662  -7.703  -6.701  0.00  0.00    +0.022 A 
ATOM      9  C   LIG    1       -2.978  -9.003  -7.058  0.00  0.00    +0.059 A 
ATOM     10 CL   LIG    1       -3.014  -9.455  -8.734  0.00  0.00    -0.082 Cl
ATOM     11  C   LIG    1       -3.267  -9.945  -6.083  0.00  0.00    +0.060 A 
ATOM     12 CL   LIG    1       -3.663 -11.572  -6.541  0.00  0.00    -0.082 Cl
ATOM     13  C   LIG    1       -3.235  -9.593  -4.749  0.00  0.00    +0.034 A 
ENDBRANCH   4   6
ENDBRANCH   1   2
BRANCH   1  15
ATOM     14  N   LIG    1       -3.215  -4.251   0.110  0.00  0.00    -0.300 N 
ATOM     15  C   LIG    1       -2.815  -4.768  -1.068  0.00  0.00    +0.236 C 
ATOM     16  O   LIG    1       -2.660  -4.043  -2.028  0.00  0.00    -0.274 OA
BRANCH  14  17
ATOM     17  C   LIG    1       -3.565  -2.832   0.206  0.00  0.00    +0.108 C 
BRANCH  17  18
ATOM     18  C   LIG    1       -2.324  -2.025   0.591  0.00  0.00    +0.019 C 
BRANCH  18  19
ATOM     19  C   LIG    1       -2.689  -0.542   0.691  0.00  0.00    +0.001 C 
BRANCH  19  21
ATOM     20  C   LIG    1       -1.814   1.747   1.175  0.00  0.00    +0.004 C 
ATOM     21  C   LIG    1       -1.448   0.265   1.075  0.00  0.00    -0.003 C 
ENDBRANCH  19  21
ENDBRANCH  18  19
ENDBRANCH  17  18
ENDBRANCH  14  17
BRANCH  14  22
ATOM     22  C   LIG    1       -3.299  -5.107   1.296  0.00  0.00    +0.108 C 
BRANCH  22  23
ATOM     23  C   LIG    1       -4.736  -5.602   1.467  0.00  0.00    +0.019 C 
BRANCH  23  24
ATOM     24  C   LIG    1       -4.824  -6.496   2.705  0.00  0.00    +0.001 C 
BRANCH  24  25
ATOM     25  C   LIG    1       -6.262  -6.990   2.877  0.00  0.00    -0.003 C 
ATOM     26  C   LIG    1       -6.349  -7.885   4.115  0.00  0.00    +0.004 C 
ENDBRANCH  24  25
ENDBRANCH  23  24
ENDBRANCH  22  23
ENDBRANCH  14  22
ENDBRANCH   1  15
BRANCH   1  27
ATOM     27  C   LIG    1       -1.190  -6.583  -0.604  0.00  0.00    +0.043 C 
BRANCH  27  28
ATOM     28  C   LIG    1       -0.989  -8.100  -0.609  0.00  0.00    +0.123 C 
BRANCH  28  29
ATOM     29  C   LIG    1        0.361  -8.430  -0.027  0.00  0.00    +0.305 C 
ATOM     30  O   LIG    1        1.095  -7.534   0.356  0.00  0.00    -0.251 OA
BRANCH  29  31
ATOM     31  O   LIG    1        0.720  -9.591   0.060  0.00  0.00    -0.481 OA
ATOM     32  H   LIG    1        0.156 -10.279  -0.234  0.00  0.00    +0.295 HD
ENDBRANCH  29  31
ENDBRANCH  28  29
ENDBRANCH  27  28
ENDBRANCH   1  27
TORSDOF 15
