REMARK  Name = ZINC03809801
REMARK                            x       y       z     vdW  Elec       q    Type
REMARK                         _______ _______ _______ _____ _____    ______ ____
ROOT
ATOM      1  C   UNK A  1        2.058  -0.540   1.360  0.00  0.00    +0.160 C 
ATOM      2  C   UNK A  1        0.560  -0.594   1.274  0.00  0.00    +0.042 C 
ATOM      3  C   UNK A  1        0.002  -0.004   0.002  0.00  0.00    +0.073 C 
ATOM      4  S   UNK A  1       -0.022   1.784   0.012  0.00  0.00    -0.138 S 
ATOM      5  C   UNK A  1        1.705   2.316  -0.002  0.00  0.00    +0.135 C 
ATOM      6  C   UNK A  1        1.755   3.767  -0.466  0.00  0.00    +0.034 C 
ATOM      7  C   UNK A  1        3.043   4.437   0.015  0.00  0.00    +0.005 C 
ATOM      8  C   UNK A  1        2.959   4.468   1.547  0.00  0.00    +0.034 C 
ATOM      9  C   UNK A  1        3.031   3.054   2.079  0.00  0.00    +0.186 C 
ATOM     10  N   UNK A  1        2.396   2.038   1.230  0.00  0.00    -0.275 N 
ATOM     11  C   UNK A  1        2.601   0.794   1.653  0.00  0.00    +0.237 C 
ATOM     12  O   UNK A  1        3.463   0.748   2.505  0.00  0.00    -0.274 OA
ENDROOT
BRANCH   1  14
ATOM     13  C   UNK A  0        3.737  -1.983   2.377  0.00  0.00    +0.227 C 
ATOM     14  N   UNK A  1        2.496  -1.459   2.414  0.00  0.00    -0.303 N 
ATOM     15  H   UNK A  1        1.893  -1.689   3.138  0.00  0.00    +0.149 HD
ATOM     16  O   UNK A  0        4.491  -1.695   1.472  0.00  0.00    -0.275 OA
BRANCH  13  17
ATOM     17  C   UNK A  0        4.188  -2.928   3.461  0.00  0.00    +0.133 C 
BRANCH  17  18
ATOM     18  S   UNK A  0        3.917  -4.639   2.923  0.00  0.00    -0.165 S 
ATOM     19  H   UNK A  0        4.663  -4.752   1.810  0.00  0.00    +0.102 HD
ENDBRANCH  17  18
BRANCH  17  20
ATOM     20  C   UNK A  0        5.677  -2.711   3.740  0.00  0.00    +0.058 C 
BRANCH  20  24
ATOM     21  C   UNK A  0        6.876  -5.137   7.045  0.00  0.00    +0.000 A 
ATOM     22  C   UNK A  0        6.953  -5.635   5.758  0.00  0.00    +0.000 A 
ATOM     23  C   UNK A  0        6.564  -4.850   4.688  0.00  0.00    +0.004 A 
ATOM     24  C   UNK A  0        6.099  -3.567   4.906  0.00  0.00    -0.046 A 
ATOM     25  C   UNK A  0        6.028  -3.067   6.193  0.00  0.00    +0.004 A 
ATOM     26  C   UNK A  0        6.410  -3.854   7.263  0.00  0.00    +0.000 A 
ENDBRANCH  20  24
ENDBRANCH  17  20
ENDBRANCH  13  17
ENDBRANCH   1  14
BRANCH   9  27
ATOM     27  C   UNK A  1        2.368   3.025   3.432  0.00  0.00    +0.325 C 
ATOM     28  O   UNK A  2        1.472   2.244   3.649  0.00  0.00    -0.249 OA
BRANCH  27  29
ATOM     29  O   UNK A  2        2.772   3.867   4.396  0.00  0.00    -0.479 OA
ATOM     30  H   UNK A  2        3.467   4.473   4.228  0.00  0.00    +0.295 HD
ENDBRANCH  27  29
ENDBRANCH   9  27
TORSDOF 7
