REMARK  Name = ZINC03872735
REMARK                            x       y       z     vdW  Elec       q    Type
REMARK                         _______ _______ _______ _____ _____    ______ ____
ROOT
ATOM      1  C   LIG    1        3.693  -0.680  -0.037  0.00  0.00    +0.159 C 
ATOM      2  N   LIG    1        3.715  -1.984  -0.045  0.00  0.00    -0.119 NA
ENDROOT
BRANCH   1   7
ATOM      3  C   LIG    1       -0.017   1.380   0.010  0.00  0.00    +0.003 A 
ATOM      4  C   LIG    1        1.167   2.095   0.002  0.00  0.00    +0.021 A 
ATOM      5  C   LIG    1        2.378   1.433  -0.013  0.00  0.00    +0.051 A 
ATOM      6 CL   LIG    1        3.863   2.334  -0.023  0.00  0.00    -0.083 Cl
ATOM      7  C   LIG    1        2.406   0.034  -0.021  0.00  0.00    +0.033 A 
ATOM      8  C   LIG    1        1.204  -0.682  -0.013  0.00  0.00    +0.051 A 
ATOM      9 CL   LIG    1        1.225  -2.418  -0.023  0.00  0.00    -0.083 Cl
ATOM     10  C   LIG    1        0.002  -0.004   0.002  0.00  0.00    +0.021 A 
ENDBRANCH   1   7
BRANCH   2  11
ATOM     11  N   LIG    1        4.843  -2.611  -0.059  0.00  0.00    -0.158 N 
ATOM     12  H   LIG    1        5.675  -2.111  -0.065  0.00  0.00    +0.292 HD
ATOM     13  C   LIG    1        4.865  -3.928  -0.067  0.00  0.00    +0.365 C 
BRANCH  13  14
ATOM     14  N   LIG    1        6.064  -4.594  -0.082  0.00  0.00    -0.290 N 
ATOM     15  H   LIG    1        6.080  -5.564  -0.087  0.00  0.00    +0.255 HD
ATOM     16  H   LIG    1        6.896  -4.095  -0.088  0.00  0.00    +0.255 HD
ENDBRANCH  13  14
BRANCH  13  17
ATOM     17  N   LIG    1        3.689  -4.634  -0.059  0.00  0.00    -0.290 N 
ATOM     18  H   LIG    1        3.705  -5.604  -0.064  0.00  0.00    +0.255 HD
ATOM     19  H   LIG    1        2.841  -4.163  -0.048  0.00  0.00    +0.255 HD
ENDBRANCH  13  17
ENDBRANCH   2  11
TORSDOF 4
