REMARK  Name = ZINC03820616
REMARK                            x       y       z     vdW  Elec       q    Type
REMARK                         _______ _______ _______ _____ _____    ______ ____
ROOT
ATOM      1  C   LIG    1        8.353   0.310  -0.942  0.00  0.00    +0.269 C 
ENDROOT
BRANCH   1   7
ATOM      2  C   LIG    1        1.900   0.086  -1.069  0.00  0.00    -0.063 A 
ATOM      3  C   LIG    1        2.330   1.306  -1.590  0.00  0.00    +0.002 A 
ATOM      4  C   LIG    1        3.655   1.606  -1.669  0.00  0.00    +0.009 A 
ATOM      5  C   LIG    1        4.607   0.671  -1.229  0.00  0.00    -0.018 A 
ATOM      6  C   LIG    1        5.984   0.944  -1.300  0.00  0.00    +0.015 A 
ATOM      7  C   LIG    1        6.878   0.014  -0.865  0.00  0.00    -0.010 A 
ATOM      8  C   LIG    1        6.449  -1.207  -0.349  0.00  0.00    +0.007 A 
ATOM      9  C   LIG    1        5.123  -1.506  -0.266  0.00  0.00    +0.009 A 
ATOM     10  C   LIG    1        4.171  -0.571  -0.705  0.00  0.00    -0.018 A 
ATOM     11  C   LIG    1        2.794  -0.843  -0.634  0.00  0.00    +0.010 A 
BRANCH   2  12
ATOM     12  C   LIG    1        0.425  -0.209  -0.992  0.00  0.00    -0.043 C 
BRANCH  12  13
ATOM     13  N   LIG    1       -0.117   0.396   0.242  0.00  0.00    +0.382 N 
ATOM     14  H   LIG    1        0.243   1.353   0.330  0.00  0.00    -0.081 HD
BRANCH  13  16
ATOM     15  C   LIG    1       -2.007   1.539  -0.806  0.00  0.00    -0.017 C 
ATOM     16  C   LIG    1       -1.593   0.442   0.177  0.00  0.00    -0.082 C 
ENDBRANCH  13  16
BRANCH  13  17
ATOM     17  C   LIG    1        0.312  -0.388   1.420  0.00  0.00    -0.082 C 
ATOM     18  C   LIG    1       -0.070   0.378   2.688  0.00  0.00    -0.017 C 
ENDBRANCH  13  17
ENDBRANCH  12  13
ENDBRANCH   2  12
ENDBRANCH   1   7
BRANCH   1  19
ATOM     19  O   LIG    1        8.784   0.950   0.288  0.00  0.00    -0.445 OA
BRANCH  19  20
ATOM     20  C   LIG    1       10.085   1.282   0.381  0.00  0.00    +0.405 C 
ATOM     21  N   LIG    1       10.550   1.880   1.496  0.00  0.00    -0.251 N 
ATOM     22  H   LIG    1        9.964   2.007   2.258  0.00  0.00    +0.158 HD
ATOM     23  O   LIG    1       10.841   1.044  -0.540  0.00  0.00    -0.226 OA
BRANCH  21  24
ATOM     24  C   LIG    1       11.874   2.314   1.554  0.00  0.00    +0.036 A 
ATOM     25  C   LIG    1       12.876   1.573   0.935  0.00  0.00    +0.024 A 
ATOM     26  C   LIG    1       14.183   2.002   0.986  0.00  0.00    +0.015 A 
ATOM     27  C   LIG    1       14.504   3.178   1.670  0.00  0.00    +0.039 A 
ATOM     28  C   LIG    1       13.496   3.917   2.296  0.00  0.00    +0.015 A 
ATOM     29  C   LIG    1       12.191   3.485   2.236  0.00  0.00    +0.024 A 
BRANCH  27  30
ATOM     30  C   LIG    1       15.905   3.638   1.732  0.00  0.00    +0.267 C 
ATOM     31  N   LIG    1       16.876   2.924   1.128  0.00  0.00    -0.193 N 
ATOM     32  H   LIG    1       16.654   2.107   0.653  0.00  0.00    +0.183 HD
ATOM     33  O   LIG    1       16.184   4.661   2.327  0.00  0.00    -0.268 OA
BRANCH  31  34
ATOM     34  O   LIG    1       18.220   3.365   1.187  0.00  0.00    -0.295 OA
ATOM     35  H   LIG    1       18.844   2.788   0.726  0.00  0.00    +0.241 HD
ENDBRANCH  31  34
ENDBRANCH  27  30
ENDBRANCH  21  24
ENDBRANCH  19  20
ENDBRANCH   1  19
TORSDOF 10
