REMARK  Name = ZINC03821234
REMARK                            x       y       z     vdW  Elec       q    Type
REMARK                         _______ _______ _______ _____ _____    ______ ____
ROOT
ATOM      1  C   LIG    1       -0.006   5.143   0.357  0.00  0.00    -0.041 A 
ATOM      2  C   LIG    1       -0.082   6.163   1.290  0.00  0.00    +0.007 A 
ATOM      3  C   LIG    1        0.507   6.018   2.532  0.00  0.00    +0.039 A 
ATOM      4  C   LIG    1        1.171   4.848   2.853  0.00  0.00    +0.135 A 
ATOM      5  F   LIG    1        1.742   4.704   4.069  0.00  0.00    -0.205 F 
ATOM      6  C   LIG    1        1.255   3.817   1.912  0.00  0.00    +0.072 A 
ATOM      7  C   LIG    1        0.657   3.973   0.660  0.00  0.00    +0.020 A 
ENDROOT
BRANCH   6   8
ATOM      8  C   LIG    1        1.966   2.566   2.244  0.00  0.00    +0.249 C 
ATOM      9  N   LIG    1        1.333   1.381   2.134  0.00  0.00    -0.299 N 
ATOM     10  C   LIG    1        2.105   0.141   2.350  0.00  0.00    +0.106 C 
ATOM     11  C   LIG    1        1.303  -0.880   3.174  0.00  0.00    -0.000 C 
ATOM     12  C   LIG    1        0.552  -0.166   4.276  0.00  0.00    -0.081 C 
ATOM     13  N   LIG    1       -0.825   0.147   3.805  0.00  0.00    +0.380 N 
ATOM     14  H   LIG    1       -1.130  -0.598   3.169  0.00  0.00    -0.086 HD
ATOM     15  H   LIG    1       -1.449   0.179   4.620  0.00  0.00    -0.086 HD
ATOM     16  C   LIG    1       -0.914   1.406   3.112  0.00  0.00    -0.063 C 
ATOM     17  C   LIG    1       -0.078   1.373   1.809  0.00  0.00    +0.089 C 
ATOM     18  O   LIG    1        3.123   2.605   2.616  0.00  0.00    -0.270 OA
ENDBRANCH   6   8
BRANCH   1  19
ATOM     19  C   LIG    1       -0.651   5.312  -0.995  0.00  0.00    +0.093 C 
BRANCH  19  25
ATOM     20  C   LIG    1       -3.264   5.396  -4.438  0.00  0.00    +0.001 A 
ATOM     21  C   LIG    1       -4.575   4.947  -4.351  0.00  0.00    +0.001 A 
ATOM     22  C   LIG    1       -5.073   4.454  -3.166  0.00  0.00    +0.014 A 
ATOM     23  C   LIG    1       -4.250   4.416  -2.041  0.00  0.00    +0.047 A 
ATOM     24  C   LIG    1       -2.917   4.879  -2.131  0.00  0.00    +0.011 A 
ATOM     25  C   LIG    1       -2.073   4.816  -0.938  0.00  0.00    +0.076 A 
ATOM     26  N   LIG    1       -2.555   4.352   0.176  0.00  0.00    -0.150 NA
ATOM     27  N   LIG    1       -3.869   3.900   0.298  0.00  0.00    -0.111 NA
ATOM     28  C   LIG    1       -4.722   3.906  -0.748  0.00  0.00    +0.240 A 
ATOM     29  C   LIG    1       -2.443   5.380  -3.345  0.00  0.00    +0.010 A 
BRANCH  28  30
ATOM     30  O   LIG    1       -5.863   3.497  -0.621  0.00  0.00    -0.491 OA
ATOM     31  H   LIG    1       -6.345   3.578  -1.493  0.00  0.00    +0.294 HD
ENDBRANCH  28  30
ENDBRANCH  19  25
ENDBRANCH   1  19
TORSDOF 4
