REMARK  Name = ZINC03871838
REMARK                            x       y       z     vdW  Elec       q    Type
REMARK                         _______ _______ _______ _____ _____    ______ ____
ROOT
ATOM      1  CA  LEU A  1       -5.556  -1.733   2.639  0.00  0.00    +0.162 C 
ENDROOT
BRANCH   1   4
ATOM      2  N   LEU A  1       -3.489  -1.317   1.346  0.00  0.00    -0.304 N 
ATOM      3  H   LEU A  1       -3.087  -0.972   2.159  0.00  0.00    +0.149 HD
ATOM      4  C   LEU A  1       -4.771  -1.733   1.353  0.00  0.00    +0.234 C 
ATOM      5  O   LEU A  1       -5.292  -2.108   0.324  0.00  0.00    -0.274 OA
BRANCH   2   6
ATOM      6  CA  LEU A  1       -2.704  -1.383   0.111  0.00  0.00    +0.136 C 
BRANCH   6   7
ATOM      7  C   LEU A  1       -2.106  -2.759  -0.030  0.00  0.00    +0.245 C 
ATOM      8  O   LEU A  1       -2.314  -3.598   0.814  0.00  0.00    -0.299 OA
ENDBRANCH   6   7
BRANCH   6   9
ATOM      9  C   LEU A  1       -1.583  -0.343   0.163  0.00  0.00    +0.030 C 
BRANCH   9  10
ATOM     10  C   LEU A  1       -2.191   1.061   0.180  0.00  0.00    +0.002 C 
BRANCH  10  12
ATOM     11  C   LEU A  1       -1.678   3.505   0.250  0.00  0.00    +0.004 C 
ATOM     12  C   LEU A  1       -1.070   2.101   0.232  0.00  0.00    -0.003 C 
ENDBRANCH  10  12
ENDBRANCH   9  10
ENDBRANCH   6   9
ENDBRANCH   2   6
ENDBRANCH   1   4
BRANCH   1  13
ATOM     13  N   LEU A  1       -6.976  -1.941   2.345  0.00  0.00    -0.270 N 
ATOM     14  H   LEU A  1       -7.243  -2.355   1.509  0.00  0.00    +0.153 HD
ATOM     15  C   UNK A  0       -7.913  -1.556   3.234  0.00  0.00    +0.401 C 
ATOM     16  O   UNK A  0       -7.586  -0.957   4.240  0.00  0.00    -0.226 OA
BRANCH  15  17
ATOM     17  O   UNK A  0       -9.210  -1.835   3.009  0.00  0.00    -0.446 OA
BRANCH  17  18
ATOM     18  C   UNK A  0      -10.149  -1.398   3.994  0.00  0.00    +0.269 C 
BRANCH  18  19
ATOM     19  C   UNK A  0      -11.540  -1.797   3.575  0.00  0.00    -0.010 A 
ATOM     20  C   UNK A  0      -12.300  -0.942   2.799  0.00  0.00    +0.007 A 
ATOM     21  C   UNK A  0      -13.576  -1.308   2.414  0.00  0.00    +0.000 A 
ATOM     22  C   UNK A  0      -14.093  -2.529   2.805  0.00  0.00    +0.000 A 
ATOM     23  C   UNK A  0      -13.333  -3.384   3.581  0.00  0.00    +0.000 A 
ATOM     24  C   UNK A  0      -12.055  -3.020   3.962  0.00  0.00    +0.007 A 
ENDBRANCH  18  19
ENDBRANCH  17  18
ENDBRANCH  15  17
ENDBRANCH   1  13
BRANCH   1  25
ATOM     25  CB  LEU A  1       -5.053  -2.859   3.544  0.00  0.00    +0.035 C 
BRANCH  25  26
ATOM     26  CG  LEU A  1       -3.582  -2.618   3.889  0.00  0.00    -0.015 C 
ATOM     27  CD2 LEU A  1       -3.036  -3.820   4.663  0.00  0.00    +0.007 C 
ATOM     28  CD1 LEU A  1       -3.460  -1.359   4.750  0.00  0.00    +0.007 C 
ENDBRANCH  25  26
ENDBRANCH   1  25
TORSDOF 12
