REMARK  Name = ZINC03818373
REMARK                            x       y       z     vdW  Elec       q    Type
REMARK                         _______ _______ _______ _____ _____    ______ ____
ROOT
ATOM      1  C   LIG    1       -1.236   3.153   0.030  0.00  0.00    +0.022 A 
ATOM      2  C   LIG    1       -0.028   3.856   0.023  0.00  0.00    +0.031 A 
ATOM      3  C   LIG    1        1.167   3.167   0.008  0.00  0.00    +0.042 A 
ATOM      4 CL   LIG    1        2.668   4.041  -0.001  0.00  0.00    -0.084 Cl
ATOM      5  C   LIG    1        1.175   1.782   0.000  0.00  0.00    +0.023 A 
ATOM      6  C   LIG    1       -0.013   1.076   0.008  0.00  0.00    +0.048 A 
ATOM      7  C   LIG    1       -1.222   1.751   0.017  0.00  0.00    +0.128 A 
ENDROOT
BRANCH   1   9
ATOM      8  C   LIG    1       -3.049   4.511  -1.011  0.00  0.00    -0.018 C 
ATOM      9  C   LIG    1       -2.516   3.881   0.045  0.00  0.00    -0.031 C 
ATOM     10  C   LIG    1       -3.416   4.015   1.252  0.00  0.00    +0.036 C 
ATOM     11  C   LIG    1       -4.369   5.184   0.907  0.00  0.00    +0.009 C 
ATOM     12  C   LIG    1       -4.367   5.149  -0.638  0.00  0.00    +0.038 C 
BRANCH   8  15
ATOM     13  C   LIG    1       -2.501   5.317  -4.631  0.00  0.00    +0.004 A 
ATOM     14  C   LIG    1       -3.088   5.260  -3.380  0.00  0.00    +0.028 A 
ATOM     15  C   LIG    1       -2.435   4.574  -2.348  0.00  0.00    +0.068 A 
ATOM     16  N   LIG    1       -1.271   3.977  -2.566  0.00  0.00    -0.240 NA
ATOM     17  CA  LIG    1       -0.686   4.011  -3.756  0.00  0.00    +0.148 A 
ATOM     18  C   LIG    1       -1.283   4.681  -4.823  0.00  0.00    +0.035 A 
BRANCH  17  19
ATOM     19  C   LIG    1        0.614   3.330  -3.953  0.00  0.00    +0.355 C 
ATOM     20  O   LIG    1        1.155   3.357  -5.040  0.00  0.00    -0.243 OA
BRANCH  19  21
ATOM     21  OXT LIG    1        1.196   2.680  -2.927  0.00  0.00    -0.476 OA
ATOM     22  HXT LIG    1        0.779   2.659  -2.089  0.00  0.00    +0.295 HD
ENDBRANCH  19  21
ENDBRANCH  17  19
ENDBRANCH   8  15
ENDBRANCH   1   9
BRANCH   7  23
ATOM     23  O   LIG    1       -2.390   1.057   0.019  0.00  0.00    -0.487 OA
BRANCH  23  24
ATOM     24  C   LIG    1       -2.298  -0.369   0.011  0.00  0.00    +0.267 C 
BRANCH  24  25
ATOM     25  C   LIG    1       -3.683  -0.962   0.014  0.00  0.00    +0.025 A 
ATOM     26  C   LIG    1       -4.789  -0.133   0.024  0.00  0.00    +0.012 A 
ATOM     27  C   LIG    1       -6.060  -0.675   0.026  0.00  0.00    +0.039 A 
ATOM     28  C   LIG    1       -6.227  -2.050   0.019  0.00  0.00    +0.126 A 
ATOM     29  F   LIG    1       -7.470  -2.580   0.021  0.00  0.00    -0.205 F 
ATOM     30  C   LIG    1       -5.120  -2.881   0.010  0.00  0.00    +0.077 A 
ATOM     31  C   LIG    1       -3.847  -2.336   0.002  0.00  0.00    +0.132 A 
ATOM     32  F   LIG    1       -2.766  -3.146  -0.013  0.00  0.00    -0.205 F 
ENDBRANCH  24  25
ENDBRANCH  23  24
ENDBRANCH   7  23
TORSDOF 7
