REMARK  Name = ZINC03869280
REMARK                            x       y       z     vdW  Elec       q    Type
REMARK                         _______ _______ _______ _____ _____    ______ ____
ROOT
ATOM      1  C   UNK    1        0.002  -0.004   0.002  0.00  0.00    +0.062 C 
ENDROOT
BRANCH   1   2
ATOM      2  N   UNK    1        0.582  -0.479  -1.261  0.00  0.00    +0.388 N 
ATOM      3  H   UNK    1        0.024  -0.146  -2.034  0.00  0.00    -0.089 HD
ATOM      4  H   UNK    1        0.596  -1.488  -1.267  0.00  0.00    -0.089 HD
ATOM      5  H   UNK    1        1.524  -0.129  -1.351  0.00  0.00    -0.089 HD
ENDBRANCH   1   2
BRANCH   1   6
ATOM      6  C   UNK    1       -1.405  -0.526   0.137  0.00  0.00    +0.292 C 
ATOM      7  O   UNK    1       -1.946  -1.072  -0.810  0.00  0.00    -0.253 OA
BRANCH   6   8
ATOM      8  O   UNK    1       -2.003  -0.403   1.192  0.00  0.00    -0.482 OA
ATOM      9  H   UNK    1       -1.587   0.017   1.919  0.00  0.00    +0.295 HD
ENDBRANCH   6   8
ENDBRANCH   1   6
BRANCH   1  10
ATOM     10  C   UNK    1       -0.019   1.526   0.010  0.00  0.00    +0.167 C 
BRANCH  10  11
ATOM     11  O   UNK    1        1.322   2.020   0.000  0.00  0.00    -0.288 OA
BRANCH  11  12
ATOM     12  P   UNK    1        1.677   3.591   0.005  0.00  0.00    +0.472 P 
ATOM     13  O   UNK    1        0.955   4.293  -1.194  0.00  0.00    -0.228 OA
BRANCH  12  14
ATOM     14  O   UNK    1        3.226   3.776  -0.137  0.00  0.00    -0.303 OA
ATOM     15  H   UNK    1        3.524   3.380  -0.971  0.00  0.00    +0.222 HD
ENDBRANCH  12  14
BRANCH  12  16
ATOM     16  O   UNK    1        1.196   4.231   1.352  0.00  0.00    -0.303 OA
ATOM     17  H   UNK    1        0.237   4.116   1.440  0.00  0.00    +0.222 HD
ENDBRANCH  12  16
ENDBRANCH  11  12
ENDBRANCH  10  11
ENDBRANCH   1  10
TORSDOF 8
