REMARK  Name = ZINC03816519
REMARK                            x       y       z     vdW  Elec       q    Type
REMARK                         _______ _______ _______ _____ _____    ______ ____
ROOT
ATOM      1  C   LIG    1       -1.266  -0.762   0.011  0.00  0.00    +0.136 A 
ATOM      2  C   LIG    1       -1.366  -2.113   0.010  0.00  0.00    +0.058 A 
ATOM      3  C   LIG    1       -2.799  -2.415   0.020  0.00  0.00    +0.024 A 
ATOM      4  C   LIG    1       -3.544  -3.595   0.023  0.00  0.00    +0.057 A 
ATOM      5  C   LIG    1       -4.924  -3.531   0.033  0.00  0.00    +0.118 A 
ATOM      6  C   LIG    1       -5.566  -2.296   0.039  0.00  0.00    +0.049 A 
ATOM      7  C   LIG    1       -4.838  -1.125   0.035  0.00  0.00    +0.050 A 
ATOM      8  C   LIG    1       -3.450  -1.169   0.026  0.00  0.00    +0.136 A 
ATOM      9  O   LIG    1       -2.497  -0.213   0.026  0.00  0.00    -0.455 OA
ENDROOT
BRANCH   1  15
ATOM     10  C   LIG    1       -0.017   1.392   0.010  0.00  0.00    +0.015 A 
ATOM     11  C   LIG    1        1.169   2.095   0.002  0.00  0.00    +0.046 A 
ATOM     12  C   LIG    1        2.380   1.418  -0.013  0.00  0.00    +0.117 A 
ATOM     13  C   LIG    1        2.404   0.029  -0.021  0.00  0.00    +0.046 A 
ATOM     14  C   LIG    1        1.223  -0.682  -0.014  0.00  0.00    +0.015 A 
ATOM     15  C   LIG    1        0.002  -0.004   0.002  0.00  0.00    +0.018 A 
BRANCH  12  16
ATOM     16  O   LIG    1        3.547   2.115  -0.021  0.00  0.00    -0.507 OA
ATOM     17  H   LIG    1        3.893   2.312   0.860  0.00  0.00    +0.292 HD
ENDBRANCH  12  16
ENDBRANCH   1  15
BRANCH   5  18
ATOM     18  O   LIG    1       -5.657  -4.676   0.036  0.00  0.00    -0.507 OA
ATOM     19  H   LIG    1       -5.863  -5.008   0.921  0.00  0.00    +0.292 HD
ENDBRANCH   5  18
TORSDOF 3
