REMARK  Name = ZINC03871389
REMARK                            x       y       z     vdW  Elec       q    Type
REMARK                         _______ _______ _______ _____ _____    ______ ____
ROOT
ATOM      1  C   LIG    1        5.935   3.247  -0.036  0.00  0.00    +0.119 C 
ATOM      2  C   LIG    1        5.918   1.848  -0.042  0.00  0.00    +0.033 C 
ATOM      3  C   LIG    1        4.746   1.162  -0.035  0.00  0.00    +0.021 C 
ATOM      4  C   LIG    1        3.520   1.860  -0.021  0.00  0.00    +0.059 C 
ATOM      5  N   LIG    1        2.373   1.102  -0.014  0.00  0.00    -0.310 NA
ATOM      6  H   LIG    1        2.398   0.075  -0.018  0.00  0.00    +0.122 HD
ATOM      7  C   LIG    1        1.193   1.801   0.000  0.00  0.00    +0.060 C 
ATOM      8  C   LIG    1       -0.013   1.076   0.008  0.00  0.00    +0.037 C 
ATOM      9  C   LIG    1       -1.211   1.754   0.017  0.00  0.00    +0.052 C 
ATOM     10  C   LIG    1       -1.259   3.153   0.028  0.00  0.00    +0.019 C 
ATOM     11  C   LIG    1       -0.125   3.901   0.022  0.00  0.00    +0.008 C 
ATOM     12  C   LIG    1        1.128   3.265   0.008  0.00  0.00    +0.023 C 
ATOM     13  C   LIG    1        2.327   3.999   0.001  0.00  0.00    +0.060 C 
ATOM     14  C   LIG    1        3.539   3.278  -0.014  0.00  0.00    +0.025 C 
ATOM     15  C   LIG    1        4.770   3.957  -0.022  0.00  0.00    +0.038 C 
ENDROOT
BRANCH   9  16
ATOM     16  N   LIG    1       -2.402   1.031   0.019  0.00  0.00    -0.327 NA
ATOM     17  H   LIG    1       -3.252   1.498   0.025  0.00  0.00    +0.118 HD
ATOM     18  H   LIG    1       -2.381   0.061   0.014  0.00  0.00    +0.118 HD
ENDBRANCH   9  16
BRANCH  13  19
ATOM     19  N   LIG    1        2.318   5.379   0.008  0.00  0.00    -0.327 NA
ATOM     20  H   LIG    1        3.155   5.869   0.003  0.00  0.00    +0.118 HD
ATOM     21  H   LIG    1        1.475   5.858   0.019  0.00  0.00    +0.118 HD
ENDBRANCH  13  19
BRANCH   1  22
ATOM     22  O   LIG    1        7.125   3.905  -0.043  0.00  0.00    -0.377 OA
BRANCH  22  24
ATOM     23  C   LIG    1        9.539   4.016  -0.064  0.00  0.00    +0.034 C 
ATOM     24  C   LIG    1        8.309   3.106  -0.058  0.00  0.00    +0.157 C 
ENDBRANCH  22  24
ENDBRANCH   1  22
TORSDOF 4
