REMARK  Name = ZINC03821325
REMARK                            x       y       z     vdW  Elec       q    Type
REMARK                         _______ _______ _______ _____ _____    ______ ____
ROOT
ATOM      1  C   LIG    1        1.415  -2.697  -4.860  0.00  0.00    +0.045 A 
ATOM      2  C   LIG    1        2.800  -2.885  -4.848  0.00  0.00    +0.015 A 
ATOM      3  C   LIG    1        3.413  -3.558  -5.880  0.00  0.00    +0.024 A 
ATOM      4  C   LIG    1        2.659  -4.055  -6.942  0.00  0.00    +0.028 A 
ATOM      5  C   LIG    1        1.282  -3.876  -6.967  0.00  0.00    +0.032 A 
ATOM      6  C   LIG    1        0.651  -3.204  -5.928  0.00  0.00    -0.004 A 
ENDROOT
BRANCH   6   7
ATOM      7  C   LIG    1       -0.819  -3.016  -5.947  0.00  0.00    -0.017 A 
ATOM      8  C   LIG    1       -1.605  -3.538  -4.919  0.00  0.00    +0.008 A 
ATOM      9  C   LIG    1       -2.973  -3.359  -4.942  0.00  0.00    +0.001 A 
ATOM     10  C   LIG    1       -3.566  -2.665  -5.981  0.00  0.00    +0.000 A 
ATOM     11  C   LIG    1       -2.792  -2.145  -7.003  0.00  0.00    +0.001 A 
ATOM     12  C   LIG    1       -1.422  -2.313  -6.989  0.00  0.00    +0.008 A 
ENDBRANCH   6   7
BRANCH   1  15
ATOM     13  N   LIG    1        1.469  -1.610  -2.672  0.00  0.00    -0.298 N 
ATOM     14  H   LIG    1        2.415  -1.819  -2.619  0.00  0.00    +0.150 HD
ATOM     15  C   LIG    1        0.757  -1.977  -3.756  0.00  0.00    +0.245 C 
ATOM     16  O   LIG    1       -0.428  -1.714  -3.822  0.00  0.00    -0.270 OA
BRANCH  13  17
ATOM     17  C   LIG    1        0.815  -0.894  -1.574  0.00  0.00    +0.183 C 
BRANCH  17  18
ATOM     18  C   LIG    1        0.792   0.582  -1.880  0.00  0.00    +0.327 C 
ATOM     19  O   LIG    1        1.272   0.993  -2.909  0.00  0.00    -0.249 OA
BRANCH  18  21
ATOM     20  C   LIG    1        0.250   2.823  -1.363  0.00  0.00    +0.280 C 
ATOM     21  O   LIG    1        0.237   1.439  -1.009  0.00  0.00    -0.467 OA
ENDBRANCH  18  21
ENDBRANCH  17  18
BRANCH  17  22
ATOM     22  C   LIG    1        1.589  -1.133  -0.276  0.00  0.00    +0.044 C 
BRANCH  22  23
ATOM     23  C   LIG    1        1.507  -2.614   0.101  0.00  0.00    +0.071 C 
BRANCH  23  24
ATOM     24  S   LIG    1        2.425  -2.898   1.640  0.00  0.00    -0.164 S 
ATOM     25  C   LIG    1        2.232  -4.676   1.944  0.00  0.00    +0.084 C 
ENDBRANCH  23  24
ENDBRANCH  22  23
ENDBRANCH  17  22
ENDBRANCH  13  17
ENDBRANCH   1  15
BRANCH   4  26
ATOM     26  N   LIG    1        3.288  -4.733  -7.980  0.00  0.00    -0.345 N 
ATOM     27  H   LIG    1        2.765  -5.081  -8.720  0.00  0.00    +0.146 HD
BRANCH  26  28
ATOM     28  C   LIG    1        4.741  -4.923  -7.957  0.00  0.00    +0.086 C 
BRANCH  28  29
ATOM     29  C   LIG    1        5.174  -5.694  -9.206  0.00  0.00    -0.048 C 
BRANCH  29  30
ATOM     30  N   LIG    1        4.694  -4.993 -10.404  0.00  0.00    +0.382 N 
ATOM     31  H   LIG    1        3.688  -4.934 -10.379  0.00  0.00    -0.090 HD
ATOM     32  H   LIG    1        4.981  -5.501 -11.228  0.00  0.00    -0.090 HD
ATOM     33  H   LIG    1        5.086  -4.064 -10.430  0.00  0.00    -0.090 HD
ENDBRANCH  29  30
BRANCH  29  34
ATOM     34  C   LIG    1        6.701  -5.784  -9.244  0.00  0.00    +0.051 C 
BRANCH  34  35
ATOM     35  S   LIG    1        7.215  -6.697 -10.725  0.00  0.00    -0.180 S 
ATOM     36  H   LIG    1        8.558  -6.710 -10.649  0.00  0.00    +0.102 HD
ENDBRANCH  34  35
ENDBRANCH  29  34
ENDBRANCH  28  29
ENDBRANCH  26  28
ENDBRANCH   4  26
TORSDOF 14
