REMARK  Name = ZINC03813507
REMARK                            x       y       z     vdW  Elec       q    Type
REMARK                         _______ _______ _______ _____ _____    ______ ____
ROOT
ATOM      1  CA  PHE A  1       -0.013   1.086   0.008  0.00  0.00    +0.166 C 
ENDROOT
BRANCH   1   2
ATOM      2  N   PHE A  1       -0.698   1.558   1.213  0.00  0.00    -0.269 N 
ATOM      3  H   PHE A  1       -0.402   2.370   1.653  0.00  0.00    +0.153 HD
ATOM      4  C   UNK A  0       -1.741   0.865   1.711  0.00  0.00    +0.401 C 
ATOM      5  O   UNK A  0       -2.113  -0.153   1.160  0.00  0.00    -0.226 OA
BRANCH   4   6
ATOM      6  O   UNK A  0       -2.371   1.299   2.819  0.00  0.00    -0.446 OA
BRANCH   6   7
ATOM      7  C   UNK A  0       -3.486   0.501   3.298  0.00  0.00    +0.269 C 
BRANCH   7   8
ATOM      8  C   UNK A  0       -4.062   1.137   4.537  0.00  0.00    -0.010 A 
ATOM      9  C   UNK A  0       -3.580   0.784   5.784  0.00  0.00    +0.007 A 
ATOM     10  C   UNK A  0       -4.106   1.371   6.920  0.00  0.00    +0.000 A 
ATOM     11  C   UNK A  0       -5.120   2.304   6.810  0.00  0.00    +0.000 A 
ATOM     12  C   UNK A  0       -5.606   2.653   5.564  0.00  0.00    +0.000 A 
ATOM     13  C   UNK A  0       -5.077   2.070   4.427  0.00  0.00    +0.007 A 
ENDBRANCH   7   8
ENDBRANCH   6   7
ENDBRANCH   4   6
ENDBRANCH   1   2
BRANCH   1  14
ATOM     14  C   PHE A  1        1.401   1.607  -0.003  0.00  0.00    +0.234 C 
ATOM     15  N   TYR A  2        2.226   1.299  -1.023  0.00  0.00    -0.304 N 
ATOM     16  H   TYR A  2        1.909   0.741  -1.751  0.00  0.00    +0.149 HD
ATOM     17  O   PHE A  1        1.797   2.305   0.907  0.00  0.00    -0.274 OA
BRANCH  15  18
ATOM     18  CA  TYR A  2        3.600   1.806  -1.034  0.00  0.00    +0.140 C 
BRANCH  18  19
ATOM     19  C   TYR A  2        3.620   3.191  -1.627  0.00  0.00    +0.245 C 
ATOM     20  O   TYR A  2        2.592   3.702  -2.002  0.00  0.00    -0.299 OA
ENDBRANCH  18  19
BRANCH  18  21
ATOM     21  CB  TYR A  2        4.479   0.878  -1.874  0.00  0.00    +0.064 C 
BRANCH  21  22
ATOM     22  CG  TYR A  2        4.559  -0.474  -1.214  0.00  0.00    -0.045 A 
ATOM     23  CD2 TYR A  2        5.562  -0.739  -0.301  0.00  0.00    +0.007 A 
ATOM     24  CE2 TYR A  2        5.633  -1.976   0.310  0.00  0.00    +0.045 A 
ATOM     25  CZ  TYR A  2        4.703  -2.957  -0.002  0.00  0.00    +0.117 A 
ATOM     26  CE1 TYR A  2        3.701  -2.691  -0.923  0.00  0.00    +0.045 A 
ATOM     27  CD1 TYR A  2        3.630  -1.450  -1.527  0.00  0.00    +0.007 A 
BRANCH  25  28
ATOM     28  OH  TYR A  2        4.774  -4.176   0.594  0.00  0.00    -0.507 OA
ATOM     29  HH  TYR A  2        5.317  -4.817   0.115  0.00  0.00    +0.292 HD
ENDBRANCH  25  28
ENDBRANCH  21  22
ENDBRANCH  18  21
ENDBRANCH  15  18
ENDBRANCH   1  14
BRANCH   1  30
ATOM     30  CB  PHE A  1       -0.753   1.593  -1.232  0.00  0.00    +0.067 C 
BRANCH  30  34
ATOM     31  CZ  PHE A  1       -4.644  -0.162  -1.384  0.00  0.00    +0.000 A 
ATOM     32  CE1 PHE A  1       -4.452   1.037  -0.724  0.00  0.00    +0.000 A 
ATOM     33  CD1 PHE A  1       -3.193   1.605  -0.674  0.00  0.00    +0.004 A 
ATOM     34  CG  PHE A  1       -2.126   0.973  -1.285  0.00  0.00    -0.045 A 
ATOM     35  CD2 PHE A  1       -2.318  -0.223  -1.950  0.00  0.00    +0.004 A 
ATOM     36  CE2 PHE A  1       -3.577  -0.793  -1.995  0.00  0.00    +0.000 A 
ENDBRANCH  30  34
ENDBRANCH   1  30
TORSDOF 12
