REMARK  Name = ZINC03791818
REMARK                            x       y       z     vdW  Elec       q    Type
REMARK                         _______ _______ _______ _____ _____    ______ ____
ROOT
ATOM      1  C   LIG    1       -0.019   1.542   0.011  0.00  0.00    +0.014 C 
ATOM      2  C   LIG    1        1.489   1.878  -0.002  0.00  0.00    +0.138 C 
ATOM      3  N   LIG    1        2.154   0.712   0.592  0.00  0.00    -0.185 N 
ATOM      4  C   LIG    1        1.344  -0.360   0.603  0.00  0.00    +0.224 C 
ATOM      5  O   LIG    1        1.645  -1.454   1.031  0.00  0.00    -0.275 OA
ATOM      6  C   LIG    1        0.002  -0.004   0.002  0.00  0.00    +0.016 C 
ENDROOT
BRANCH   6   7
ATOM      7  N   LIG    1       -0.097  -0.512  -1.373  0.00  0.00    +0.386 N 
ATOM      8  H   LIG    1       -0.960  -0.194  -1.788  0.00  0.00    -0.089 HD
ATOM      9  H   LIG    1       -0.082  -1.521  -1.361  0.00  0.00    -0.089 HD
ATOM     10  H   LIG    1        0.682  -0.171  -1.915  0.00  0.00    -0.089 HD
ENDBRANCH   6   7
BRANCH   3  11
ATOM     11  O   LIG    1        3.480   0.717   1.091  0.00  0.00    -0.293 OA
ATOM     12  H   LIG    1        3.768  -0.133   1.450  0.00  0.00    +0.242 HD
ENDBRANCH   3  11
TORSDOF 2
