REMARK  Name = ZINC03814297
REMARK                            x       y       z     vdW  Elec       q    Type
REMARK                         _______ _______ _______ _____ _____    ______ ____
ROOT
ATOM      1  C   LIG    1        0.457  -2.027  -1.050  0.00  0.00    +0.116 C 
ENDROOT
BRANCH   1   2
ATOM      2  N   LIG    1        0.970  -2.477  -2.346  0.00  0.00    -0.331 N 
ATOM      3  C   LIG    1        0.324  -3.277  -3.227  0.00  0.00    +0.120 A 
ATOM      4  C   LIG    1        1.156  -3.444  -4.295  0.00  0.00    +0.143 A 
ATOM      5  N   LIG    1        2.291  -2.743  -4.043  0.00  0.00    -0.231 NA
ATOM      6  C   LIG    1        2.178  -2.162  -2.883  0.00  0.00    +0.200 A 
BRANCH   4   7
ATOM      7  C   LIG    1        0.875  -4.240  -5.502  0.00  0.00    +0.261 C 
ATOM      8  N   LIG    1        1.792  -4.320  -6.486  0.00  0.00    -0.324 N 
ATOM      9  H   LIG    1        1.607  -4.844  -7.281  0.00  0.00    +0.145 HD
ATOM     10  H   LIG    1        2.638  -3.852  -6.399  0.00  0.00    +0.145 HD
ATOM     11  O   LIG    1       -0.185  -4.826  -5.610  0.00  0.00    -0.269 OA
ENDBRANCH   4   7
ENDBRANCH   1   2
BRANCH   1  12
ATOM     12  C   LIG    1        1.389  -2.510   0.063  0.00  0.00    +0.134 C 
ATOM     13  C   LIG    1        1.423  -4.040   0.072  0.00  0.00    +0.040 C 
BRANCH  12  14
ATOM     14  O   LIG    1        2.707  -2.006  -0.167  0.00  0.00    -0.390 OA
ATOM     15  H   LIG    1        2.760  -1.041  -0.185  0.00  0.00    +0.210 HD
ENDBRANCH  12  14
ENDBRANCH   1  12
BRANCH   1  16
ATOM     16  C   LIG    1        0.389  -0.499  -1.031  0.00  0.00    +0.028 C 
BRANCH  16  17
ATOM     17  C   LIG    1       -0.644  -0.022  -2.053  0.00  0.00    +0.002 C 
BRANCH  17  18
ATOM     18  C   LIG    1       -0.811   1.495  -1.940  0.00  0.00    +0.000 C 
BRANCH  18  19
ATOM     19  C   LIG    1       -1.845   1.972  -2.963  0.00  0.00    -0.000 C 
BRANCH  19  21
ATOM     20  C   LIG    1       -3.045   3.966  -3.872  0.00  0.00    +0.004 C 
ATOM     21  C   LIG    1       -2.011   3.489  -2.850  0.00  0.00    -0.003 C 
ENDBRANCH  19  21
ENDBRANCH  18  19
ENDBRANCH  17  18
ENDBRANCH  16  17
ENDBRANCH   1  16
TORSDOF 9
