REMARK  Name = ZINC03831139
REMARK                            x       y       z     vdW  Elec       q    Type
REMARK                         _______ _______ _______ _____ _____    ______ ____
ROOT
ATOM      1  C   LIG    1        3.711  -0.707  -0.038  0.00  0.00    +0.139 C 
ENDROOT
BRANCH   1   5
ATOM      2  C   LIG    1        0.032   1.461   0.059  0.00  0.00    +0.000 A 
ATOM      3  C   LIG    1        0.019   0.080   0.010  0.00  0.00    +0.000 A 
ATOM      4  C   LIG    1        1.210  -0.622  -0.021  0.00  0.00    +0.005 A 
ATOM      5  C   LIG    1        2.413   0.058  -0.004  0.00  0.00    -0.028 A 
ATOM      6  C   LIG    1        2.426   1.439   0.043  0.00  0.00    +0.005 A 
ATOM      7  C   LIG    1        1.236   2.141   0.076  0.00  0.00    +0.000 A 
ENDBRANCH   1   5
BRANCH   1   8
ATOM      8  C   LIG    1        3.870  -1.483   1.245  0.00  0.00    -0.028 A 
ATOM      9  C   LIG    1        3.012  -2.528   1.531  0.00  0.00    +0.005 A 
ATOM     10  C   LIG    1        3.158  -3.240   2.707  0.00  0.00    +0.000 A 
ATOM     11  C   LIG    1        4.161  -2.906   3.597  0.00  0.00    +0.000 A 
ATOM     12  C   LIG    1        5.020  -1.861   3.310  0.00  0.00    +0.000 A 
ATOM     13  C   LIG    1        4.877  -1.153   2.132  0.00  0.00    +0.005 A 
ENDBRANCH   1   8
BRANCH   1  14
ATOM     14  S   LIG    1        3.700  -1.856  -1.442  0.00  0.00    +0.043 S 
ATOM     15  O   LIG    1        2.645  -2.793  -1.279  0.00  0.00    -0.256 OA
BRANCH  14  16
ATOM     16  C   LIG    1        3.353  -0.796  -2.873  0.00  0.00    +0.200 C 
BRANCH  16  17
ATOM     17  C   LIG    1        3.316  -1.637  -4.123  0.00  0.00    +0.223 C 
ATOM     18  N   LIG    1        3.073  -1.059  -5.316  0.00  0.00    -0.329 N 
ATOM     19  H   LIG    1        3.049  -1.600  -6.121  0.00  0.00    +0.145 HD
ATOM     20  H   LIG    1        2.921  -0.103  -5.370  0.00  0.00    +0.145 HD
ATOM     21  O   LIG    1        3.506  -2.833  -4.055  0.00  0.00    -0.275 OA
ENDBRANCH  16  17
ENDBRANCH  14  16
ENDBRANCH   1  14
TORSDOF 5
