REMARK  Name = ZINC03816417
REMARK                            x       y       z     vdW  Elec       q    Type
REMARK                         _______ _______ _______ _____ _____    ______ ____
ROOT
ATOM      1  C   LIG    1       -2.135   1.203  -7.667  0.00  0.00    -0.014 A 
ATOM      2  C   LIG    1       -2.446  -0.100  -8.053  0.00  0.00    +0.009 A 
ATOM      3  C   LIG    1       -1.976  -1.168  -7.316  0.00  0.00    +0.004 A 
ATOM      4  C   LIG    1       -1.193  -0.950  -6.198  0.00  0.00    +0.046 A 
ATOM      5  C   LIG    1       -0.884   0.344  -5.804  0.00  0.00    +0.134 A 
ATOM      6  C   LIG    1       -1.351   1.422  -6.538  0.00  0.00    +0.055 A 
ENDROOT
BRANCH   1  10
ATOM      7  C   LIG    1       -3.581   4.499  -9.932  0.00  0.00    +0.000 A 
ATOM      8  C   LIG    1       -3.890   3.208 -10.320  0.00  0.00    +0.001 A 
ATOM      9  C   LIG    1       -3.424   2.134  -9.588  0.00  0.00    +0.008 A 
ATOM     10  C   LIG    1       -2.639   2.353  -8.458  0.00  0.00    -0.018 A 
ATOM     11  C   LIG    1       -2.335   3.656  -8.069  0.00  0.00    +0.008 A 
ATOM     12  C   LIG    1       -2.802   4.722  -8.811  0.00  0.00    +0.001 A 
ENDBRANCH   1  10
BRANCH   5  13
ATOM     13  O   LIG    1       -0.118   0.554  -4.700  0.00  0.00    -0.412 OA
BRANCH  13  14
ATOM     14  C   LIG    1       -0.754   0.947  -3.580  0.00  0.00    +0.406 C 
ATOM     15  N   LIG    1       -0.070   1.077  -2.426  0.00  0.00    -0.278 N 
ATOM     16  H   LIG    1        0.881   0.888  -2.403  0.00  0.00    +0.152 HD
ATOM     17  O   LIG    1       -1.946   1.184  -3.610  0.00  0.00    -0.226 OA
BRANCH  15  18
ATOM     18  C   LIG    1       -0.762   1.504  -1.208  0.00  0.00    +0.076 C 
ATOM     19  C   LIG    1        0.001   0.996   0.017  0.00  0.00    +0.022 C 
ATOM     20  C   LIG    1       -0.722   1.443   1.289  0.00  0.00    +0.002 C 
ATOM     21  C   LIG    1       -0.790   2.971   1.328  0.00  0.00    +0.000 C 
ATOM     22  C   LIG    1       -1.553   3.479   0.103  0.00  0.00    +0.002 C 
ATOM     23  C   LIG    1       -0.830   3.032  -1.169  0.00  0.00    +0.022 C 
ENDBRANCH  15  18
ENDBRANCH  13  14
ENDBRANCH   5  13
TORSDOF 4
