REMARK  Name = ZINC03779067
REMARK                            x       y       z     vdW  Elec       q    Type
REMARK                         _______ _______ _______ _____ _____    ______ ____
ROOT
ATOM      1  C   LIG    1        0.626  -0.619   1.042  0.00  0.00    +0.147 C 
ATOM      2  C   LIG    1        1.203   0.152   2.053  0.00  0.00    +0.034 C 
ATOM      3  C   LIG    1        1.842  -0.434   3.104  0.00  0.00    +0.006 C 
ATOM      4  C   LIG    1        1.926  -1.832   3.178  0.00  0.00    -0.002 C 
ATOM      5  C   LIG    1        2.597  -2.487   4.223  0.00  0.00    +0.027 C 
ATOM      6  C   LIG    1        2.640  -3.869   4.227  0.00  0.00    +0.087 C 
ATOM      7  N   LIG    1        2.011  -4.592   3.293  0.00  0.00    -0.295 NA
ATOM      8  C   LIG    1        1.953  -6.054   3.400  0.00  0.00    +0.089 C 
ATOM      9  C   LIG    1        3.280  -6.619   3.896  0.00  0.00    +0.051 C 
ATOM     10  C   LIG    1        3.691  -5.913   5.164  0.00  0.00    -0.038 A 
ATOM     11  C   LIG    1        4.367  -6.614   6.150  0.00  0.00    +0.053 A 
ATOM     12  C   LIG    1        4.735  -5.915   7.293  0.00  0.00    +0.167 A 
ATOM     13  O   LIG    1        5.393  -6.339   8.395  0.00  0.00    -0.453 OA
ATOM     14  C   LIG    1        5.849  -5.141   9.058  0.00  0.00    +0.466 C 
ATOM     15  O   LIG    1        4.910  -4.130   8.638  0.00  0.00    -0.453 OA
ATOM     16  C   LIG    1        4.434  -4.551   7.444  0.00  0.00    +0.167 A 
ATOM     17  C   LIG    1        3.753  -3.852   6.460  0.00  0.00    +0.055 A 
ATOM     18  C   LIG    1        1.395  -4.024   2.278  0.00  0.00    +0.091 C 
ATOM     19  C   LIG    1        3.382  -4.563   5.313  0.00  0.00    -0.023 A 
ATOM     20  C   LIG    1        1.327  -2.629   2.166  0.00  0.00    +0.038 C 
ATOM     21  C   LIG    1        0.677  -1.999   1.089  0.00  0.00    +0.151 C 
ENDROOT
BRANCH   1  23
ATOM     22  C   LIG    1       -0.017   1.425   0.010  0.00  0.00    +0.194 C 
ATOM     23  O   LIG    1        0.002  -0.004   0.002  0.00  0.00    -0.377 OA
ENDBRANCH   1  23
BRANCH  21  24
ATOM     24  O   LIG    1        0.109  -2.740   0.102  0.00  0.00    -0.377 OA
ATOM     25  C   LIG    1        0.936  -3.076  -1.015  0.00  0.00    +0.194 C 
ENDBRANCH  21  24
TORSDOF 2
