REMARK  Name = ZINC03816089
REMARK                            x       y       z     vdW  Elec       q    Type
REMARK                         _______ _______ _______ _____ _____    ______ ____
ROOT
ATOM      1  C   LIG    1       10.084  -2.510  -1.766  0.00  0.00    +0.034 A 
ATOM      2  C   LIG    1        9.307  -3.633  -2.054  0.00  0.00    +0.025 A 
ATOM      3  C   LIG    1        7.980  -3.676  -1.695  0.00  0.00    +0.028 A 
ATOM      4  C   LIG    1        7.399  -2.594  -1.040  0.00  0.00    +0.050 A 
ATOM      5  C   LIG    1        8.177  -1.457  -0.747  0.00  0.00    +0.002 A 
ATOM      6  C   LIG    1        7.329  -0.534  -0.088  0.00  0.00    +0.041 A 
ATOM      7  C   LIG    1        6.097  -1.099   0.007  0.00  0.00    +0.106 A 
ATOM      8  N   LIG    1        6.129  -2.356  -0.565  0.00  0.00    -0.332 N 
ATOM      9  C   LIG    1        9.528  -1.426  -1.117  0.00  0.00    +0.033 A 
ENDROOT
BRANCH   1  11
ATOM     10  C   LIG    1       11.840  -3.127  -3.250  0.00  0.00    +0.218 C 
ATOM     11  N   LIG    1       11.434  -2.482  -2.138  0.00  0.00    -0.285 N 
ATOM     12  H   LIG    1       12.077  -1.998  -1.596  0.00  0.00    +0.155 HD
ATOM     13  O   LIG    1       11.025  -3.656  -3.976  0.00  0.00    -0.275 OA
BRANCH  10  14
ATOM     14  C   LIG    1       13.307  -3.192  -3.590  0.00  0.00    +0.102 C 
BRANCH  14  16
ATOM     15  C   LIG    1       12.739  -3.275  -6.022  0.00  0.00    +0.011 C 
ATOM     16  C   LIG    1       13.495  -3.975  -4.891  0.00  0.00    -0.029 C 
ATOM     17  C   LIG    1       12.949  -5.394  -4.715  0.00  0.00    +0.011 C 
ATOM     18  C   LIG    1       14.984  -4.041  -5.236  0.00  0.00    +0.011 C 
ENDBRANCH  14  16
ENDBRANCH  10  14
ENDBRANCH   1  11
BRANCH   7  19
ATOM     19  C   LIG    1        4.918  -0.473   0.625  0.00  0.00    +0.265 C 
ATOM     20  N   LIG    1        3.748  -1.139   0.669  0.00  0.00    -0.280 N 
ATOM     21  H   LIG    1        3.680  -2.028   0.286  0.00  0.00    +0.155 HD
ATOM     22  O   LIG    1        5.000   0.645   1.096  0.00  0.00    -0.268 OA
BRANCH  20  23
ATOM     23  C   LIG    1        2.630  -0.550   1.268  0.00  0.00    +0.034 A 
ATOM     24  C   LIG    1        1.351  -0.939   0.890  0.00  0.00    +0.023 A 
ATOM     25  C   LIG    1        0.250  -0.355   1.485  0.00  0.00    +0.002 A 
ATOM     26  C   LIG    1        0.419   0.616   2.455  0.00  0.00    +0.000 A 
ATOM     27  C   LIG    1        1.691   1.005   2.834  0.00  0.00    +0.002 A 
ATOM     28  C   LIG    1        2.796   0.425   2.243  0.00  0.00    +0.023 A 
ENDBRANCH  20  23
ENDBRANCH   7  19
BRANCH   8  29
ATOM     29  C   LIG    1        4.997  -3.282  -0.653  0.00  0.00    +0.160 C 
BRANCH  29  30
ATOM     30  C   LIG    1        4.853  -4.025   0.650  0.00  0.00    +0.007 A 
ATOM     31  C   LIG    1        3.784  -3.755   1.485  0.00  0.00    +0.008 A 
ATOM     32  C   LIG    1        3.651  -4.437   2.680  0.00  0.00    +0.000 A 
ATOM     33  C   LIG    1        4.586  -5.389   3.041  0.00  0.00    +0.003 A 
ATOM     34  C   LIG    1        5.655  -5.661   2.208  0.00  0.00    +0.039 A 
ATOM     35  C   LIG    1        5.787  -4.981   1.009  0.00  0.00    +0.128 A 
ATOM     36  F   LIG    1        6.828  -5.250   0.191  0.00  0.00    -0.205 F 
ENDBRANCH  29  30
ENDBRANCH   8  29
TORSDOF 7
