REMARK  Name = ZINC03791874
REMARK                            x       y       z     vdW  Elec       q    Type
REMARK                         _______ _______ _______ _____ _____    ______ ____
ROOT
ATOM      1  C   UNK A  1       -0.820   1.542   1.649  0.00  0.00    +0.000 C 
ATOM      2  C   UNK A  1       -1.064   3.033   1.421  0.00  0.00    +0.000 C 
ATOM      3  C   UNK A  1       -0.941   3.795   2.741  0.00  0.00    +0.001 C 
ATOM      4  C   UNK A  1       -1.676   5.126   2.646  0.00  0.00    +0.013 C 
ATOM      5  C   UNK A  0       -0.923   6.173   1.838  0.00  0.00    +0.084 C 
ATOM      6  C   UNK A  0       -1.033   5.894   0.358  0.00  0.00    +0.218 C 
ATOM      7  N   UNK A  1       -0.423   6.771  -0.501  0.00  0.00    -0.301 N 
ATOM      8  H   UNK A  1       -0.051   7.621  -0.187  0.00  0.00    +0.150 HD
ATOM      9  C   UNK A  1       -0.367   6.376  -1.927  0.00  0.00    +0.192 C 
ATOM     10  C   UNK A  1        0.366   5.044  -2.060  0.00  0.00    +0.102 C 
ATOM     11  S   UNK A  1       -0.817   3.688  -2.279  0.00  0.00    -0.158 S 
ATOM     12  C   UNK A  1        0.084   2.221  -1.707  0.00  0.00    +0.069 C 
ATOM     13  C   UNK A  1       -0.841   1.350  -0.854  0.00  0.00    +0.011 C 
ATOM     14  O   UNK A  0       -1.663   4.939  -0.037  0.00  0.00    -0.275 OA
ATOM     15  C   UNK A  1       -0.122   0.937   0.431  0.00  0.00    +0.001 C 
ENDROOT
BRANCH   9  16
ATOM     16  C   UNK A  1       -1.739   6.299  -2.536  0.00  0.00    +0.326 C 
ATOM     17  O   UNK A  1       -2.706   6.139  -1.829  0.00  0.00    -0.249 OA
BRANCH  16  18
ATOM     18  O   UNK A  1       -1.891   6.408  -3.865  0.00  0.00    -0.479 OA
ATOM     19  H   UNK A  1       -1.142   6.533  -4.413  0.00  0.00    +0.295 HD
ENDBRANCH  16  18
ENDBRANCH   9  16
BRANCH   5  20
ATOM     20  C   UNK A  0        0.547   6.247   2.244  0.00  0.00    +0.078 C 
BRANCH  20  21
ATOM     21  S   UNK A  0        0.670   6.732   3.988  0.00  0.00    -0.178 S 
ATOM     22  H   UNK A  0        1.993   6.763   4.225  0.00  0.00    +0.102 HD
ENDBRANCH  20  21
ENDBRANCH   5  20
TORSDOF 4
