REMARK  Name = ZINC03824390
REMARK                            x       y       z     vdW  Elec       q    Type
REMARK                         _______ _______ _______ _____ _____    ______ ____
ROOT
ATOM      1  C   LIG    1       -2.852   2.111   0.015  0.00  0.00    +0.004 C 
ATOM      2  C   LIG    1       -2.277   1.091  -0.998  0.00  0.00    -0.001 C 
ATOM      3  C   LIG    1       -0.795   1.527  -1.120  0.00  0.00    +0.032 C 
ATOM      4  C   LIG    1       -0.847   3.068  -1.074  0.00  0.00    +0.006 C 
ATOM      5  C   LIG    1       -0.806   3.751   0.297  0.00  0.00    +0.103 C 
ATOM      6  C   LIG    1       -2.157   3.439  -0.350  0.00  0.00    +0.006 C 
ENDROOT
BRANCH   3   7
ATOM      7  N   LIG    1       -0.025   1.014   0.027  0.00  0.00    +0.389 N 
ATOM      8  H   LIG    1       -0.476   1.316   0.899  0.00  0.00    -0.088 HD
ATOM      9  H   LIG    1        0.925   1.379   0.001  0.00  0.00    -0.088 HD
ATOM     10  H   LIG    1        0.002  -0.004   0.002  0.00  0.00    -0.088 HD
ENDBRANCH   3   7
BRANCH   3  11
ATOM     11  C   LIG    1       -0.213   1.057  -2.428  0.00  0.00    +0.293 C 
ATOM     12  O   LIG    1       -0.252   1.776  -3.399  0.00  0.00    -0.253 OA
BRANCH  11  13
ATOM     13  O   LIG    1        0.349  -0.159  -2.514  0.00  0.00    -0.482 OA
ATOM     14  H   LIG    1        0.379  -0.716  -1.761  0.00  0.00    +0.295 HD
ENDBRANCH  11  13
ENDBRANCH   3  11
BRANCH   5  15
ATOM     15  C   LIG    1       -0.372   5.193   0.340  0.00  0.00    +0.308 C 
ATOM     16  O   LIG    1       -0.083   5.768  -0.682  0.00  0.00    -0.251 OA
BRANCH  15  17
ATOM     17  O   LIG    1       -0.307   5.839   1.515  0.00  0.00    -0.480 OA
ATOM     18  H   LIG    1       -0.532   5.394   2.308  0.00  0.00    +0.295 HD
ENDBRANCH  15  17
ENDBRANCH   5  15
TORSDOF 5
