REMARK  Name = ZINC03806104
REMARK                            x       y       z     vdW  Elec       q    Type
REMARK                         _______ _______ _______ _____ _____    ______ ____
ROOT
ATOM      1  C   LIG    1        3.911  -6.043   3.020  0.00  0.00    -0.045 A 
ATOM      2  C   LIG    1        5.232  -5.883   2.643  0.00  0.00    +0.007 A 
ATOM      3  C   LIG    1        6.201  -5.649   3.600  0.00  0.00    +0.046 A 
ATOM      4  C   LIG    1        5.848  -5.574   4.939  0.00  0.00    +0.121 A 
ATOM      5  C   LIG    1        4.522  -5.735   5.315  0.00  0.00    +0.046 A 
ATOM      6  C   LIG    1        3.556  -5.963   4.354  0.00  0.00    +0.007 A 
ENDROOT
BRANCH   1   7
ATOM      7  C   LIG    1        2.856  -6.299   1.975  0.00  0.00    +0.067 C 
BRANCH   7   8
ATOM      8  C   LIG    1        2.293  -4.964   1.481  0.00  0.00    +0.188 C 
BRANCH   8   9
ATOM      9  N   LIG    1        1.595  -4.293   2.580  0.00  0.00    -0.180 NA
ATOM     10  H   LIG    1        1.107  -4.815   3.235  0.00  0.00    +0.149 HD
BRANCH   9  11
ATOM     11  S   LIG    1        1.640  -2.642   2.703  0.00  0.00    +0.030 S 
ATOM     12  O   LIG    1        0.893  -2.345   3.874  0.00  0.00    -0.158 OA
ATOM     13  O   LIG    1        3.019  -2.309   2.619  0.00  0.00    -0.158 OA
BRANCH  11  14
ATOM     14  C   LIG    1        0.763  -2.041   1.233  0.00  0.00    +0.185 C 
BRANCH  14  15
ATOM     15  C   LIG    1        0.742  -0.511   1.242  0.00  0.00    +0.024 C 
BRANCH  15  17
ATOM     16  C   LIG    1       -0.019   1.526   0.010  0.00  0.00    +0.004 C 
ATOM     17  C   LIG    1        0.002  -0.004   0.002  0.00  0.00    -0.002 C 
ENDBRANCH  15  17
ENDBRANCH  14  15
ENDBRANCH  11  14
ENDBRANCH   9  11
ENDBRANCH   8   9
BRANCH   8  18
ATOM     18  C   LIG    1        1.329  -5.213   0.350  0.00  0.00    +0.324 C 
ATOM     19  O   LIG    1        0.166  -4.862   0.453  0.00  0.00    -0.249 OA
BRANCH  18  20
ATOM     20  O   LIG    1        1.711  -5.766  -0.667  0.00  0.00    -0.479 OA
ATOM     21  H   LIG    1        2.605  -6.036  -0.746  0.00  0.00    +0.295 HD
ENDBRANCH  18  20
ENDBRANCH   8  18
ENDBRANCH   7   8
ENDBRANCH   1   7
BRANCH   4  22
ATOM     22  O   LIG    1        6.799  -5.345   5.882  0.00  0.00    -0.492 OA
BRANCH  22  23
ATOM     23  C   LIG    1        6.363  -5.280   7.241  0.00  0.00    +0.229 C 
BRANCH  23  24
ATOM     24  C   LIG    1        7.565  -5.017   8.151  0.00  0.00    +0.041 C 
BRANCH  24  25
ATOM     25  C   LIG    1        7.098  -4.948   9.606  0.00  0.00    +0.004 C 
BRANCH  25  26
ATOM     26  C   LIG    1        8.300  -4.684  10.515  0.00  0.00    +0.003 C 
BRANCH  26  27
ATOM     27  C   LIG    1        7.833  -4.615  11.971  0.00  0.00    -0.014 C 
ATOM     28  C   LIG    1        6.921  -3.400  12.159  0.00  0.00    -0.016 C 
ATOM     29  C   LIG    1        6.522  -3.291  13.632  0.00  0.00    -0.082 C 
ATOM     30  N   LIG    1        7.725  -3.134  14.458  0.00  0.00    +0.379 N 
ATOM     31  H   LIG    1        7.456  -3.010  15.422  0.00  0.00    -0.086 HD
ATOM     32  H   LIG    1        8.242  -2.325  14.148  0.00  0.00    -0.086 HD
ATOM     33  C   LIG    1        8.571  -4.328  14.338  0.00  0.00    -0.082 C 
ATOM     34  C   LIG    1        9.049  -4.476  12.892  0.00  0.00    -0.016 C 
ENDBRANCH  26  27
ENDBRANCH  25  26
ENDBRANCH  24  25
ENDBRANCH  23  24
ENDBRANCH  22  23
ENDBRANCH   4  22
TORSDOF 15
