REMARK  Name = ZINC03716178
REMARK                            x       y       z     vdW  Elec       q    Type
REMARK                         _______ _______ _______ _____ _____    ______ ____
ROOT
ATOM      1  C   LIG    1        3.151   0.678  -1.708  0.00  0.00    +0.094 A 
ATOM      2  C   LIG    1        2.743  -0.467  -2.367  0.00  0.00    +0.029 A 
ATOM      3  C   LIG    1        3.080  -0.659  -3.693  0.00  0.00    +0.025 A 
ATOM      4  C   LIG    1        3.840   0.293  -4.360  0.00  0.00    +0.030 A 
ATOM      5  C   LIG    1        4.253   1.439  -3.693  0.00  0.00    +0.025 A 
ATOM      6  C   LIG    1        3.908   1.628  -2.369  0.00  0.00    +0.029 A 
ENDROOT
BRANCH   4   7
ATOM      7  N   LIG    1        4.188   0.098  -5.699  0.00  0.00    -0.333 N 
ATOM      8  C   LIG    1        5.645   0.157  -5.878  0.00  0.00    +0.086 C 
ATOM      9  C   LIG    1        5.980   0.019  -7.365  0.00  0.00    -0.063 C 
ATOM     10  N   LIG    1        5.446  -1.258  -7.874  0.00  0.00    +0.381 N 
ATOM     11  H   LIG    1        5.666  -1.343  -8.873  0.00  0.00    -0.086 HD
ATOM     12  H   LIG    1        5.880  -2.035  -7.361  0.00  0.00    -0.086 HD
ATOM     13  C   LIG    1        3.984  -1.310  -7.691  0.00  0.00    -0.063 C 
ATOM     14  C   LIG    1        3.649  -1.172  -6.203  0.00  0.00    +0.086 C 
ENDBRANCH   4   7
BRANCH   1  15
ATOM     15  S   LIG    1        2.713   0.923  -0.019  0.00  0.00    +0.025 S 
ATOM     16  O   LIG    1        2.464  -0.365   0.527  0.00  0.00    -0.164 OA
ATOM     17  O   LIG    1        3.680   1.809   0.527  0.00  0.00    -0.164 OA
BRANCH  15  21
ATOM     18  C   LIG    1       -1.238   3.133   0.030  0.00  0.00    +0.000 A 
ATOM     19  C   LIG    1       -1.219   1.751   0.017  0.00  0.00    +0.002 A 
ATOM     20  C   LIG    1       -0.013   1.076   0.008  0.00  0.00    +0.027 A 
ATOM     21  C   LIG    1        1.175   1.783   0.000  0.00  0.00    +0.094 A 
ATOM     22  C   LIG    1        1.156   3.165   0.008  0.00  0.00    +0.027 A 
ATOM     23  C   LIG    1       -0.050   3.840   0.022  0.00  0.00    +0.002 A 
ENDBRANCH  15  21
ENDBRANCH   1  15
TORSDOF 3
