REMARK  Name = ZINC03831612
REMARK                            x       y       z     vdW  Elec       q    Type
REMARK                         _______ _______ _______ _____ _____    ______ ____
ROOT
ATOM      1  C   LIG    1       -4.788  -0.142   0.634  0.00  0.00    +0.157 C 
ATOM      2  C   LIG    1       -3.390  -0.034   0.018  0.00  0.00    +0.195 C 
ATOM      3  C   LIG    1       -3.425  -0.542  -1.398  0.00  0.00    +0.068 C 
ATOM      4  C   LIG    1       -4.413  -1.299  -1.853  0.00  0.00    +0.204 C 
ATOM      5  O   LIG    1       -5.470  -1.671  -1.091  0.00  0.00    -0.477 OA
ATOM      6  C   LIG    1       -5.342  -1.540   0.327  0.00  0.00    +0.228 C 
ENDROOT
BRANCH   1   9
ATOM      7  C   LIG    1       -6.583   3.171  -0.040  0.00  0.00    +0.109 C 
ATOM      8  C   LIG    1       -5.681   2.124   0.560  0.00  0.00    +0.210 C 
ATOM      9  N   LIG    1       -5.665   0.876   0.051  0.00  0.00    -0.305 N 
ATOM     10  H   LIG    1       -6.234   0.652  -0.702  0.00  0.00    +0.149 HD
ATOM     11  O   LIG    1       -4.969   2.404   1.501  0.00  0.00    -0.276 OA
ENDBRANCH   1   9
BRANCH   2  12
ATOM     12  N   LIG    1       -2.960   1.366   0.024  0.00  0.00    -0.270 N 
ATOM     13  H   LIG    1       -3.621   2.076   0.031  0.00  0.00    +0.258 HD
BRANCH  12  14
ATOM     14  C   LIG    1       -1.620   1.674   0.019  0.00  0.00    +0.341 C 
ATOM     15  N   LIG    1       -1.297   2.959   0.024  0.00  0.00    -0.292 N 
ATOM     16  H   LIG    1       -2.034   3.674   0.032  0.00  0.00    +0.255 HD
ATOM     17  H   LIG    1       -0.316   3.239   0.021  0.00  0.00    +0.255 HD
BRANCH  14  18
ATOM     18  N   LIG    1       -0.683   0.668   0.009  0.00  0.00    -0.292 N 
ATOM     19  H   LIG    1        0.262   0.885   0.002  0.00  0.00    +0.255 HD
ATOM     20  H   LIG    1       -0.968  -0.260   0.005  0.00  0.00    +0.255 HD
ENDBRANCH  14  18
ENDBRANCH  12  14
ENDBRANCH   2  12
BRANCH   4  21
ATOM     21  C   LIG    1       -4.359  -1.757  -3.253  0.00  0.00    +0.372 C 
ATOM     22  O   LIG    1       -3.424  -1.440  -3.960  0.00  0.00    -0.242 OA
BRANCH  21  23
ATOM     23  O   LIG    1       -5.348  -2.528  -3.748  0.00  0.00    -0.475 OA
ATOM     24  H   LIG    1       -6.069  -2.773  -3.202  0.00  0.00    +0.296 HD
ENDBRANCH  21  23
ENDBRANCH   4  21
BRANCH   6  25
ATOM     25  C   LIG    1       -6.713  -1.708   0.986  0.00  0.00    +0.187 C 
BRANCH  25  26
ATOM     26  O   LIG    1       -6.580  -1.576   2.403  0.00  0.00    -0.385 OA
ATOM     27  H   LIG    1       -5.989  -2.227   2.804  0.00  0.00    +0.210 HD
ENDBRANCH  25  26
BRANCH  25  28
ATOM     28  C   LIG    1       -7.273  -3.092   0.653  0.00  0.00    +0.172 C 
BRANCH  28  29
ATOM     29  O   LIG    1       -7.406  -3.224  -0.764  0.00  0.00    -0.387 OA
ATOM     30  H   LIG    1       -7.997  -2.573  -1.165  0.00  0.00    +0.210 HD
ENDBRANCH  28  29
BRANCH  28  31
ATOM     31  C   LIG    1       -8.644  -3.260   1.312  0.00  0.00    +0.189 C 
BRANCH  31  32
ATOM     32  O   LIG    1       -9.115  -4.592   1.099  0.00  0.00    -0.392 OA
ATOM     33  H   LIG    1       -9.981  -4.770   1.490  0.00  0.00    +0.210 HD
ENDBRANCH  31  32
ENDBRANCH  28  31
ENDBRANCH  25  28
ENDBRANCH   6  25
TORSDOF 12
