REMARK  Name = ZINC03799478
REMARK                            x       y       z     vdW  Elec       q    Type
REMARK                         _______ _______ _______ _____ _____    ______ ____
ROOT
ATOM      1  C   LIG    1        0.642   7.965   5.416  0.00  0.00    +0.001 A 
ATOM      2  C   LIG    1       -0.070   8.468   6.505  0.00  0.00    +0.002 A 
ATOM      3  C   LIG    1       -1.181   7.838   6.969  0.00  0.00    +0.028 A 
ATOM      4  C   LIG    1       -1.629   6.656   6.345  0.00  0.00    +0.073 A 
ATOM      5  C   LIG    1       -0.901   6.147   5.238  0.00  0.00    +0.022 A 
ATOM      6  C   LIG    1       -1.338   4.966   4.605  0.00  0.00    +0.050 A 
ATOM      7  C   LIG    1       -2.497   4.342   5.108  0.00  0.00    +0.022 A 
ATOM      8  C   LIG    1       -2.989   3.159   4.531  0.00  0.00    +0.012 A 
ATOM      9  C   LIG    1       -4.106   2.575   5.041  0.00  0.00    +0.001 A 
ATOM     10  C   LIG    1       -4.770   3.132   6.134  0.00  0.00    +0.002 A 
ATOM     11  C   LIG    1       -4.321   4.272   6.721  0.00  0.00    +0.028 A 
ATOM     12  C   LIG    1       -3.166   4.910   6.224  0.00  0.00    +0.073 A 
ATOM     13  N   LIG    1       -2.717   6.029   6.791  0.00  0.00    -0.247 NA
ATOM     14  C   LIG    1        0.243   6.827   4.787  0.00  0.00    +0.012 A 
ENDROOT
BRANCH   6  15
ATOM     15  N   LIG    1       -0.658   4.442   3.526  0.00  0.00    -0.313 N 
ATOM     16  H   LIG    1       -0.858   4.752   2.629  0.00  0.00    +0.152 HD
BRANCH  15  17
ATOM     17  C   LIG    1        0.321   3.465   3.725  0.00  0.00    +0.033 A 
ATOM     18  C   LIG    1        0.928   2.856   2.634  0.00  0.00    +0.029 A 
ATOM     19  C   LIG    1        1.892   1.886   2.830  0.00  0.00    -0.019 A 
ATOM     20  C   LIG    1        2.263   1.525   4.111  0.00  0.00    +0.028 A 
ATOM     21  C   LIG    1        1.663   2.134   5.207  0.00  0.00    +0.027 A 
ATOM     22  C   LIG    1        0.691   3.105   5.014  0.00  0.00    +0.046 A 
BRANCH  21  23
ATOM     23  N   LIG    1        2.038   1.768   6.502  0.00  0.00    -0.358 N 
ATOM     24  H   LIG    1        1.677   2.246   7.264  0.00  0.00    +0.142 HD
ATOM     25  H   LIG    1        2.660   1.036   6.638  0.00  0.00    +0.142 HD
ENDBRANCH  21  23
BRANCH  19  26
ATOM     26  C   LIG    1        2.545   1.225   1.643  0.00  0.00    +0.191 C 
BRANCH  26  27
ATOM     27  O   LIG    1        1.799   0.063   1.276  0.00  0.00    -0.390 OA
ATOM     28  H   LIG    1        2.162  -0.414   0.517  0.00  0.00    +0.210 HD
ENDBRANCH  26  27
ENDBRANCH  19  26
ENDBRANCH  15  17
ENDBRANCH   6  15
TORSDOF 5
