REMARK  Name = ZINC03803377
REMARK                            x       y       z     vdW  Elec       q    Type
REMARK                         _______ _______ _______ _____ _____    ______ ____
ROOT
ATOM      1  C   LIG    1        0.344  -3.210   4.742  0.00  0.00    +0.034 A 
ATOM      2  C   LIG    1        0.031  -2.200   5.644  0.00  0.00    +0.023 A 
ATOM      3  C   LIG    1        0.224  -2.392   7.000  0.00  0.00    +0.002 A 
ATOM      4  C   LIG    1        0.730  -3.587   7.467  0.00  0.00    +0.008 A 
ATOM      5  C   LIG    1        1.048  -4.610   6.568  0.00  0.00    -0.023 A 
ATOM      6  C   LIG    1        0.847  -4.417   5.199  0.00  0.00    +0.031 A 
ENDROOT
BRANCH   1   8
ATOM      7  C   LIG    1       -0.263  -4.031   2.593  0.00  0.00    +0.218 C 
ATOM      8  N   LIG    1        0.146  -3.009   3.371  0.00  0.00    -0.285 N 
ATOM      9  H   LIG    1        0.303  -2.135   2.981  0.00  0.00    +0.155 HD
ATOM     10  O   LIG    1       -0.389  -5.140   3.065  0.00  0.00    -0.275 OA
BRANCH   7  11
ATOM     11  C   LIG    1       -0.564  -3.794   1.135  0.00  0.00    +0.114 C 
BRANCH  11  12
ATOM     12  C   LIG    1       -1.091  -5.085   0.507  0.00  0.00    +0.075 C 
BRANCH  12  14
ATOM     13  C   LIG    1       -2.954  -6.750   0.524  0.00  0.00    +0.005 C 
ATOM     14  C   LIG    1       -2.427  -5.458   1.152  0.00  0.00    +0.015 C 
ENDBRANCH  12  14
BRANCH  12  15
ATOM     15  C   LIG    1       -0.097  -6.196   0.732  0.00  0.00    +0.311 C 
ATOM     16  O   LIG    1       -0.380  -7.128   1.465  0.00  0.00    -0.250 OA
BRANCH  15  17
ATOM     17  O   LIG    1        0.990  -6.162   0.181  0.00  0.00    -0.480 OA
ATOM     18  H   LIG    1        1.208  -5.445  -0.382  0.00  0.00    +0.295 HD
ENDBRANCH  15  17
ENDBRANCH  12  15
BRANCH  12  19
ATOM     19  C   LIG    1       -1.291  -4.877  -0.996  0.00  0.00    +0.015 C 
ATOM     20  C   LIG    1       -2.300  -3.750  -1.225  0.00  0.00    +0.005 C 
ENDBRANCH  12  19
ENDBRANCH  11  12
ENDBRANCH   7  11
ENDBRANCH   1   8
BRANCH   5  21
ATOM     21  C   LIG    1        1.588  -5.888   7.063  0.00  0.00    +0.010 C 
ATOM     22  C   LIG    1        1.776  -6.073   8.383  0.00  0.00    +0.035 C 
BRANCH  22  23
ATOM     23  C   LIG    1        2.313  -7.345   8.876  0.00  0.00    +0.101 A 
ATOM     24  N   LIG    1        2.566  -7.727  10.124  0.00  0.00    -0.244 NA
ATOM     25  C   LIG    1        3.052  -8.916  10.385  0.00  0.00    +0.052 A 
ATOM     26  C   LIG    1        3.307  -9.783   9.367  0.00  0.00    +0.070 A 
ATOM     27  S   LIG    1        2.799  -8.802   7.961  0.00  0.00    -0.076 S 
BRANCH  25  28
ATOM     28  C   LIG    1        3.329  -9.322  11.810  0.00  0.00    +0.038 C 
ATOM     29  C   LIG    1        4.168 -10.604  11.933  0.00  0.00    +0.010 C 
ATOM     30  C   LIG    1        3.254 -10.997  13.105  0.00  0.00    +0.001 C 
ATOM     31  C   LIG    1        2.178 -10.107  12.461  0.00  0.00    +0.010 C 
ENDBRANCH  25  28
ENDBRANCH  22  23
ENDBRANCH   5  21
TORSDOF 10
