REMARK  Name = ZINC03871459
REMARK                            x       y       z     vdW  Elec       q    Type
REMARK                         _______ _______ _______ _____ _____    ______ ____
ROOT
ATOM      1  C   LIG    1       -0.017   1.383   0.010  0.00  0.00    +0.003 A 
ATOM      2  C   LIG    1        1.157   2.106   0.002  0.00  0.00    +0.014 A 
ATOM      3  C   LIG    1        2.380   1.436  -0.013  0.00  0.00    +0.048 A 
ATOM      4  C   LIG    1        2.407   0.023  -0.021  0.00  0.00    +0.009 A 
ATOM      5  C   LIG    1        1.202  -0.694  -0.013  0.00  0.00    +0.033 A 
ATOM      6  C   LIG    1        3.707  -0.648  -0.037  0.00  0.00    +0.028 A 
ATOM      7  C   LIG    1        4.830   0.088  -0.044  0.00  0.00    +0.086 A 
ATOM      8  N   LIG    1        4.809   1.454  -0.036  0.00  0.00    -0.329 N 
ATOM      9  H   LIG    1        5.651   1.935  -0.042  0.00  0.00    +0.168 HD
ATOM     10  C   LIG    1        3.659   2.156  -0.022  0.00  0.00    +0.257 A 
ATOM     11  O   LIG    1        3.680   3.373  -0.016  0.00  0.00    -0.267 OA
ATOM     12  C   LIG    1        0.002  -0.004   0.002  0.00  0.00    +0.023 A 
ENDROOT
BRANCH   5  13
ATOM     13  N   LIG    1        1.213  -2.089  -0.021  0.00  0.00    -0.357 N 
ATOM     14  H   LIG    1        0.376  -2.580  -0.016  0.00  0.00    +0.142 HD
ATOM     15  H   LIG    1        2.056  -2.567  -0.032  0.00  0.00    +0.142 HD
ENDBRANCH   5  13
TORSDOF 1
