REMARK  Name = ZINC03870887
REMARK                            x       y       z     vdW  Elec       q    Type
REMARK                         _______ _______ _______ _____ _____    ______ ____
ROOT
ATOM      1  C   LIG    1       -3.064   7.163   0.782  0.00  0.00    +0.204 A 
ATOM      2  C   LIG    1       -2.172   7.720   1.698  0.00  0.00    +0.166 A 
ATOM      3  C   LIG    1       -1.157   6.954   2.248  0.00  0.00    +0.096 A 
ATOM      4  C   LIG    1       -1.018   5.622   1.889  0.00  0.00    +0.147 A 
ATOM      5  C   LIG    1       -1.916   5.057   0.966  0.00  0.00    +0.113 A 
ATOM      6  C   LIG    1       -1.751   3.641   0.601  0.00  0.00    +0.238 A 
ATOM      7  C   LIG    1       -0.685   2.929   1.210  0.00  0.00    +0.211 A 
ATOM      8  C   LIG    1        0.127   3.569   2.098  0.00  0.00    +0.181 A 
ATOM      9  O   LIG    1       -2.502   3.099  -0.195  0.00  0.00    -0.283 OA
ATOM     10  O   LIG    1       -0.033   4.864   2.418  0.00  0.00    -0.451 OA
ATOM     11  C   LIG    1       -2.941   5.834   0.413  0.00  0.00    +0.177 A 
ENDROOT
BRANCH   8  12
ATOM     12  C   LIG    1        1.226   2.813   2.728  0.00  0.00    +0.021 A 
ATOM     13  C   LIG    1        0.978   1.561   3.298  0.00  0.00    +0.015 A 
ATOM     14  C   LIG    1        2.009   0.856   3.880  0.00  0.00    +0.046 A 
ATOM     15  C   LIG    1        3.290   1.393   3.910  0.00  0.00    +0.117 A 
ATOM     16  C   LIG    1        3.539   2.639   3.349  0.00  0.00    +0.046 A 
ATOM     17  C   LIG    1        2.516   3.349   2.760  0.00  0.00    +0.015 A 
BRANCH  15  18
ATOM     18  O   LIG    1        4.302   0.696   4.489  0.00  0.00    -0.507 OA
ATOM     19  H   LIG    1        5.317   1.119   4.514  0.00  0.00    +0.292 HD
ENDBRANCH  15  18
ENDBRANCH   8  12
BRANCH   1  21
ATOM     20  C   LIG    1       -5.301   7.955   0.953  0.00  0.00    +0.277 C 
ATOM     21  O   LIG    1       -4.057   7.928   0.251  0.00  0.00    -0.488 OA
ENDBRANCH   1  21
BRANCH   2  22
ATOM     22  O   LIG    1       -2.300   9.024   2.055  0.00  0.00    -0.503 OA
ATOM     23  H   LIG    1       -1.599   9.468   2.778  0.00  0.00    +0.292 HD
ENDBRANCH   2  22
BRANCH   7  24
ATOM     24  O   LIG    1       -0.479   1.617   0.915  0.00  0.00    -0.488 OA
ATOM     25  C   LIG    1        0.297   1.328  -0.250  0.00  0.00    +0.277 C 
ENDBRANCH   7  24
BRANCH  11  26
ATOM     26  O   LIG    1       -3.808   5.289  -0.479  0.00  0.00    -0.503 OA
ATOM     27  H   LIG    1       -3.707   4.233  -0.769  0.00  0.00    +0.292 HD
ENDBRANCH  11  26
TORSDOF 6
