REMARK  Name = ZINC03777839
REMARK                            x       y       z     vdW  Elec       q    Type
REMARK                         _______ _______ _______ _____ _____    ______ ____
ROOT
ATOM      1  C   LIG    1       -1.472  -0.500  -2.466  0.00  0.00    -0.011 A 
ATOM      2  C   LIG    1       -2.328  -1.281  -1.690  0.00  0.00    +0.010 A 
ATOM      3  C   LIG    1       -3.689  -1.072  -1.744  0.00  0.00    +0.026 A 
ATOM      4  C   LIG    1       -4.210  -0.083  -2.571  0.00  0.00    +0.060 A 
ATOM      5  C   LIG    1       -3.359   0.697  -3.345  0.00  0.00    +0.143 A 
ATOM      6  C   LIG    1       -1.996   0.495  -3.290  0.00  0.00    +0.043 A 
ENDROOT
BRANCH   1   8
ATOM      7  C   LIG    1        0.707  -0.490  -1.238  0.00  0.00    +0.056 A 
ATOM      8  C   LIG    1       -0.007  -0.723  -2.411  0.00  0.00    +0.043 A 
ATOM      9  C   LIG    1        0.698  -1.176  -3.541  0.00  0.00    +0.129 A 
ATOM     10  N   LIG    1        2.009  -1.363  -3.447  0.00  0.00    -0.199 NA
ATOM     11  C   LIG    1        2.647  -1.128  -2.310  0.00  0.00    +0.214 A 
ATOM     12  N   LIG    1        2.015  -0.696  -1.228  0.00  0.00    -0.219 NA
BRANCH   9  13
ATOM     13  N   LIG    1        0.035  -1.423  -4.731  0.00  0.00    -0.343 N 
ATOM     14  H   LIG    1        0.529  -1.736  -5.505  0.00  0.00    +0.144 HD
ATOM     15  H   LIG    1       -0.923  -1.284  -4.790  0.00  0.00    +0.144 HD
ENDBRANCH   9  13
BRANCH  11  16
ATOM     16  N   LIG    1        4.014  -1.336  -2.251  0.00  0.00    -0.327 N 
ATOM     17  H   LIG    1        4.495  -1.168  -1.426  0.00  0.00    +0.145 HD
ATOM     18  H   LIG    1        4.491  -1.649  -3.036  0.00  0.00    +0.145 HD
ENDBRANCH  11  16
BRANCH   7  20
ATOM     19  C   LIG    1       -0.019   1.526   0.010  0.00  0.00    +0.010 C 
ATOM     20  C   LIG    1        0.002  -0.004   0.002  0.00  0.00    +0.053 C 
ENDBRANCH   7  20
ENDBRANCH   1   8
BRANCH   4  21
ATOM     21  N   LIG    1       -5.590   0.127  -2.623  0.00  0.00    -0.327 N 
ATOM     22  C   LIG    1       -6.221   1.077  -1.705  0.00  0.00    +0.129 C 
BRANCH  21  23
ATOM     23  C   LIG    1       -6.405  -0.603  -3.598  0.00  0.00    +0.140 C 
BRANCH  23  24
ATOM     24  C   LIG    1       -6.879  -1.896  -2.987  0.00  0.00    -0.030 A 
ATOM     25  C   LIG    1       -6.113  -3.041  -3.110  0.00  0.00    +0.005 A 
ATOM     26  C   LIG    1       -6.548  -4.227  -2.549  0.00  0.00    +0.000 A 
ATOM     27  C   LIG    1       -7.749  -4.269  -1.866  0.00  0.00    +0.000 A 
ATOM     28  C   LIG    1       -8.515  -3.125  -1.743  0.00  0.00    +0.000 A 
ATOM     29  C   LIG    1       -8.078  -1.938  -2.300  0.00  0.00    +0.005 A 
ENDBRANCH  23  24
ENDBRANCH  21  23
ENDBRANCH   4  21
BRANCH   5  30
ATOM     30  N   LIG    1       -3.916   1.748  -4.226  0.00  0.00    +0.008 N 
ATOM     31  O   LIG    1       -3.177   2.426  -4.900  0.00  0.00    -0.130 OA
BRANCH  30  32
ATOM     32  O   LIG    1       -5.111   1.928  -4.271  0.00  0.00    -0.396 OA
ATOM     33  H   LIG    1       -5.684   1.402  -3.748  0.00  0.00    +0.329 HD
ENDBRANCH  30  32
ENDBRANCH   5  30
TORSDOF 9
