REMARK  Name = ZINC03639394
REMARK                            x       y       z     vdW  Elec       q    Type
REMARK                         _______ _______ _______ _____ _____    ______ ____
ROOT
ATOM      1  C   LIG    1        1.096  -0.712   0.229  0.00  0.00    +0.036 A 
ATOM      2  C   LIG    1        0.061   0.063   0.737  0.00  0.00    +0.024 A 
ATOM      3  C   LIG    1        0.022   1.418   0.476  0.00  0.00    +0.009 A 
ATOM      4  C   LIG    1        1.013   2.005  -0.291  0.00  0.00    +0.002 A 
ATOM      5  C   LIG    1        2.045   1.237  -0.798  0.00  0.00    +0.009 A 
ATOM      6  C   LIG    1        2.090  -0.119  -0.541  0.00  0.00    +0.024 A 
ENDROOT
BRANCH   1   8
ATOM      7  C   LIG    1        0.011  -2.737   1.160  0.00  0.00    +0.138 C 
ATOM      8  N   LIG    1        1.139  -2.084   0.491  0.00  0.00    -0.271 N 
ATOM      9  C   LIG    1        2.217  -2.807   0.128  0.00  0.00    +0.251 C 
ATOM     10  O   LIG    1        3.200  -2.249  -0.318  0.00  0.00    -0.270 OA
BRANCH   9  11
ATOM     11  C   LIG    1        2.203  -4.278   0.271  0.00  0.00    +0.037 A 
ATOM     12  C   LIG    1        0.989  -4.963   0.359  0.00  0.00    +0.013 A 
ATOM     13  C   LIG    1        0.984  -6.336   0.487  0.00  0.00    +0.001 A 
ATOM     14  C   LIG    1        2.177  -7.034   0.541  0.00  0.00    +0.000 A 
ATOM     15  C   LIG    1        3.383  -6.361   0.460  0.00  0.00    +0.001 A 
ATOM     16  C   LIG    1        3.403  -4.989   0.325  0.00  0.00    +0.013 A 
ENDBRANCH   9  11
ENDBRANCH   1   8
BRANCH   4  17
ATOM     17  C   LIG    1        0.967   3.485  -0.574  0.00  0.00    +0.282 C 
BRANCH  17  18
ATOM     18  C   LIG    1        0.756   3.711  -2.072  0.00  0.00    +0.431 C 
ATOM     19  F   LIG    1        1.812   3.132  -2.784  0.00  0.00    -0.167 F 
ATOM     20  F   LIG    1        0.714   5.084  -2.335  0.00  0.00    -0.167 F 
ATOM     21  F   LIG    1       -0.450   3.122  -2.468  0.00  0.00    -0.167 F 
ENDBRANCH  17  18
BRANCH  17  22
ATOM     22  C   LIG    1        2.286   4.128  -0.141  0.00  0.00    +0.431 C 
ATOM     23  F   LIG    1        2.544   3.809   1.196  0.00  0.00    -0.167 F 
ATOM     24  F   LIG    1        2.195   5.517  -0.280  0.00  0.00    -0.167 F 
ATOM     25  F   LIG    1        3.325   3.646  -0.945  0.00  0.00    -0.167 F 
ENDBRANCH  17  22
BRANCH  17  26
ATOM     26  O   LIG    1       -0.112   4.075   0.153  0.00  0.00    -0.369 OA
ATOM     27  H   LIG    1       -0.981   3.715  -0.070  0.00  0.00    +0.211 HD
ENDBRANCH  17  26
ENDBRANCH   4  17
TORSDOF 6
