REMARK  Name = ZINC03872336
REMARK                            x       y       z     vdW  Elec       q    Type
REMARK                         _______ _______ _______ _____ _____    ______ ____
ROOT
ATOM      1  C   LIG    1        4.052  -0.944   1.435  0.00  0.00    +0.089 C 
ENDROOT
BRANCH   1   2
ATOM      2  C   LIG    1        5.413  -1.592   1.460  0.00  0.00    +0.218 C 
ATOM      3  N   LIG    1        6.056  -1.763   2.632  0.00  0.00    -0.305 N 
ATOM      4  H   LIG    1        5.644  -1.469   3.459  0.00  0.00    +0.149 HD
ATOM      5  O   LIG    1        5.928  -1.960   0.426  0.00  0.00    -0.275 OA
BRANCH   3   6
ATOM      6  C   LIG    1        7.378  -2.393   2.657  0.00  0.00    +0.224 C 
BRANCH   6   7
ATOM      7  C   LIG    1        7.875  -2.464   4.078  0.00  0.00    +0.322 C 
ATOM      8  O   LIG    1        7.187  -2.029   4.986  0.00  0.00    -0.249 OA
BRANCH   7   9
ATOM      9  O   LIG    1        8.963  -2.957   4.320  0.00  0.00    -0.480 OA
ATOM     10  H   LIG    1        9.492  -3.291   3.622  0.00  0.00    +0.295 HD
ENDBRANCH   7   9
ENDBRANCH   6   7
ENDBRANCH   3   6
ENDBRANCH   1   2
BRANCH   1  11
ATOM     11  C   LIG    1        3.024  -1.938   0.891  0.00  0.00    +0.048 C 
BRANCH  11  15
ATOM     12  C   LIG    1        2.644  -5.221   3.597  0.00  0.00    +0.000 A 
ATOM     13  C   LIG    1        1.886  -4.080   3.784  0.00  0.00    +0.000 A 
ATOM     14  C   LIG    1        2.009  -3.018   2.908  0.00  0.00    +0.003 A 
ATOM     15  C   LIG    1        2.890  -3.096   1.846  0.00  0.00    -0.047 A 
ATOM     16  C   LIG    1        3.650  -4.236   1.660  0.00  0.00    +0.003 A 
ATOM     17  C   LIG    1        3.525  -5.299   2.535  0.00  0.00    +0.000 A 
ENDBRANCH  11  15
ENDBRANCH   1  11
BRANCH   1  18
ATOM     18  C   LIG    1        4.093   0.292   0.534  0.00  0.00    +0.078 C 
BRANCH  18  19
ATOM     19  S   LIG    1        2.504   1.163   0.630  0.00  0.00    -0.177 S 
ATOM     20  H   LIG    1        2.660   2.216  -0.192  0.00  0.00    +0.102 HD
ENDBRANCH  18  19
ENDBRANCH   1  18
TORSDOF 8
