REMARK  Name = ZINC03639948
REMARK                            x       y       z     vdW  Elec       q    Type
REMARK                         _______ _______ _______ _____ _____    ______ ____
ROOT
ATOM      1  C   LIG    1        0.002  -0.004   0.002  0.00  0.00    +0.137 A 
ATOM      2  C   LIG    1       -0.017   1.372   0.010  0.00  0.00    +0.050 A 
ATOM      3  C   LIG    1        1.314   1.799  -0.001  0.00  0.00    +0.050 A 
ATOM      4  C   LIG    1        2.099   0.660  -0.014  0.00  0.00    +0.130 A 
ATOM      5  O   LIG    1        1.283  -0.415  -0.012  0.00  0.00    -0.455 OA
ENDROOT
BRANCH   4   6
ATOM      6  C   LIG    1        3.510   0.628  -0.028  0.00  0.00    +0.066 C 
ATOM      7  C   LIG    1        4.165  -0.570  -0.040  0.00  0.00    +0.080 C 
ATOM      8  C   LIG    1        5.568  -0.838  -0.055  0.00  0.00    +0.259 C 
ATOM      9  N   LIG    1        5.958  -2.100  -0.065  0.00  0.00    -0.244 N 
ATOM     10  C   LIG    1        5.057  -3.107  -0.060  0.00  0.00    +0.121 C 
ATOM     11  S   LIG    1        5.336  -4.796  -0.070  0.00  0.00    -0.027 S 
ATOM     12  O   LIG    1        6.380   0.070  -0.058  0.00  0.00    -0.269 OA
ATOM     13  S   LIG    1        3.502  -2.229  -0.034  0.00  0.00    -0.061 S 
BRANCH   9  14
ATOM     14  C   LIG    1        7.390  -2.413  -0.080  0.00  0.00    +0.235 C 
BRANCH  14  15
ATOM     15  C   LIG    1        7.895  -2.527   1.335  0.00  0.00    +0.323 C 
ATOM     16  O   LIG    1        7.137  -2.363   2.262  0.00  0.00    -0.249 OA
BRANCH  15  17
ATOM     17  O   LIG    1        9.186  -2.809   1.566  0.00  0.00    -0.480 OA
ATOM     18  H   LIG    1        9.774  -2.936   0.848  0.00  0.00    +0.295 HD
ENDBRANCH  15  17
ENDBRANCH  14  15
ENDBRANCH   9  14
ENDBRANCH   4   6
BRANCH   1  23
ATOM     19  C   LIG    1       -3.411  -2.530   0.020  0.00  0.00    +0.014 A 
ATOM     20  C   LIG    1       -3.309  -1.505   0.944  0.00  0.00    +0.021 A 
ATOM     21  C   LIG    1       -2.200  -0.683   0.949  0.00  0.00    +0.052 A 
ATOM     22 CL   LIG    1       -2.070   0.597   2.113  0.00  0.00    -0.083 Cl
ATOM     23  C   LIG    1       -1.184  -0.882   0.008  0.00  0.00    +0.036 A 
ATOM     24  C   LIG    1       -1.295  -1.918  -0.922  0.00  0.00    +0.025 A 
ATOM     25  C   LIG    1       -2.407  -2.735  -0.910  0.00  0.00    +0.056 A 
BRANCH  25  26
ATOM     26  C   LIG    1       -2.528  -3.853  -1.913  0.00  0.00    +0.417 C 
ATOM     27  F   LIG    1       -1.861  -3.498  -3.090  0.00  0.00    -0.166 F 
ATOM     28  F   LIG    1       -3.879  -4.084  -2.193  0.00  0.00    -0.166 F 
ATOM     29  F   LIG    1       -1.956  -5.016  -1.386  0.00  0.00    -0.166 F 
ENDBRANCH  25  26
ENDBRANCH   1  23
TORSDOF 6
