REMARK  Name = ZINC03871103
REMARK                            x       y       z     vdW  Elec       q    Type
REMARK                         _______ _______ _______ _____ _____    ______ ____
ROOT
ATOM      1  C   LIG    1       -2.450   2.070   5.285  0.00  0.00    +0.226 C 
ATOM      2  C   LIG    1       -3.913   1.741   4.915  0.00  0.00    +0.088 C 
ATOM      3  C   LIG    1       -3.950   1.871   3.376  0.00  0.00    +0.150 C 
ATOM      4  C   LIG    1       -2.505   2.263   2.998  0.00  0.00    +0.175 C 
ATOM      5  O   LIG    1       -1.693   1.778   4.090  0.00  0.00    -0.348 OA
ENDROOT
BRANCH   1  15
ATOM      6  C   LIG    1       -2.610   1.324   7.614  0.00  0.00    +0.113 A 
ATOM      7  C   LIG    1       -2.199   0.540   8.634  0.00  0.00    +0.098 A 
ATOM      8 BR   LIG    1       -3.028   0.658  10.329  0.00  0.00    -0.043 Br
ATOM      9  C   LIG    1       -1.134  -0.369   8.417  0.00  0.00    +0.268 A 
ATOM     10  N   LIG    1       -0.558  -0.436   7.200  0.00  0.00    -0.274 N 
ATOM     11  C   LIG    1       -0.991   0.355   6.200  0.00  0.00    +0.331 A 
ATOM     12  O   LIG    1       -0.462   0.283   5.108  0.00  0.00    -0.246 OA
ATOM     13  H   LIG    1        0.194  -1.075   7.039  0.00  0.00    +0.173 HD
ATOM     14  O   LIG    1       -0.742  -1.083   9.323  0.00  0.00    -0.267 OA
ATOM     15  N   LIG    1       -2.001   1.222   6.392  0.00  0.00    -0.273 N 
ENDBRANCH   1  15
BRANCH   3  16
ATOM     16  O   LIG    1       -4.304   0.624   2.776  0.00  0.00    -0.389 OA
ATOM     17  H   LIG    1       -5.202   0.329   2.981  0.00  0.00    +0.210 HD
ENDBRANCH   3  16
BRANCH   4  18
ATOM     18  C   LIG    1       -2.095   1.586   1.688  0.00  0.00    +0.206 C 
BRANCH  18  19
ATOM     19  O   LIG    1       -0.772   1.995   1.335  0.00  0.00    -0.284 OA
BRANCH  19  20
ATOM     20  P   LIG    1       -0.018   1.476   0.010  0.00  0.00    +0.472 P 
ATOM     21  O   LIG    1        0.002  -0.004   0.002  0.00  0.00    -0.228 OA
BRANCH  20  22
ATOM     22  O   LIG    1       -0.797   2.009  -1.294  0.00  0.00    -0.303 OA
ATOM     23  H   LIG    1       -1.707   1.673  -1.287  0.00  0.00    +0.222 HD
ENDBRANCH  20  22
BRANCH  20  24
ATOM     24  O   LIG    1        1.492   2.033  -0.001  0.00  0.00    -0.303 OA
ATOM     25  H   LIG    1        1.962   1.712   0.785  0.00  0.00    +0.222 HD
ENDBRANCH  20  24
ENDBRANCH  19  20
ENDBRANCH  18  19
ENDBRANCH   4  18
TORSDOF 7
