REMARK  Name = ZINC03785268
REMARK                            x       y       z     vdW  Elec       q    Type
REMARK                         _______ _______ _______ _____ _____    ______ ____
ROOT
ATOM      1  N   LIG    1       13.375  -6.106   7.800  0.00  0.00    +0.381 N 
ATOM      2  H   LIG    1       12.718  -6.682   8.305  0.00  0.00    -0.086 HD
ATOM      3  H   LIG    1       13.523  -5.244   8.304  0.00  0.00    -0.086 HD
ENDROOT
BRANCH   1   4
ATOM      4  C   LIG    1       12.839  -5.808   6.465  0.00  0.00    -0.082 C 
BRANCH   4   5
ATOM      5  C   LIG    1       11.510  -5.064   6.604  0.00  0.00    -0.019 C 
BRANCH   5   6
ATOM      6  C   LIG    1       10.952  -4.753   5.213  0.00  0.00    -0.002 C 
BRANCH   6   7
ATOM      7  C   LIG    1        9.622  -4.009   5.352  0.00  0.00    +0.002 C 
BRANCH   7   8
ATOM      8  C   LIG    1        9.065  -3.698   3.961  0.00  0.00    +0.028 C 
BRANCH   8   9
ATOM      9  C   LIG    1        7.735  -2.954   4.100  0.00  0.00    +0.160 C 
BRANCH   9  10
ATOM     10  O   LIG    1        7.214  -2.664   2.801  0.00  0.00    -0.380 OA
BRANCH  10  11
ATOM     11  C   LIG    1        5.967  -1.966   2.818  0.00  0.00    +0.160 C 
BRANCH  11  12
ATOM     12  C   LIG    1        5.507  -1.710   1.381  0.00  0.00    +0.028 C 
BRANCH  12  13
ATOM     13  C   LIG    1        4.171  -0.963   1.399  0.00  0.00    +0.007 C 
BRANCH  13  14
ATOM     14  C   LIG    1        3.711  -0.707  -0.038  0.00  0.00    +0.035 C 
BRANCH  14  18
ATOM     15  C   LIG    1       -0.017   1.378   0.010  0.00  0.00    +0.000 A 
ATOM     16  C   LIG    1        1.171   2.086   0.002  0.00  0.00    +0.000 A 
ATOM     17  C   LIG    1        2.377   1.411  -0.013  0.00  0.00    +0.003 A 
ATOM     18  C   LIG    1        2.396   0.029  -0.020  0.00  0.00    -0.047 A 
ATOM     19  C   LIG    1        1.208  -0.679  -0.012  0.00  0.00    +0.003 A 
ATOM     20  C   LIG    1        0.002  -0.004   0.002  0.00  0.00    +0.000 A 
ENDBRANCH  14  18
ENDBRANCH  13  14
ENDBRANCH  12  13
ENDBRANCH  11  12
ENDBRANCH  10  11
ENDBRANCH   9  10
ENDBRANCH   8   9
ENDBRANCH   7   8
ENDBRANCH   6   7
ENDBRANCH   5   6
ENDBRANCH   4   5
ENDBRANCH   1   4
BRANCH   1  21
ATOM     21  C   LIG    1       14.652  -6.820   7.667  0.00  0.00    -0.046 C 
BRANCH  21  22
ATOM     22  C   LIG    1       15.209  -7.131   9.058  0.00  0.00    +0.128 C 
BRANCH  22  23
ATOM     23  C   LIG    1       16.575  -7.753   8.923  0.00  0.00    -0.020 A 
ATOM     24  C   LIG    1       16.695  -9.094   8.607  0.00  0.00    +0.009 A 
ATOM     25  C   LIG    1       17.946  -9.667   8.484  0.00  0.00    +0.046 A 
ATOM     26  C   LIG    1       19.083  -8.896   8.678  0.00  0.00    +0.122 A 
ATOM     27  C   LIG    1       18.960  -7.551   8.994  0.00  0.00    +0.020 A 
ATOM     28  C   LIG    1       17.707  -6.981   9.111  0.00  0.00    +0.015 A 
BRANCH  26  29
ATOM     29  O   LIG    1       20.315  -9.457   8.557  0.00  0.00    -0.506 OA
ATOM     30  H   LIG    1       20.680  -9.417   7.663  0.00  0.00    +0.292 HD
ENDBRANCH  26  29
BRANCH  27  31
ATOM     31  C   LIG    1       20.193  -6.710   9.205  0.00  0.00    +0.194 C 
BRANCH  31  32
ATOM     32  O   LIG    1       19.808  -5.370   9.518  0.00  0.00    -0.390 OA
ATOM     33  H   LIG    1       20.553  -4.771   9.666  0.00  0.00    +0.210 HD
ENDBRANCH  31  32
ENDBRANCH  27  31
ENDBRANCH  22  23
BRANCH  22  34
ATOM     34  O   LIG    1       14.335  -8.040   9.729  0.00  0.00    -0.389 OA
ATOM     35  H   LIG    1       14.221  -8.885   9.272  0.00  0.00    +0.210 HD
ENDBRANCH  22  34
ENDBRANCH  21  22
ENDBRANCH   1  21
TORSDOF 19
