REMARK  Name = ZINC03820336
REMARK                            x       y       z     vdW  Elec       q    Type
REMARK                         _______ _______ _______ _____ _____    ______ ____
ROOT
ATOM      1  C   LIG    1        4.149   3.655   3.347  0.00  0.00    +0.031 C 
ATOM      2  C   LIG    1        4.119   2.922   1.989  0.00  0.00    +0.032 C 
ATOM      3  C   LIG    1        5.564   2.747   1.529  0.00  0.00    +0.031 C 
ATOM      4  C   LIG    1        3.327   3.784   1.015  0.00  0.00    +0.025 C 
ATOM      5  C   LIG    1        3.586   3.434  -0.441  0.00  0.00    +0.004 C 
ATOM      6  C   LIG    1        3.548   1.950  -0.743  0.00  0.00    +0.032 C 
ATOM      7  C   LIG    1        2.394   1.256  -0.030  0.00  0.00    +0.159 C 
ATOM      8  C   LIG    1        2.747   0.913   1.381  0.00  0.00    +0.237 C 
ATOM      9  O   LIG    1        2.301  -0.138   1.821  0.00  0.00    -0.274 OA
ATOM     10  N   LIG    1        3.495   1.625   2.210  0.00  0.00    -0.284 N 
ENDROOT
BRANCH   7  11
ATOM     11  N   LIG    1        1.174   2.057  -0.086  0.00  0.00    -0.303 N 
ATOM     12  H   LIG    1        1.230   3.024  -0.121  0.00  0.00    +0.149 HD
ATOM     13  C   LIG    1       -0.030   1.451  -0.087  0.00  0.00    +0.227 C 
ATOM     14  O   LIG    1       -0.100   0.241  -0.043  0.00  0.00    -0.275 OA
BRANCH  13  15
ATOM     15  C   LIG    1       -1.289   2.276  -0.151  0.00  0.00    +0.133 C 
BRANCH  15  16
ATOM     16  S   LIG    1       -1.833   2.418  -1.876  0.00  0.00    -0.165 S 
ATOM     17  H   LIG    1       -2.042   1.145  -2.257  0.00  0.00    +0.102 HD
ENDBRANCH  15  16
BRANCH  15  18
ATOM     18  C   LIG    1       -2.385   1.600   0.675  0.00  0.00    +0.058 C 
BRANCH  18  19
ATOM     19  C   LIG    1       -3.604   2.485   0.713  0.00  0.00    -0.046 A 
ATOM     20  C   LIG    1       -3.749   3.418   1.721  0.00  0.00    +0.004 A 
ATOM     21  C   LIG    1       -4.865   4.234   1.753  0.00  0.00    +0.000 A 
ATOM     22  C   LIG    1       -5.841   4.107   0.782  0.00  0.00    +0.000 A 
ATOM     23  C   LIG    1       -5.699   3.170  -0.224  0.00  0.00    +0.000 A 
ATOM     24  C   LIG    1       -4.580   2.358  -0.258  0.00  0.00    +0.004 A 
ENDBRANCH  18  19
ENDBRANCH  15  18
ENDBRANCH  13  15
ENDBRANCH   7  11
BRANCH  10  25
ATOM     25  C   LIG    1        3.725   1.023   3.535  0.00  0.00    +0.228 C 
BRANCH  25  26
ATOM     26  C   LIG    1        4.914   0.100   3.467  0.00  0.00    +0.322 C 
ATOM     27  O   LIG    1        5.508  -0.045   2.425  0.00  0.00    -0.249 OA
BRANCH  26  28
ATOM     28  O   LIG    1        5.312  -0.563   4.565  0.00  0.00    -0.480 OA
ATOM     29  H   LIG    1        4.851  -0.452   5.373  0.00  0.00    +0.295 HD
ENDBRANCH  26  28
ENDBRANCH  25  26
ENDBRANCH  10  25
TORSDOF 8
