REMARK  Name = ZINC03795819
REMARK                            x       y       z     vdW  Elec       q    Type
REMARK                         _______ _______ _______ _____ _____    ______ ____
ROOT
ATOM      1  C   LIG    1        1.207   1.781  -0.093  0.00  0.00    +0.001 A 
ATOM      2  C   LIG    1        0.019   1.081  -0.033  0.00  0.00    +0.004 A 
ATOM      3  C   LIG    1       -1.203   1.745   0.027  0.00  0.00    -0.043 A 
ATOM      4  C   LIG    1       -1.222   3.120   0.025  0.00  0.00    -0.028 A 
ATOM      5  C   LIG    1       -0.021   3.836  -0.049  0.00  0.00    +0.041 A 
ATOM      6  C   LIG    1       -0.061   5.314  -0.060  0.00  0.00    +0.247 C 
ATOM      7  N   LIG    1       -1.225   5.944  -0.307  0.00  0.00    -0.295 N 
ATOM      8  C   LIG    1       -2.409   5.184  -0.705  0.00  0.00    +0.116 C 
ATOM      9  O   LIG    1        0.949   5.955   0.153  0.00  0.00    -0.270 OA
ATOM     10  C   LIG    1       -2.514   3.892   0.101  0.00  0.00    +0.037 C 
ATOM     11  C   LIG    1       -3.644   3.029  -0.467  0.00  0.00    +0.010 C 
ATOM     12  C   LIG    1       -3.710   1.726   0.306  0.00  0.00    +0.005 C 
ATOM     13  C   LIG    1       -2.446   0.908   0.113  0.00  0.00    +0.035 C 
ATOM     14  C   LIG    1        1.196   3.161  -0.097  0.00  0.00    +0.013 A 
ENDROOT
BRANCH   7  15
ATOM     15  C   LIG    1       -1.305   7.401  -0.177  0.00  0.00    +0.063 C 
ATOM     16  C   LIG    1       -2.486   7.771   0.725  0.00  0.00    -0.056 C 
ATOM     17  N   LIG    1       -3.455   8.611  -0.012  0.00  0.00    +0.381 N 
ATOM     18  H   LIG    1       -4.236   8.845   0.613  0.00  0.00    -0.082 HD
ATOM     19  C   LIG    1       -3.980   7.871  -1.179  0.00  0.00    -0.078 C 
ATOM     20  C   LIG    1       -2.842   7.503  -2.135  0.00  0.00    -0.014 C 
ATOM     21  C   LIG    1       -2.805   9.861  -0.458  0.00  0.00    -0.078 C 
ATOM     22  C   LIG    1       -1.633   9.551  -1.393  0.00  0.00    -0.014 C 
ATOM     23  C   LIG    1       -1.522   8.030  -1.559  0.00  0.00    +0.004 C 
ENDBRANCH   7  15
TORSDOF 1
