REMARK  Name = ZINC03781664
REMARK                            x       y       z     vdW  Elec       q    Type
REMARK                         _______ _______ _______ _____ _____    ______ ____
ROOT
ATOM      1  C   LIG    1       -2.792  -2.511   0.015  0.00  0.00    -0.067 C 
ATOM      2  C   LIG    1       -2.776  -4.037  -0.112  0.00  0.00    -0.009 C 
ATOM      3  C   LIG    1       -4.195  -4.559  -0.348  0.00  0.00    +0.055 C 
ATOM      4  C   LIG    1       -5.108  -3.999   0.734  0.00  0.00    +0.054 A 
ATOM      5  C   LIG    1       -4.734  -2.914   1.458  0.00  0.00    +0.013 A 
ATOM      6  S   LIG    1       -6.111  -2.683   2.547  0.00  0.00    -0.057 S 
ATOM      7  C   LIG    1       -7.045  -3.974   1.998  0.00  0.00    +0.156 A 
ATOM      8  N   LIG    1       -6.299  -4.501   1.051  0.00  0.00    -0.230 NA
ATOM      9  C   LIG    1       -3.472  -2.128   1.339  0.00  0.00    +0.028 C 
ENDROOT
BRANCH   1  10
ATOM     10  N   LIG    1       -1.413  -2.002   0.005  0.00  0.00    +0.381 N 
ATOM     11  H   LIG    1       -0.925  -2.337   0.822  0.00  0.00    -0.086 HD
ATOM     12  H   LIG    1       -0.941  -2.328  -0.825  0.00  0.00    -0.086 HD
BRANCH  10  13
ATOM     13  C   LIG    1       -1.433  -0.534   0.013  0.00  0.00    -0.082 C 
BRANCH  13  15
ATOM     14  C   LIG    1       -0.019   1.526   0.010  0.00  0.00    +0.002 C 
ATOM     15  C   LIG    1        0.002  -0.004   0.002  0.00  0.00    -0.022 C 
ENDBRANCH  13  15
ENDBRANCH  10  13
ENDBRANCH   1  10
BRANCH   7  16
ATOM     16  N   LIG    1       -8.294  -4.382   2.438  0.00  0.00    -0.338 N 
ATOM     17  H   LIG    1       -8.725  -5.151   2.031  0.00  0.00    +0.144 HD
ATOM     18  H   LIG    1       -8.739  -3.900   3.152  0.00  0.00    +0.144 HD
ENDBRANCH   7  16
TORSDOF 4
