REMARK  Name = ZINC03833824
REMARK                            x       y       z     vdW  Elec       q    Type
REMARK                         _______ _______ _______ _____ _____    ______ ____
ROOT
ATOM      1  C   LIG    1        0.531   1.130   0.453  0.00  0.00    +0.016 C 
ATOM      2  C   LIG    1        0.649  -0.392   0.353  0.00  0.00    -0.005 C 
ATOM      3  C   LIG    1       -0.723  -0.988   0.613  0.00  0.00    +0.019 C 
ATOM      4  C   LIG    1       -1.043  -1.032   2.107  0.00  0.00    +0.080 C 
ATOM      5  C   LIG    1        0.042  -1.850   2.779  0.00  0.00    +0.156 C 
ATOM      6  C   LIG    1        1.428  -1.502   2.447  0.00  0.00    +0.046 C 
ATOM      7  O   LIG    1       -0.222  -2.748   3.552  0.00  0.00    -0.293 OA
ATOM      8  C   LIG    1        1.072  -0.739  -1.080  0.00  0.00    +0.031 C 
ATOM      9  C   LIG    1        0.033  -0.189  -2.054  0.00  0.00    +0.120 C 
ATOM     10  C   LIG    1        0.460  -0.391  -3.516  0.00  0.00    +0.046 C 
ATOM     11  C   LIG    1        1.804   0.291  -3.688  0.00  0.00    +0.041 C 
ATOM     12  C   LIG    1        2.838  -0.475  -2.790  0.00  0.00    +0.006 C 
ATOM     13  C   LIG    1        4.179   0.090  -3.270  0.00  0.00    +0.005 C 
ATOM     14  C   LIG    1        3.996   0.161  -4.811  0.00  0.00    +0.012 C 
ATOM     15  C   LIG    1        2.432   0.217  -5.076  0.00  0.00    +0.071 C 
ATOM     16  C   LIG    1        2.477  -0.178  -1.346  0.00  0.00    -0.000 C 
ATOM     17  C   LIG    1        3.474  -0.867  -0.411  0.00  0.00    +0.008 C 
ATOM     18  C   LIG    1        3.151  -0.488   1.036  0.00  0.00    +0.032 C 
ATOM     19  C   LIG    1        1.702  -0.840   1.320  0.00  0.00    -0.060 C 
ENDROOT
BRANCH   9  20
ATOM     20  O   LIG    1       -0.140   1.208  -1.810  0.00  0.00    -0.391 OA
ATOM     21  H   LIG    1       -0.848   1.613  -2.329  0.00  0.00    +0.210 HD
ENDBRANCH   9  20
BRANCH  11  22
ATOM     22  C   LIG    1        1.708   1.728  -3.246  0.00  0.00    +0.231 C 
ATOM     23  O   LIG    1        2.630   2.243  -2.660  0.00  0.00    -0.300 OA
ENDBRANCH  11  22
BRANCH  15  24
ATOM     24  C   LIG    1        2.085   1.450  -5.871  0.00  0.00    +0.162 C 
ATOM     25  O   LIG    1        2.827   2.403  -5.862  0.00  0.00    -0.295 OA
BRANCH  24  26
ATOM     26  C   LIG    1        0.814   1.493  -6.679  0.00  0.00    +0.230 C 
BRANCH  26  27
ATOM     27  O   LIG    1        0.711   2.756  -7.338  0.00  0.00    -0.388 OA
ATOM     28  H   LIG    1       -0.086   2.854  -7.878  0.00  0.00    +0.210 HD
ENDBRANCH  26  27
ENDBRANCH  24  26
ENDBRANCH  15  24
TORSDOF 5
