REMARK  Name = ZINC03830892
REMARK                            x       y       z     vdW  Elec       q    Type
REMARK                         _______ _______ _______ _____ _____    ______ ____
ROOT
ATOM      1  C   UNK A  1        1.140   2.151   0.003  0.00  0.00    +0.214 C 
ATOM      2  N   UNK A  1       -0.018   1.461   0.010  0.00  0.00    -0.303 N 
ATOM      3  H   UNK A  1       -0.864   1.934   0.017  0.00  0.00    +0.149 HD
ATOM      4  O   UNK A  1        2.199   1.558  -0.011  0.00  0.00    -0.276 OA
ENDROOT
BRANCH   1   5
ATOM      5  C   UNK A  1        1.120   3.657   0.011  0.00  0.00    +0.095 C 
BRANCH   5   6
ATOM      6  C   UNK A  1        2.555   4.187   0.000  0.00  0.00    +0.004 C 
BRANCH   6   7
ATOM      7  C   UNK A  1        2.534   5.717   0.009  0.00  0.00    +0.036 C 
BRANCH   7   8
ATOM      8  N   UNK A  1        1.908   6.194  -1.237  0.00  0.00    +0.387 N 
ATOM      9  H   UNK A  1        0.962   5.801  -1.311  0.00  0.00    -0.089 HD
ATOM     10  H   UNK A  1        2.456   5.893  -2.041  0.00  0.00    -0.089 HD
ATOM     11  H   UNK A  1        1.846   7.211  -1.230  0.00  0.00    -0.089 HD
ENDBRANCH   7   8
BRANCH   7  12
ATOM     12  C   UNK A  1        3.944   6.238   0.122  0.00  0.00    +0.290 C 
ATOM     13  O   UNK A  1        4.526   6.624  -0.864  0.00  0.00    -0.253 OA
BRANCH  12  14
ATOM     14  O   UNK A  1        4.552   6.273   1.318  0.00  0.00    -0.482 OA
ATOM     15  H   UNK A  1        4.101   5.973   2.082  0.00  0.00    +0.295 HD
ENDBRANCH  12  14
ENDBRANCH   7  12
ENDBRANCH   6   7
ENDBRANCH   5   6
ENDBRANCH   1   5
BRANCH   2  16
ATOM     16  C   UNK A  1        0.002  -0.004   0.002  0.00  0.00    +0.168 C 
BRANCH  16  17
ATOM     17  C   UNK A  1       -1.273  -0.527   0.612  0.00  0.00    +0.235 C 
ATOM     18  N   GLY A  2       -1.477  -1.856   0.711  0.00  0.00    -0.303 N 
ATOM     19  H   GLY A  2       -0.803  -2.475   0.389  0.00  0.00    +0.149 HD
ATOM     20  O   UNK A  1       -2.115   0.247   1.014  0.00  0.00    -0.274 OA
BRANCH  18  21
ATOM     21  CA  GLY A  2       -2.716  -2.364   1.304  0.00  0.00    +0.224 C 
BRANCH  21  22
ATOM     22  C   GLY A  2       -2.696  -3.871   1.295  0.00  0.00    +0.322 C 
ATOM     23  O   GLY A  2       -1.744  -4.460   0.841  0.00  0.00    -0.249 OA
BRANCH  22  24
ATOM     24  OXT GLY A  2       -3.736  -4.559   1.793  0.00  0.00    -0.480 OA
ATOM     25  HXT GLY A  2       -4.474  -4.102   2.145  0.00  0.00    +0.295 HD
ENDBRANCH  22  24
ENDBRANCH  21  22
ENDBRANCH  18  21
ENDBRANCH  16  17
BRANCH  16  26
ATOM     26  C   UNK A  1        0.121  -0.505  -1.439  0.00  0.00    +0.097 C 
BRANCH  26  27
ATOM     27  S   UNK A  1        1.723   0.001  -2.124  0.00  0.00    -0.176 S 
ATOM     28  H   UNK A  1        1.710  -0.490  -3.377  0.00  0.00    +0.102 HD
ENDBRANCH  26  27
ENDBRANCH  16  26
ENDBRANCH   2  16
TORSDOF 13
