REMARK  Name = ZINC03871741
REMARK                            x       y       z     vdW  Elec       q    Type
REMARK                         _______ _______ _______ _____ _____    ______ ____
ROOT
ATOM      1  C   LIG    1       -8.181  -0.005  -1.859  0.00  0.00    +0.013 A 
ATOM      2  C   LIG    1       -6.841   0.166  -2.049  0.00  0.00    +0.095 A 
ATOM      3  N   LIG    1       -6.408   1.232  -1.324  0.00  0.00    -0.346 N 
ATOM      4  C   LIG    1       -7.457   1.795  -0.626  0.00  0.00    +0.050 A 
ATOM      5  C   LIG    1       -7.549   2.876   0.245  0.00  0.00    +0.026 A 
ATOM      6  C   LIG    1       -8.765   3.208   0.802  0.00  0.00    +0.002 A 
ATOM      7  C   LIG    1       -9.904   2.474   0.503  0.00  0.00    +0.001 A 
ATOM      8  C   LIG    1       -9.835   1.405  -0.364  0.00  0.00    +0.010 A 
ATOM      9  C   LIG    1       -8.611   1.055  -0.931  0.00  0.00    +0.008 A 
ENDROOT
BRANCH   1  11
ATOM     10  C   LIG    1       -9.081  -2.390  -2.116  0.00  0.00    +0.059 C 
ATOM     11  C   LIG    1       -9.031  -1.045  -2.464  0.00  0.00    +0.059 C 
ATOM     12  C   LIG    1       -9.999  -0.871  -3.567  0.00  0.00    +0.252 C 
ATOM     13  N   LIG    1      -10.572  -2.058  -3.826  0.00  0.00    -0.248 N 
ATOM     14  H   LIG    1      -11.244  -2.209  -4.509  0.00  0.00    +0.158 HD
ATOM     15  O   LIG    1      -10.237   0.172  -4.142  0.00  0.00    -0.270 OA
ATOM     16  C   LIG    1      -10.085  -3.006  -3.008  0.00  0.00    +0.252 C 
ATOM     17  O   LIG    1      -10.411  -4.176  -3.006  0.00  0.00    -0.270 OA
BRANCH  10  23
ATOM     18  C   LIG    1       -5.394  -5.277  -2.246  0.00  0.00    +0.001 A 
ATOM     19  C   LIG    1       -4.983  -5.667  -0.979  0.00  0.00    +0.002 A 
ATOM     20  C   LIG    1       -5.640  -5.211   0.143  0.00  0.00    +0.026 A 
ATOM     21  C   LIG    1       -6.726  -4.352   0.011  0.00  0.00    +0.047 A 
ATOM     22  C   LIG    1       -7.141  -3.958  -1.272  0.00  0.00    +0.008 A 
ATOM     23  C   LIG    1       -8.294  -3.063  -1.070  0.00  0.00    +0.013 A 
ATOM     24  C   LIG    1       -8.486  -2.977   0.278  0.00  0.00    +0.092 A 
ATOM     25  N   LIG    1       -7.563  -3.742   0.922  0.00  0.00    -0.360 N 
ATOM     26  H   LIG    1       -7.501  -3.842   1.885  0.00  0.00    +0.165 HD
ATOM     27  C   LIG    1       -6.467  -4.427  -2.398  0.00  0.00    +0.010 A 
ENDBRANCH  10  23
ENDBRANCH   1  11
BRANCH   3  28
ATOM     28  C   LIG    1       -5.024   1.711  -1.284  0.00  0.00    +0.120 C 
BRANCH  28  29
ATOM     29  C   LIG    1       -4.308   1.102  -0.077  0.00  0.00    +0.006 C 
BRANCH  29  30
ATOM     30  C   LIG    1       -2.862   1.602  -0.035  0.00  0.00    -0.070 C 
ATOM     31  N   LIG    1       -2.143   1.094  -1.219  0.00  0.00    +0.381 N 
ATOM     32  H   LIG    1       -2.132   0.068  -1.194  0.00  0.00    -0.086 HD
ATOM     33  H   LIG    1       -2.623   1.411  -2.069  0.00  0.00    -0.086 HD
ATOM     34  C   LIG    1       -0.754   1.594  -1.231  0.00  0.00    -0.082 C 
ATOM     35  C   LIG    1       -0.013   1.086   0.008  0.00  0.00    -0.019 C 
ATOM     36  C   LIG    1       -0.731   1.580   1.267  0.00  0.00    -0.003 C 
ATOM     37  C   LIG    1       -2.184   1.095   1.239  0.00  0.00    -0.016 C 
ENDBRANCH  29  30
ENDBRANCH  28  29
ENDBRANCH   3  28
TORSDOF 5
