REMARK  Name = ZINC03816409
REMARK                            x       y       z     vdW  Elec       q    Type
REMARK                         _______ _______ _______ _____ _____    ______ ____
ROOT
ATOM      1  C   LIG    1       -8.022   1.977   2.880  0.00  0.00    +0.067 A 
ATOM      2  C   LIG    1       -8.944   2.229   3.850  0.00  0.00    +0.135 A 
ATOM      3  N   LIG    1      -10.173   2.570   3.510  0.00  0.00    -0.232 NA
ATOM      4  C   LIG    1      -10.531   2.673   2.243  0.00  0.00    +0.165 A 
ATOM      5  S   LIG    1       -9.003   2.260   1.411  0.00  0.00    -0.046 S 
ENDROOT
BRANCH   4   6
ATOM      6  N   LIG    1      -11.766   3.016   1.700  0.00  0.00    -0.264 N 
ATOM      7  H   LIG    1      -11.880   3.050   0.737  0.00  0.00    +0.157 HD
ATOM      8  C   LIG    1      -12.803   3.300   2.512  0.00  0.00    +0.222 C 
ATOM      9  O   LIG    1      -12.661   3.258   3.716  0.00  0.00    -0.275 OA
BRANCH   8  10
ATOM     10  C   LIG    1      -14.140   3.671   1.924  0.00  0.00    +0.072 C 
ATOM     11  C   LIG    1      -13.992   4.933   1.070  0.00  0.00    -0.007 C 
ATOM     12  C   LIG    1      -15.363   5.340   0.525  0.00  0.00    -0.082 C 
ATOM     13  N   LIG    1      -16.286   5.601   1.647  0.00  0.00    +0.379 N 
ATOM     14  H   LIG    1      -15.894   6.340   2.242  0.00  0.00    -0.086 HD
ATOM     15  H   LIG    1      -17.193   5.905   1.274  0.00  0.00    -0.086 HD
ATOM     16  C   LIG    1      -16.476   4.379   2.451  0.00  0.00    -0.082 C 
ATOM     17  C   LIG    1      -15.138   3.944   3.053  0.00  0.00    -0.007 C 
ENDBRANCH   8  10
ENDBRANCH   4   6
BRANCH   1  18
ATOM     18  S   LIG    1       -6.330   1.509   3.030  0.00  0.00    -0.107 S 
BRANCH  18  19
ATOM     19  C   LIG    1       -5.763   1.357   1.313  0.00  0.00    +0.170 C 
BRANCH  19  23
ATOM     20  C   LIG    1       -2.143   1.058   1.278  0.00  0.00    +0.131 A 
ATOM     21  C   LIG    1       -2.517  -0.232   1.274  0.00  0.00    +0.156 A 
ATOM     22  N   LIG    1       -3.862  -0.267   1.287  0.00  0.00    -0.221 NA
ATOM     23  C   LIG    1       -4.311   0.956   1.298  0.00  0.00    +0.206 A 
ATOM     24  O   LIG    1       -3.269   1.798   1.298  0.00  0.00    -0.443 OA
BRANCH  20  26
ATOM     25  C   LIG    1       -0.013   1.086   0.008  0.00  0.00    +0.019 C 
ATOM     26  C   LIG    1       -0.729   1.579   1.267  0.00  0.00    +0.022 C 
ATOM     27  C   LIG    1       -0.750   3.109   1.275  0.00  0.00    +0.019 C 
ATOM     28  C   LIG    1        0.011   1.072   2.506  0.00  0.00    +0.019 C 
ENDBRANCH  20  26
ENDBRANCH  19  23
ENDBRANCH  18  19
ENDBRANCH   1  18
TORSDOF 6
