REMARK  Name = ZINC03872206
REMARK                            x       y       z     vdW  Elec       q    Type
REMARK                         _______ _______ _______ _____ _____    ______ ____
ROOT
ATOM      1  C   LIG    1        0.603  -0.604  -1.051  0.00  0.00    +0.145 A 
ATOM      2  C   LIG    1       -0.140  -0.924  -2.202  0.00  0.00    +0.098 A 
ATOM      3  C   LIG    1        0.490  -1.547  -3.290  0.00  0.00    +0.131 A 
ATOM      4  C   LIG    1        1.849  -1.850  -3.234  0.00  0.00    +0.058 A 
ATOM      5  C   LIG    1        2.587  -1.538  -2.102  0.00  0.00    +0.040 A 
ATOM      6  C   LIG    1        4.033  -1.859  -2.040  0.00  0.00    +0.195 C 
ATOM      7  O   LIG    1        4.532  -2.611  -2.853  0.00  0.00    -0.287 OA
ATOM      8  C   LIG    1        4.864  -1.234  -0.985  0.00  0.00    +0.033 A 
ATOM      9  C   LIG    1        6.253  -1.269  -1.060  0.00  0.00    +0.012 A 
ATOM     10  C   LIG    1        7.011  -0.688  -0.059  0.00  0.00    +0.001 A 
ATOM     11  C   LIG    1        6.397  -0.072   1.017  0.00  0.00    +0.001 A 
ATOM     12  C   LIG    1        5.016  -0.029   1.108  0.00  0.00    +0.012 A 
ATOM     13  C   LIG    1        4.240  -0.608   0.110  0.00  0.00    +0.033 A 
ATOM     14  C   LIG    1        2.763  -0.571   0.190  0.00  0.00    +0.198 C 
ATOM     15  O   LIG    1        2.211  -0.268   1.230  0.00  0.00    -0.286 OA
ATOM     16  C   LIG    1        1.967  -0.905  -1.004  0.00  0.00    +0.076 A 
ENDROOT
BRANCH   1  18
ATOM     17  C   LIG    1       -0.017   1.425   0.010  0.00  0.00    +0.277 C 
ATOM     18  O   LIG    1        0.002  -0.004   0.002  0.00  0.00    -0.494 OA
ENDBRANCH   1  18
BRANCH   2  19
ATOM     19  C   LIG    1       -1.570  -0.608  -2.264  0.00  0.00    +0.266 C 
ATOM     20  O   LIG    1       -2.210  -0.884  -3.257  0.00  0.00    -0.295 OA
ENDBRANCH   2  19
BRANCH   3  21
ATOM     21  O   LIG    1       -0.225  -1.855  -4.398  0.00  0.00    -0.506 OA
ATOM     22  H   LIG    1       -0.242  -1.153  -5.063  0.00  0.00    +0.292 HD
ENDBRANCH   3  21
TORSDOF 3
