REMARK  Name = ZINC03842038
REMARK                            x       y       z     vdW  Elec       q    Type
REMARK                         _______ _______ _______ _____ _____    ______ ____
ROOT
ATOM      1  C   LIG    1       -3.814   3.304   0.047  0.00  0.00    +0.140 C 
ATOM      2  C   LIG    1       -3.023   3.974  -1.078  0.00  0.00    +0.036 C 
ENDROOT
BRANCH   1  13
ATOM      3  N   LIG    1       -4.159   1.025   0.909  0.00  0.00    -0.263 N 
ATOM      4  C   LIG    1       -4.134  -0.324   0.799  0.00  0.00    +0.268 A 
ATOM      5  C   LIG    1       -3.686  -0.889  -0.480  0.00  0.00    +0.084 A 
ATOM      6  C   LIG    1       -3.625  -2.265  -0.703  0.00  0.00    +0.018 A 
ATOM      7  C   LIG    1       -3.185  -2.701  -1.940  0.00  0.00    +0.021 A 
ATOM      8  C   LIG    1       -2.824  -1.771  -2.905  0.00  0.00    +0.113 A 
ATOM      9  N   LIG    1       -2.887  -0.477  -2.677  0.00  0.00    -0.236 NA
ATOM     10  C   LIG    1       -3.302   0.002  -1.508  0.00  0.00    +0.167 A 
ATOM     11  N   LIG    1       -3.368   1.336  -1.272  0.00  0.00    -0.212 NA
ATOM     12  O   LIG    1       -4.472  -1.041   1.724  0.00  0.00    -0.267 OA
ATOM     13  C   LIG    1       -3.772   1.808  -0.131  0.00  0.00    +0.140 A 
BRANCH   3  17
ATOM     14  C   LIG    1       -5.417   2.783   4.476  0.00  0.00    +0.121 A 
ATOM     15  C   LIG    1       -6.332   2.128   3.665  0.00  0.00    +0.047 A 
ATOM     16  C   LIG    1       -5.917   1.549   2.482  0.00  0.00    +0.030 A 
ATOM     17  C   LIG    1       -4.582   1.618   2.107  0.00  0.00    +0.051 A 
ATOM     18  C   LIG    1       -3.667   2.279   2.916  0.00  0.00    +0.030 A 
ATOM     19  C   LIG    1       -4.084   2.857   4.099  0.00  0.00    +0.047 A 
BRANCH  14  20
ATOM     20  O   LIG    1       -5.826   3.352   5.641  0.00  0.00    -0.492 OA
BRANCH  20  22
ATOM     21  C   LIG    1       -5.474   4.585   7.689  0.00  0.00    +0.048 C 
ATOM     22  C   LIG    1       -4.830   4.011   6.426  0.00  0.00    +0.225 C 
ENDBRANCH  20  22
ENDBRANCH  14  20
ENDBRANCH   3  17
ENDBRANCH   1  13
BRANCH   1  23
ATOM     23  N   LIG    1       -5.205   3.762   0.006  0.00  0.00    -0.287 N 
ATOM     24  C   LIG    1       -5.715   4.461   1.040  0.00  0.00    +0.221 C 
ATOM     25  O   LIG    1       -4.998   4.789   1.962  0.00  0.00    -0.275 OA
BRANCH  24  26
ATOM     26  C   LIG    1       -7.175   4.833   1.050  0.00  0.00    +0.131 C 
BRANCH  26  27
ATOM     27  C   LIG    1       -7.447   5.765   2.203  0.00  0.00    -0.038 A 
ATOM     28  C   LIG    1       -7.813   5.252   3.434  0.00  0.00    +0.007 A 
ATOM     29  C   LIG    1       -8.058   6.105   4.493  0.00  0.00    +0.039 A 
ATOM     30  C   LIG    1       -7.949   7.475   4.318  0.00  0.00    +0.135 A 
ATOM     31  F   LIG    1       -8.193   8.310   5.351  0.00  0.00    -0.205 F 
ATOM     32  C   LIG    1       -7.588   7.987   3.084  0.00  0.00    +0.090 A 
ATOM     33  C   LIG    1       -7.338   7.131   2.027  0.00  0.00    +0.019 A 
BRANCH  32  34
ATOM     34  C   LIG    1       -7.468   9.477   2.892  0.00  0.00    +0.420 C 
ATOM     35  F   LIG    1       -6.498   9.983   3.764  0.00  0.00    -0.166 F 
ATOM     36  F   LIG    1       -8.700  10.083   3.162  0.00  0.00    -0.166 F 
ATOM     37  F   LIG    1       -7.094   9.748   1.571  0.00  0.00    -0.166 F 
ENDBRANCH  32  34
ENDBRANCH  26  27
ENDBRANCH  24  26
BRANCH  23  38
ATOM     38  C   LIG    1       -6.041   3.461  -1.158  0.00  0.00    +0.145 C 
BRANCH  38  39
ATOM     39  C   LIG    1       -6.869   2.233  -0.878  0.00  0.00    -0.012 A 
ATOM     40  C   LIG    1       -6.359   0.970  -1.136  0.00  0.00    +0.008 A 
ATOM     41  C   LIG    1       -7.155  -0.132  -0.859  0.00  0.00    +0.020 A 
ATOM     42  C   LIG    1       -8.423   0.066  -0.347  0.00  0.00    +0.111 A 
ATOM     43  N   LIG    1       -8.877   1.282  -0.119  0.00  0.00    -0.263 NA
ATOM     44  C   LIG    1       -8.147   2.353  -0.366  0.00  0.00    +0.115 A 
ENDBRANCH  38  39
ENDBRANCH  23  38
ENDBRANCH   1  23
TORSDOF 10
