REMARK  Name = ZINC03809192
REMARK                            x       y       z     vdW  Elec       q    Type
REMARK                         _______ _______ _______ _____ _____    ______ ____
ROOT
ATOM      1  C   LIG    1       -2.566  -1.874   2.791  0.00  0.00    +0.151 C 
ENDROOT
BRANCH   1   2
ATOM      2  O   LIG    1       -3.597  -2.694   2.238  0.00  0.00    -0.389 OA
ATOM      3  H   LIG    1       -3.400  -3.640   2.258  0.00  0.00    +0.210 HD
ENDBRANCH   1   2
BRANCH   1   4
ATOM      4  C   LIG    1       -1.271  -2.082   2.002  0.00  0.00    +0.142 C 
BRANCH   4   5
ATOM      5  N   LIG    1       -1.454  -1.603   0.629  0.00  0.00    -0.174 NA
BRANCH   5   6
ATOM      6  S   LIG    1       -1.862  -2.668  -0.572  0.00  0.00    +0.061 S 
ATOM      7  O   LIG    1       -2.498  -1.908  -1.590  0.00  0.00    -0.153 OA
ATOM      8  O   LIG    1       -2.495  -3.772   0.062  0.00  0.00    -0.153 OA
BRANCH   6   9
ATOM      9  C   LIG    1       -0.360  -3.277  -1.261  0.00  0.00    +0.106 A 
ATOM     10  C   LIG    1        0.230  -2.615  -2.323  0.00  0.00    +0.030 A 
ATOM     11  C   LIG    1        1.408  -3.090  -2.866  0.00  0.00    +0.024 A 
ATOM     12  C   LIG    1        2.000  -4.234  -2.345  0.00  0.00    +0.025 A 
ATOM     13  C   LIG    1        1.405  -4.896  -1.278  0.00  0.00    +0.024 A 
ATOM     14  C   LIG    1        0.230  -4.412  -0.737  0.00  0.00    +0.030 A 
BRANCH  12  15
ATOM     15  N   LIG    1        3.191  -4.716  -2.892  0.00  0.00    -0.358 N 
ATOM     16  H   LIG    1        3.603  -5.515  -2.527  0.00  0.00    +0.142 HD
ATOM     17  H   LIG    1        3.605  -4.253  -3.637  0.00  0.00    +0.142 HD
ENDBRANCH  12  15
ENDBRANCH   6   9
ENDBRANCH   5   6
BRANCH   5  18
ATOM     18  C   LIG    1       -1.274  -0.183   0.319  0.00  0.00    +0.112 C 
BRANCH  18  20
ATOM     19  C   LIG    1        0.368   1.540  -0.440  0.00  0.00    +0.008 C 
ATOM     20  C   LIG    1        0.202   0.094   0.030  0.00  0.00    -0.001 C 
ATOM     21  C   LIG    1        1.021  -0.125   1.304  0.00  0.00    +0.008 C 
ENDBRANCH  18  20
ENDBRANCH   5  18
ENDBRANCH   4   5
ENDBRANCH   1   4
BRANCH   1  22
ATOM     22  C   LIG    1       -2.338  -2.257   4.254  0.00  0.00    +0.110 C 
BRANCH  22  23
ATOM     23  N   LIG    1       -3.539  -1.946   5.033  0.00  0.00    -0.275 N 
ATOM     24  H   LIG    1       -4.404  -1.908   4.596  0.00  0.00    +0.152 HD
ATOM     25  C   LIG    1       -3.442  -1.711   6.357  0.00  0.00    +0.401 C 
ATOM     26  O   LIG    1       -2.359  -1.758   6.904  0.00  0.00    -0.226 OA
BRANCH  25  27
ATOM     27  O   LIG    1       -4.546  -1.425   7.072  0.00  0.00    -0.445 OA
BRANCH  27  28
ATOM     28  C   LIG    1       -4.370  -1.188   8.470  0.00  0.00    +0.206 C 
ATOM     29  C   LIG    1       -5.481  -0.250   9.017  0.00  0.00    +0.075 C 
ATOM     30  C   LIG    1       -5.548  -0.705  10.496  0.00  0.00    +0.163 C 
ATOM     31  O   LIG    1       -5.331  -2.125  10.463  0.00  0.00    -0.376 OA
ATOM     32  C   LIG    1       -4.598  -2.482   9.280  0.00  0.00    +0.204 C 
ENDBRANCH  27  28
ENDBRANCH  25  27
ENDBRANCH  22  23
BRANCH  22  33
ATOM     33  C   LIG    1       -2.043  -3.755   4.349  0.00  0.00    +0.060 C 
BRANCH  33  34
ATOM     34  C   LIG    1       -1.698  -4.110   5.773  0.00  0.00    -0.046 A 
ATOM     35  C   LIG    1       -0.385  -4.054   6.200  0.00  0.00    +0.004 A 
ATOM     36  C   LIG    1       -0.069  -4.380   7.506  0.00  0.00    +0.000 A 
ATOM     37  C   LIG    1       -1.066  -4.761   8.384  0.00  0.00    +0.000 A 
ATOM     38  C   LIG    1       -2.380  -4.816   7.957  0.00  0.00    +0.000 A 
ATOM     39  C   LIG    1       -2.696  -4.486   6.652  0.00  0.00    +0.004 A 
ENDBRANCH  33  34
ENDBRANCH  22  33
ENDBRANCH   1  22
TORSDOF 14
