REMARK  Name = ZINC03860170
REMARK                            x       y       z     vdW  Elec       q    Type
REMARK                         _______ _______ _______ _____ _____    ______ ____
ROOT
ATOM      1  C   LIG    1       -0.017   1.379  -0.019  0.00  0.00    +0.001 A 
ATOM      2  C   LIG    1        1.166   2.096  -0.027  0.00  0.00    +0.001 A 
ATOM      3  C   LIG    1        2.383   1.439  -0.036  0.00  0.00    +0.012 A 
ATOM      4  C   LIG    1        2.421   0.048  -0.038  0.00  0.00    +0.033 A 
ATOM      5  C   LIG    1        1.218  -0.681  -0.031  0.00  0.00    +0.033 A 
ATOM      6  C   LIG    1        1.249  -2.159  -0.034  0.00  0.00    +0.196 C 
ATOM      7  C   LIG    1        2.539  -2.866  -0.045  0.00  0.00    +0.057 A 
ATOM      8  C   LIG    1        2.578  -4.265  -0.049  0.00  0.00    +0.036 A 
ATOM      9  C   LIG    1        3.809  -4.925  -0.061  0.00  0.00    +0.027 A 
ATOM     10  C   LIG    1        4.984  -4.211  -0.067  0.00  0.00    +0.048 A 
ATOM     11  C   LIG    1        4.965  -2.816  -0.063  0.00  0.00    +0.128 A 
ATOM     12  C   LIG    1        3.745  -2.136  -0.053  0.00  0.00    +0.076 A 
ATOM     13  O   LIG    1        0.209  -2.789  -0.028  0.00  0.00    -0.287 OA
ATOM     14  C   LIG    1        3.716  -0.663  -0.049  0.00  0.00    +0.198 C 
ATOM     15  O   LIG    1        4.756  -0.033  -0.055  0.00  0.00    -0.286 OA
ATOM     16  C   LIG    1        0.002  -0.004  -0.021  0.00  0.00    +0.012 A 
ENDROOT
BRANCH   8  17
ATOM     17  N   LIG    1        1.398  -4.993  -0.042  0.00  0.00    -0.357 N 
ATOM     18  H   LIG    1        1.389  -5.898   0.307  0.00  0.00    +0.142 HD
ATOM     19  H   LIG    1        0.582  -4.598  -0.386  0.00  0.00    +0.142 HD
ENDBRANCH   8  17
BRANCH  11  20
ATOM     20  O   LIG    1        6.130  -2.121  -0.069  0.00  0.00    -0.506 OA
ATOM     21  H   LIG    1        6.461  -1.917  -0.954  0.00  0.00    +0.292 HD
ENDBRANCH  11  20
TORSDOF 2
