REMARK  Name = ZINC03801063
REMARK                            x       y       z     vdW  Elec       q    Type
REMARK                         _______ _______ _______ _____ _____    ______ ____
ROOT
ATOM      1  C   LIG    1       -2.261   4.951  -4.924  0.00  0.00    +0.044 C 
ATOM      2  C   LIG    1       -2.234   5.709  -3.622  0.00  0.00    -0.036 A 
ATOM      3  C   LIG    1       -2.688   6.991  -3.570  0.00  0.00    +0.049 A 
ATOM      4  C   LIG    1       -2.669   7.709  -2.371  0.00  0.00    +0.118 A 
ATOM      5  C   LIG    1       -2.191   7.134  -1.214  0.00  0.00    +0.054 A 
ATOM      6  C   LIG    1       -1.718   5.814  -1.240  0.00  0.00    -0.010 A 
ATOM      7  C   LIG    1       -1.221   5.200  -0.073  0.00  0.00    +0.015 A 
ATOM      8  C   LIG    1       -0.760   3.922  -0.103  0.00  0.00    -0.005 A 
ATOM      9  C   LIG    1       -0.227   3.318   1.169  0.00  0.00    +0.146 C 
ATOM     10  C   LIG    1       -0.273   1.794   1.121  0.00  0.00    +0.044 C 
ATOM     11  C   LIG    1        0.469   1.302  -0.129  0.00  0.00    +0.082 C 
ATOM     12  C   LIG    1       -0.293   1.806  -1.337  0.00  0.00    +0.167 C 
ATOM     13  O   LIG    1       -0.492   1.090  -2.296  0.00  0.00    -0.292 OA
ATOM     14  C   LIG    1       -0.782   3.191  -1.308  0.00  0.00    +0.065 A 
ATOM     15  C   LIG    1       -1.266   3.768  -2.485  0.00  0.00    +0.136 A 
ATOM     16  C   LIG    1       -1.741   5.094  -2.460  0.00  0.00    +0.027 A 
ENDROOT
BRANCH   4  17
ATOM     17  O   LIG    1       -3.127   8.987  -2.347  0.00  0.00    -0.507 OA
ATOM     18  H   LIG    1       -2.449   9.652  -2.529  0.00  0.00    +0.292 HD
ENDBRANCH   4  17
BRANCH   9  19
ATOM     19  O   LIG    1        1.126   3.739   1.355  0.00  0.00    -0.387 OA
ATOM     20  H   LIG    1        1.540   3.390   2.157  0.00  0.00    +0.210 HD
ENDBRANCH   9  19
BRANCH  15  21
ATOM     21  O   LIG    1       -1.280   3.059  -3.638  0.00  0.00    -0.505 OA
ATOM     22  H   LIG    1       -2.054   2.488  -3.740  0.00  0.00    +0.292 HD
ENDBRANCH  15  21
TORSDOF 3
