REMARK  Name = ZINC03830202
REMARK                            x       y       z     vdW  Elec       q    Type
REMARK                         _______ _______ _______ _____ _____    ______ ____
ROOT
ATOM      1  C   LIG    1       -1.427  -2.073   0.117  0.00  0.00    +0.051 C 
ATOM      2  C   LIG    1       -2.603  -2.509  -0.794  0.00  0.00    +0.129 C 
ATOM      3  C   LIG    1       -2.515  -1.490  -1.958  0.00  0.00    +0.106 C 
ATOM      4  C   LIG    1       -2.124  -0.183  -1.289  0.00  0.00    +0.140 C 
ATOM      5  O   LIG    1       -2.326   0.928  -1.715  0.00  0.00    -0.297 OA
ATOM      6  C   LIG    1       -1.433  -0.534   0.013  0.00  0.00    +0.065 C 
ENDROOT
BRANCH   2   7
ATOM      7  O   LIG    1       -2.413  -3.844  -1.266  0.00  0.00    -0.391 OA
ATOM      8  H   LIG    1       -3.122  -4.163  -1.840  0.00  0.00    +0.210 HD
ENDBRANCH   2   7
BRANCH   1  10
ATOM      9  C   LIG    1       -0.769  -3.226   2.166  0.00  0.00    -0.000 C 
ATOM     10  C   LIG    1       -1.668  -2.509   1.539  0.00  0.00    -0.022 C 
BRANCH   9  11
ATOM     11  C   LIG    1       -1.010  -3.662   3.588  0.00  0.00    +0.137 C 
BRANCH  11  12
ATOM     12  O   LIG    1        0.019  -3.136   4.428  0.00  0.00    -0.388 OA
ATOM     13  H   LIG    1        0.910  -3.427   4.188  0.00  0.00    +0.210 HD
ENDBRANCH  11  12
BRANCH  11  14
ATOM     14  C   LIG    1       -0.998  -5.190   3.662  0.00  0.00    +0.035 C 
BRANCH  14  15
ATOM     15  C   LIG    1       -1.366  -5.635   5.079  0.00  0.00    +0.003 C 
BRANCH  15  16
ATOM     16  C   LIG    1       -1.355  -7.163   5.153  0.00  0.00    -0.000 C 
BRANCH  16  18
ATOM     17  C   LIG    1       -1.711  -9.136   6.644  0.00  0.00    +0.004 C 
ATOM     18  C   LIG    1       -1.723  -7.608   6.570  0.00  0.00    -0.003 C 
ENDBRANCH  16  18
ENDBRANCH  15  16
ENDBRANCH  14  15
ENDBRANCH  11  14
ENDBRANCH   9  11
ENDBRANCH   1  10
BRANCH   6  19
ATOM     19  C   LIG    1        0.002  -0.004   0.002  0.00  0.00    +0.012 C 
BRANCH  19  20
ATOM     20  C   LIG    1       -0.019   1.526   0.010  0.00  0.00    +0.001 C 
BRANCH  20  21
ATOM     21  C   LIG    1        1.417   2.055  -0.000  0.00  0.00    +0.000 C 
BRANCH  21  22
ATOM     22  C   LIG    1        1.396   3.585   0.008  0.00  0.00    +0.001 C 
BRANCH  22  23
ATOM     23  C   LIG    1        2.831   4.115  -0.003  0.00  0.00    +0.011 C 
BRANCH  23  24
ATOM     24  C   LIG    1        2.811   5.645   0.005  0.00  0.00    +0.120 C 
BRANCH  24  25
ATOM     25  C   LIG    1        4.224   6.166  -0.005  0.00  0.00    +0.305 C 
ATOM     26  O   LIG    1        5.153   5.394  -0.018  0.00  0.00    -0.251 OA
BRANCH  25  27
ATOM     27  O   LIG    1        4.452   7.489  -0.000  0.00  0.00    -0.481 OA
ATOM     28  H   LIG    1        3.731   8.088   0.010  0.00  0.00    +0.295 HD
ENDBRANCH  25  27
ENDBRANCH  24  25
ENDBRANCH  23  24
ENDBRANCH  22  23
ENDBRANCH  21  22
ENDBRANCH  20  21
ENDBRANCH  19  20
ENDBRANCH   6  19
TORSDOF 16
