REMARK  Name = ZINC03797417
REMARK                            x       y       z     vdW  Elec       q    Type
REMARK                         _______ _______ _______ _____ _____    ______ ____
ROOT
ATOM      1  C   LIG    1        3.806  -4.598  -0.424  0.00  0.00    +0.280 C 
ATOM      2  C   LIG    1        3.553  -5.781   0.470  0.00  0.00    +0.262 C 
ATOM      3  N   LIG    1        4.462  -6.739   0.636  0.00  0.00    -0.271 N 
ATOM      4  C   LIG    1        4.095  -7.879   1.480  0.00  0.00    +0.138 C 
ATOM      5  C   LIG    1        5.729  -6.742   0.075  0.00  0.00    +0.045 A 
ATOM      6  C   LIG    1        6.784  -7.186   0.874  0.00  0.00    +0.024 A 
ATOM      7  C   LIG    1        8.071  -7.220   0.384  0.00  0.00    +0.002 A 
ATOM      8  C   LIG    1        8.332  -6.811  -0.913  0.00  0.00    +0.001 A 
ATOM      9  C   LIG    1        7.305  -6.369  -1.715  0.00  0.00    +0.012 A 
ATOM     10  C   LIG    1        5.989  -6.328  -1.230  0.00  0.00    +0.022 A 
ATOM     11  C   LIG    1        4.941  -5.840  -2.141  0.00  0.00    +0.077 C 
ATOM     12  O   LIG    1        2.494  -5.864   1.054  0.00  0.00    -0.271 OA
ATOM     13  N   LIG    1        3.970  -5.069  -1.799  0.00  0.00    -0.251 NA
ENDROOT
BRANCH   1  17
ATOM     14  N   LIG    1        1.833  -1.506  -0.164  0.00  0.00    -0.269 N 
ATOM     15  H   LIG    1        0.929  -1.854  -0.131  0.00  0.00    +0.156 HD
ATOM     16  C   LIG    1        2.880  -2.352  -0.229  0.00  0.00    +0.306 C 
ATOM     17  N   LIG    1        2.668  -3.677  -0.354  0.00  0.00    -0.270 N 
ATOM     18  H   LIG    1        1.762  -4.022  -0.397  0.00  0.00    +0.153 HD
ATOM     19  O   LIG    1        4.015  -1.921  -0.174  0.00  0.00    -0.252 OA
BRANCH  14  25
ATOM     20  C   LIG    1        0.459   2.975   1.321  0.00  0.00    +0.044 C 
ATOM     21  C   LIG    1        1.403   2.072   0.570  0.00  0.00    -0.049 A 
ATOM     22  C   LIG    1        2.483   2.609  -0.105  0.00  0.00    +0.003 A 
ATOM     23  C   LIG    1        3.349   1.784  -0.799  0.00  0.00    +0.002 A 
ATOM     24  C   LIG    1        3.136   0.419  -0.821  0.00  0.00    +0.023 A 
ATOM     25  C   LIG    1        2.051  -0.123  -0.144  0.00  0.00    +0.035 A 
ATOM     26  C   LIG    1        1.184   0.708   0.552  0.00  0.00    +0.026 A 
ENDBRANCH  14  25
ENDBRANCH   1  17
BRANCH  11  27
ATOM     27  C   LIG    1        5.012  -6.267  -3.558  0.00  0.00    +0.001 A 
ATOM     28  C   LIG    1        4.414  -5.493  -4.553  0.00  0.00    +0.010 A 
ATOM     29  C   LIG    1        4.488  -5.893  -5.871  0.00  0.00    +0.001 A 
ATOM     30  C   LIG    1        5.143  -7.065  -6.206  0.00  0.00    +0.000 A 
ATOM     31  C   LIG    1        5.733  -7.839  -5.223  0.00  0.00    +0.001 A 
ATOM     32  C   LIG    1        5.671  -7.447  -3.902  0.00  0.00    +0.010 A 
ENDBRANCH  11  27
TORSDOF 3
