REMARK  Name = ZINC03806245
REMARK                            x       y       z     vdW  Elec       q    Type
REMARK                         _______ _______ _______ _____ _____    ______ ____
ROOT
ATOM      1  C   LIG    1       -1.508  -2.383   0.004  0.00  0.00    +0.123 C 
ATOM      2  N   LIG    1       -2.424  -3.158   0.586  0.00  0.00    -0.382 N 
ATOM      3  H   LIG    1       -2.318  -4.122   0.579  0.00  0.00    +0.158 HD
ATOM      4  H   LIG    1       -3.196  -2.757   1.015  0.00  0.00    +0.158 HD
ENDROOT
BRANCH   1   5
ATOM      5  N   LIG    1       -0.447  -2.934  -0.587  0.00  0.00    -0.340 N 
ATOM      6  H   LIG    1       -0.342  -3.898  -0.593  0.00  0.00    +0.144 HD
ATOM      7  H   LIG    1        0.219  -2.370  -1.010  0.00  0.00    +0.144 HD
ENDBRANCH   1   5
BRANCH   1   8
ATOM      8  S   LIG    1       -1.700  -0.632   0.015  0.00  0.00    -0.093 S 
BRANCH   8  10
ATOM      9  C   LIG    1       -0.019   1.526   0.010  0.00  0.00    +0.016 C 
ATOM     10  C   LIG    1        0.002  -0.004   0.002  0.00  0.00    +0.074 C 
ENDBRANCH   8  10
ENDBRANCH   1   8
TORSDOF 3
