REMARK  Name = ZINC03871085
REMARK                            x       y       z     vdW  Elec       q    Type
REMARK                         _______ _______ _______ _____ _____    ______ ____
ROOT
ATOM      1  C   LIG    1        0.053  -2.802  -2.293  0.00  0.00    +0.171 C 
ATOM      2  C   LIG    1        0.099  -2.038  -3.400  0.00  0.00    +0.064 C 
ATOM      3  S   LIG    1        0.258  -2.781  -4.989  0.00  0.00    -0.083 S 
ATOM      4  C   LIG    1       -1.184  -3.783  -5.138  0.00  0.00    +0.037 A 
ATOM      5  C   LIG    1       -2.089  -3.515  -6.159  0.00  0.00    +0.017 A 
ATOM      6  C   LIG    1       -3.221  -4.296  -6.304  0.00  0.00    +0.001 A 
ATOM      7  C   LIG    1       -3.450  -5.346  -5.435  0.00  0.00    +0.002 A 
ATOM      8  C   LIG    1       -2.556  -5.612  -4.416  0.00  0.00    +0.027 A 
ATOM      9  C   LIG    1       -1.418  -4.825  -4.255  0.00  0.00    +0.060 A 
ATOM     10  N   LIG    1       -0.572  -5.116  -3.170  0.00  0.00    -0.312 N 
ATOM     11  C   LIG    1       -0.260  -6.409  -2.807  0.00  0.00    +0.092 A 
ATOM     12  C   LIG    1        0.575  -6.369  -1.739  0.00  0.00    +0.020 A 
ATOM     13  C   LIG    1        0.787  -5.022  -1.417  0.00  0.00    +0.031 A 
ATOM     14  C   LIG    1        0.072  -4.264  -2.316  0.00  0.00    +0.090 A 
ENDROOT
BRANCH   2  15
ATOM     15  C   LIG    1        0.017  -0.571  -3.281  0.00  0.00    -0.007 A 
ATOM     16  C   LIG    1        0.817   0.104  -2.355  0.00  0.00    +0.013 A 
ATOM     17  C   LIG    1        0.737   1.476  -2.248  0.00  0.00    +0.046 A 
ATOM     18  C   LIG    1       -0.138   2.188  -3.059  0.00  0.00    +0.120 A 
ATOM     19  C   LIG    1       -0.935   1.522  -3.981  0.00  0.00    +0.046 A 
ATOM     20  C   LIG    1       -0.858   0.151  -4.099  0.00  0.00    +0.013 A 
BRANCH  18  21
ATOM     21  O   LIG    1       -0.214   3.540  -2.950  0.00  0.00    -0.495 OA
ATOM     22  C   LIG    1       -1.134   4.210  -3.815  0.00  0.00    +0.277 C 
ENDBRANCH  18  21
ENDBRANCH   2  15
BRANCH   1  23
ATOM     23  O   LIG    1       -0.009  -2.180  -1.084  0.00  0.00    -0.408 OA
BRANCH  23  26
ATOM     24  C   LIG    1       -2.440  -1.902   1.656  0.00  0.00    +0.135 C 
ATOM     25  N   LIG    1       -1.270  -1.659   0.808  0.00  0.00    -0.273 N 
ATOM     26  C   LIG    1       -1.129  -2.330  -0.353  0.00  0.00    +0.408 C 
ATOM     27  O   LIG    1       -2.012  -3.071  -0.738  0.00  0.00    -0.226 OA
ATOM     28  C   LIG    1       -0.256  -0.687   1.220  0.00  0.00    +0.135 C 
ENDBRANCH  23  26
ENDBRANCH   1  23
TORSDOF 4
