REMARK  Name = ZINC03830999
REMARK                            x       y       z     vdW  Elec       q    Type
REMARK                         _______ _______ _______ _____ _____    ______ ____
ROOT
ATOM      1  C   LIG    1        0.810   7.891  -1.328  0.00  0.00    +0.155 A 
ATOM      2  C   LIG    1        2.025   7.250  -1.526  0.00  0.00    +0.057 A 
ATOM      3  I   LIG    1        3.774   8.375  -1.784  0.00  0.00    -0.040 I 
ATOM      4  C   LIG    1        2.081   5.869  -1.551  0.00  0.00    +0.021 A 
ATOM      5  C   LIG    1        0.927   5.127  -1.380  0.00  0.00    -0.046 A 
ATOM      6  C   LIG    1       -0.286   5.762  -1.189  0.00  0.00    +0.021 A 
ATOM      7  C   LIG    1       -0.346   7.143  -1.157  0.00  0.00    +0.057 A 
ATOM      8  I   LIG    1       -2.183   8.105  -0.859  0.00  0.00    -0.040 I 
ENDROOT
BRANCH   1   9
ATOM      9  O   LIG    1        0.753   9.248  -1.302  0.00  0.00    -0.454 OA
BRANCH   9  16
ATOM     10  C   LIG    1        0.396   9.182  -3.653  0.00  0.00    +0.050 A 
ATOM     11  C   LIG    1        0.176   9.844  -4.845  0.00  0.00    +0.050 A 
ATOM     12  C   LIG    1        0.110  11.229  -4.867  0.00  0.00    +0.130 A 
ATOM     13  C   LIG    1        0.260  11.950  -3.690  0.00  0.00    +0.058 A 
ATOM     14  I   LIG    1        0.161  14.042  -3.722  0.00  0.00    -0.040 I 
ATOM     15  C   LIG    1        0.475  11.287  -2.497  0.00  0.00    +0.064 A 
ATOM     16  C   LIG    1        0.541   9.901  -2.476  0.00  0.00    +0.130 A 
BRANCH  12  17
ATOM     17  O   LIG    1       -0.101  11.882  -6.041  0.00  0.00    -0.506 OA
ATOM     18  H   LIG    1        0.710  12.110  -6.516  0.00  0.00    +0.292 HD
ENDBRANCH  12  17
ENDBRANCH   9  16
ENDBRANCH   1   9
BRANCH   5  19
ATOM     19  C   LIG    1        0.991   3.621  -1.409  0.00  0.00    +0.030 C 
BRANCH  19  20
ATOM     20  CA  LIG    1        1.235   3.094   0.007  0.00  0.00    +0.040 C 
BRANCH  20  21
ATOM     21  N   LIG    1        2.559   3.519   0.493  0.00  0.00    +0.387 N 
ATOM     22  H1  LIG    1        2.717   3.128   1.429  0.00  0.00    -0.089 HD
ATOM     23  H2  LIG    1        2.602   4.536   0.546  0.00  0.00    -0.089 HD
ATOM     24  H3  LIG    1        3.287   3.182  -0.135  0.00  0.00    -0.089 HD
ENDBRANCH  20  21
BRANCH  20  25
ATOM     25  C   LIG    1        1.177   1.588  -0.001  0.00  0.00    +0.290 C 
ATOM     26  O   LIG    1        2.199   0.944  -0.014  0.00  0.00    -0.253 OA
BRANCH  25  27
ATOM     27  OXT LIG    1       -0.011   0.963   0.007  0.00  0.00    -0.482 OA
ATOM     28  HXT LIG    1       -0.804   1.462   0.018  0.00  0.00    +0.295 HD
ENDBRANCH  25  27
ENDBRANCH  20  25
ENDBRANCH  19  20
ENDBRANCH   5  19
TORSDOF 8
