REMARK  Name = ZINC03777854
REMARK                            x       y       z     vdW  Elec       q    Type
REMARK                         _______ _______ _______ _____ _____    ______ ____
ROOT
ATOM      1  N   LIG    1        1.588   3.152   0.004  0.00  0.00    -0.278 N 
ATOM      2  C   LIG    1        1.313   1.793  -0.001  0.00  0.00    +0.146 A 
ATOM      3  N   LIG    1        2.079   0.703  -0.014  0.00  0.00    -0.326 N 
ATOM      4  H   LIG    1        3.106   0.702  -0.024  0.00  0.00    +0.169 HD
ATOM      5  C   LIG    1        1.315  -0.379  -0.013  0.00  0.00    +0.113 A 
ATOM      6  N   LIG    1        0.002  -0.004   0.002  0.00  0.00    -0.323 N 
ATOM      7  C   LIG    1       -1.161  -0.894   0.008  0.00  0.00    +0.151 C 
ATOM      8  C   LIG    1       -0.017   1.379   0.010  0.00  0.00    +0.150 A 
ATOM      9  C   LIG    1       -1.038   2.350   0.030  0.00  0.00    +0.282 A 
ATOM     10  N   LIG    1       -0.706   3.657   0.028  0.00  0.00    -0.259 N 
ATOM     11  O   LIG    1       -2.209   2.012   0.044  0.00  0.00    -0.265 OA
ATOM     12  C   LIG    1        0.581   4.045   0.018  0.00  0.00    +0.334 A 
ATOM     13  O   LIG    1        0.842   5.232   0.022  0.00  0.00    -0.246 OA
ENDROOT
BRANCH   5  14
ATOM     14  C   LIG    1        1.803  -1.760  -0.024  0.00  0.00    +0.045 C 
ATOM     15  C   LIG    1        3.129  -2.006  -0.038  0.00  0.00    +0.011 C 
BRANCH  15  16
ATOM     16  C   LIG    1        3.619  -3.393  -0.050  0.00  0.00    -0.021 A 
ATOM     17  C   LIG    1        2.711  -4.458  -0.046  0.00  0.00    +0.012 A 
ATOM     18  C   LIG    1        3.173  -5.756  -0.057  0.00  0.00    +0.050 A 
ATOM     19  C   LIG    1        4.538  -6.011  -0.072  0.00  0.00    +0.162 A 
ATOM     20  C   LIG    1        5.448  -4.956  -0.076  0.00  0.00    +0.162 A 
ATOM     21  C   LIG    1        4.994  -3.651  -0.070  0.00  0.00    +0.057 A 
BRANCH  19  22
ATOM     22  O   LIG    1        4.987  -7.293  -0.083  0.00  0.00    -0.491 OA
ATOM     23  C   LIG    1        4.000  -8.327  -0.079  0.00  0.00    +0.277 C 
ENDBRANCH  19  22
BRANCH  20  24
ATOM     24  O   LIG    1        6.784  -5.210  -0.091  0.00  0.00    -0.491 OA
ATOM     25  C   LIG    1        7.659  -4.081  -0.094  0.00  0.00    +0.277 C 
ENDBRANCH  20  24
ENDBRANCH  15  16
ENDBRANCH   5  14
BRANCH   1  26
ATOM     26  C   LIG    1        2.978   3.617  -0.007  0.00  0.00    +0.128 C 
BRANCH  26  28
ATOM     27  C   LIG    1        4.898   4.272  -1.466  0.00  0.00    +0.005 C 
ATOM     28  C   LIG    1        3.447   3.787  -1.454  0.00  0.00    +0.018 C 
ENDBRANCH  26  28
ENDBRANCH   1  26
BRANCH  10  29
ATOM     29  C   LIG    1       -1.764   4.670   0.044  0.00  0.00    +0.130 C 
BRANCH  29  30
ATOM     30  C   LIG    1       -2.146   5.031  -1.392  0.00  0.00    +0.018 C 
ATOM     31  C   LIG    1       -3.251   6.089  -1.376  0.00  0.00    +0.005 C 
ENDBRANCH  29  30
ENDBRANCH  10  29
TORSDOF 8
