REMARK  Name = ZINC03830891
REMARK                            x       y       z     vdW  Elec       q    Type
REMARK                         _______ _______ _______ _____ _____    ______ ____
ROOT
ATOM      1  C   UNK A  1       -1.412  -0.526   0.013  0.00  0.00    +0.214 C 
ATOM      2  N   UNK A  1       -1.640  -1.854   0.008  0.00  0.00    -0.303 N 
ATOM      3  H   UNK A  1       -0.894  -2.474  -0.003  0.00  0.00    +0.149 HD
ATOM      4  O   UNK A  1       -2.344   0.250   0.026  0.00  0.00    -0.276 OA
ENDROOT
BRANCH   1   5
ATOM      5  C   UNK A  1        0.002  -0.004   0.002  0.00  0.00    +0.095 C 
BRANCH   5   6
ATOM      6  C   UNK A  1       -0.019   1.526   0.010  0.00  0.00    +0.004 C 
BRANCH   6   7
ATOM      7  C   UNK A  1        1.417   2.055  -0.000  0.00  0.00    +0.036 C 
BRANCH   7   8
ATOM      8  N   UNK A  1        2.091   1.669   1.246  0.00  0.00    +0.387 N 
ATOM      9  H   UNK A  1        3.037   2.018   1.239  0.00  0.00    -0.089 HD
ATOM     10  H   UNK A  1        2.104   0.663   1.324  0.00  0.00    -0.089 HD
ATOM     11  H   UNK A  1        1.594   2.060   2.033  0.00  0.00    -0.089 HD
ENDBRANCH   7   8
BRANCH   7  12
ATOM     12  C   UNK A  1        1.397   3.558  -0.116  0.00  0.00    +0.290 C 
ATOM     13  O   UNK A  1        1.730   4.247   0.833  0.00  0.00    -0.253 OA
BRANCH  12  14
ATOM     14  O   UNK A  1        1.048   4.084  -1.159  0.00  0.00    -0.482 OA
ATOM     15  H   UNK A  1        0.793   3.555  -1.889  0.00  0.00    +0.295 HD
ENDBRANCH  12  14
ENDBRANCH   7  12
ENDBRANCH   6   7
ENDBRANCH   5   6
ENDBRANCH   1   5
BRANCH   2  16
ATOM     16  C   UNK A  1       -3.014  -2.361   0.018  0.00  0.00    +0.168 C 
BRANCH  16  17
ATOM     17  C   UNK A  1       -3.034  -3.746   0.611  0.00  0.00    +0.235 C 
ATOM     18  N   GLY A  2       -4.199  -4.415   0.723  0.00  0.00    -0.303 N 
ATOM     19  H   GLY A  2       -5.025  -4.005   0.421  0.00  0.00    +0.149 HD
ATOM     20  O   UNK A  1       -2.002  -4.259   0.988  0.00  0.00    -0.274 OA
BRANCH  18  21
ATOM     21  CA  GLY A  2       -4.218  -5.761   1.300  0.00  0.00    +0.224 C 
BRANCH  21  22
ATOM     22  C   GLY A  2       -5.632  -6.283   1.310  0.00  0.00    +0.322 C 
ATOM     23  O   GLY A  2       -6.540  -5.594   0.876  0.00  0.00    -0.249 OA
BRANCH  22  24
ATOM     24  OXT GLY A  2       -5.869  -7.394   1.753  0.00  0.00    -0.480 OA
ATOM     25  HXT GLY A  2       -5.171  -7.924   2.086  0.00  0.00    +0.295 HD
ENDBRANCH  22  24
ENDBRANCH  21  22
ENDBRANCH  18  21
ENDBRANCH  16  17
BRANCH  16  26
ATOM     26  C   UNK A  1       -3.550  -2.412  -1.414  0.00  0.00    +0.097 C 
BRANCH  26  27
ATOM     27  S   UNK A  1       -3.526  -0.745  -2.128  0.00  0.00    -0.176 S 
ATOM     28  H   UNK A  1       -4.013  -0.916  -3.370  0.00  0.00    +0.102 HD
ENDBRANCH  26  27
ENDBRANCH  16  26
ENDBRANCH   2  16
TORSDOF 13
