REMARK  Name = ZINC03860825
REMARK                            x       y       z     vdW  Elec       q    Type
REMARK                         _______ _______ _______ _____ _____    ______ ____
ROOT
ATOM      1  C   LIG    1        0.657  -2.104  -1.120  0.00  0.00    +0.129 C 
ATOM      2  C   LIG    1       -0.764  -2.671  -1.136  0.00  0.00    +0.129 C 
ATOM      3  C   LIG    1       -0.710  -4.197  -1.224  0.00  0.00    +0.032 C 
ATOM      4  C   LIG    1        0.028  -4.616  -2.498  0.00  0.00    +0.004 C 
ATOM      5  C   LIG    1        1.448  -4.050  -2.465  0.00  0.00    -0.024 C 
ATOM      6  C   LIG    1        2.212  -4.466  -3.723  0.00  0.00    -0.074 C 
ATOM      7  N   LIG    1        3.575  -3.917  -3.658  0.00  0.00    +0.386 N 
ATOM      8  H   LIG    1        4.003  -4.218  -2.796  0.00  0.00    -0.081 HD
ATOM      9  C   LIG    1        4.375  -4.407  -4.785  0.00  0.00    -0.073 C 
ATOM     10  C   LIG    1        5.858  -4.108  -4.525  0.00  0.00    +0.019 C 
ATOM     11  C   LIG    1        5.978  -2.663  -4.112  0.00  0.00    -0.022 A 
ATOM     12  C   LIG    1        7.151  -1.822  -4.041  0.00  0.00    +0.003 A 
ATOM     13  C   LIG    1        8.503  -2.050  -4.318  0.00  0.00    +0.010 A 
ATOM     14  C   LIG    1        9.361  -0.994  -4.138  0.00  0.00    +0.001 A 
ATOM     15  C   LIG    1        8.921   0.245  -3.701  0.00  0.00    +0.002 A 
ATOM     16  C   LIG    1        7.590   0.499  -3.419  0.00  0.00    +0.026 A 
ATOM     17  C   LIG    1        6.695  -0.554  -3.594  0.00  0.00    +0.047 A 
ATOM     18  N   LIG    1        5.344  -0.647  -3.413  0.00  0.00    -0.359 N 
ATOM     19  H   LIG    1        4.772   0.074  -3.108  0.00  0.00    +0.166 HD
ATOM     20  C   LIG    1        4.921  -1.909  -3.726  0.00  0.00    +0.006 A 
ATOM     21  C   LIG    1        3.514  -2.449  -3.674  0.00  0.00    -0.020 C 
ATOM     22  C   LIG    1        2.802  -1.952  -2.415  0.00  0.00    -0.005 C 
ATOM     23  C   LIG    1        1.381  -2.521  -2.400  0.00  0.00    +0.005 C 
ENDROOT
BRANCH   1  24
ATOM     24  C   LIG    1        0.598  -0.600  -1.043  0.00  0.00    +0.313 C 
ATOM     25  O   LIG    1        1.088   0.070  -1.921  0.00  0.00    -0.250 OA
BRANCH  24  27
ATOM     26  C   LIG    1       -0.017   1.425   0.010  0.00  0.00    +0.280 C 
ATOM     27  O   LIG    1        0.002  -0.004   0.002  0.00  0.00    -0.468 OA
ENDBRANCH  24  27
ENDBRANCH   1  24
BRANCH   2  28
ATOM     28  O   LIG    1       -1.469  -2.156  -2.268  0.00  0.00    -0.391 OA
ATOM     29  H   LIG    1       -2.379  -2.474  -2.343  0.00  0.00    +0.210 HD
ENDBRANCH   2  28
TORSDOF 3
