REMARK  Name = ZINC03814479
REMARK                            x       y       z     vdW  Elec       q    Type
REMARK                         _______ _______ _______ _____ _____    ______ ____
ROOT
ATOM      1  C   LIG    1        3.580  -2.482  -3.537  0.00  0.00    +0.251 A 
ATOM      2  C   LIG    1        3.775  -3.941  -3.563  0.00  0.00    +0.208 A 
ATOM      3  C   LIG    1        4.482  -4.496  -4.729  0.00  0.00    +0.154 A 
ATOM      4  N   LIG    1        4.891  -3.652  -5.667  0.00  0.00    -0.198 NA
ATOM      5  C   LIG    1        4.676  -2.349  -5.571  0.00  0.00    +0.217 A 
ATOM      6  N   LIG    1        4.044  -1.776  -4.555  0.00  0.00    -0.178 NA
ENDROOT
BRANCH   3   7
ATOM      7  N   LIG    1        4.712  -5.844  -4.842  0.00  0.00    -0.341 N 
ATOM      8  H   LIG    1        5.243  -6.186  -5.578  0.00  0.00    +0.144 HD
ATOM      9  H   LIG    1        4.343  -6.455  -4.185  0.00  0.00    +0.144 HD
ENDBRANCH   3   7
BRANCH   5  10
ATOM     10  N   LIG    1        5.132  -1.542  -6.585  0.00  0.00    -0.327 N 
ATOM     11  H   LIG    1        4.990  -0.583  -6.544  0.00  0.00    +0.145 HD
ATOM     12  H   LIG    1        5.596  -1.931  -7.343  0.00  0.00    +0.145 HD
ENDBRANCH   5  10
BRANCH   2  13
ATOM     13  N   LIG    1        3.336  -4.716  -2.584  0.00  0.00    -0.022 NA
ATOM     14  O   LIG    1        2.861  -4.218  -1.579  0.00  0.00    -0.143 OA
ENDBRANCH   2  13
BRANCH   1  15
ATOM     15  O   LIG    1        2.942  -1.884  -2.509  0.00  0.00    -0.474 OA
BRANCH  15  16
ATOM     16  C   LIG    1        2.795  -0.464  -2.575  0.00  0.00    +0.234 C 
BRANCH  16  20
ATOM     17  C   LIG    1       -0.162   1.499  -0.099  0.00  0.00    +0.000 C 
ATOM     18  C   LIG    1        1.263   2.054  -0.097  0.00  0.00    +0.000 C 
ATOM     19  C   LIG    1        2.005   1.560  -1.340  0.00  0.00    +0.007 C 
ATOM     20  C   LIG    1        2.053   0.031  -1.331  0.00  0.00    +0.027 C 
ATOM     21  C   LIG    1        0.627  -0.525  -1.333  0.00  0.00    +0.007 C 
ATOM     22  C   LIG    1       -0.114  -0.030  -0.090  0.00  0.00    +0.000 C 
ENDBRANCH  16  20
ENDBRANCH  15  16
ENDBRANCH   1  15
TORSDOF 6
