REMARK  Name = ZINC03816583
REMARK                            x       y       z     vdW  Elec       q    Type
REMARK                         _______ _______ _______ _____ _____    ______ ____
ROOT
ATOM      1  C   LIG    1        3.100  -1.883  -7.896  0.00  0.00    +0.125 C 
ATOM      2  N   LIG    1        2.922  -0.840  -8.759  0.00  0.00    -0.364 N 
ATOM      3  H   LIG    1        3.317  -0.869  -9.645  0.00  0.00    +0.162 HD
ENDROOT
BRANCH   1   4
ATOM      4  N   LIG    1        2.544  -1.841  -6.649  0.00  0.00    -0.322 N 
ATOM      5  H   LIG    1        2.022  -1.071  -6.377  0.00  0.00    +0.148 HD
BRANCH   4   6
ATOM      6  C   LIG    1        2.736  -2.960  -5.723  0.00  0.00    +0.138 C 
BRANCH   6  10
ATOM      7  C   LIG    1        0.724  -2.131  -2.047  0.00  0.00    -0.042 A 
ATOM      8  C   LIG    1        0.058  -2.785  -3.067  0.00  0.00    +0.004 A 
ATOM      9  C   LIG    1        0.709  -3.054  -4.257  0.00  0.00    +0.005 A 
ATOM     10  C   LIG    1        2.026  -2.667  -4.427  0.00  0.00    -0.030 A 
ATOM     11  C   LIG    1        2.691  -2.012  -3.407  0.00  0.00    +0.005 A 
ATOM     12  C   LIG    1        2.038  -1.740  -2.219  0.00  0.00    +0.004 A 
BRANCH   7  14
ATOM     13  C   LIG    1       -0.016  -0.327  -0.515  0.00  0.00    +0.015 C 
ATOM     14  C   LIG    1        0.014  -1.839  -0.750  0.00  0.00    -0.013 C 
ATOM     15  C   LIG    1       -1.418  -2.373  -0.821  0.00  0.00    +0.015 C 
ATOM     16  C   LIG    1        0.756  -2.520   0.402  0.00  0.00    +0.015 C 
ENDBRANCH   7  14
ENDBRANCH   6  10
ENDBRANCH   4   6
ENDBRANCH   1   4
BRANCH   1  17
ATOM     17  S   LIG    1        3.994  -3.202  -8.362  0.00  0.00    -0.110 S 
ATOM     18  H   LIG    1        4.033  -4.105  -7.346  0.00  0.00    +0.110 HD
ENDBRANCH   1  17
BRANCH   2  19
ATOM     19  C   LIG    1        2.133   0.325  -8.348  0.00  0.00    +0.150 C 
BRANCH  19  20
ATOM     20  C   LIG    1        2.090   1.325  -9.474  0.00  0.00    -0.025 A 
ATOM     21  C   LIG    1        3.065   2.301  -9.567  0.00  0.00    +0.007 A 
ATOM     22  C   LIG    1        3.030   3.222 -10.597  0.00  0.00    +0.028 A 
ATOM     23  C   LIG    1        2.014   3.167 -11.541  0.00  0.00    +0.089 A 
ATOM     24  C   LIG    1        1.032   2.184 -11.447  0.00  0.00    +0.143 A 
ATOM     25  C   LIG    1        1.078   1.262 -10.414  0.00  0.00    +0.053 A 
BRANCH  23  26
ATOM     26  N   LIG    1        1.976   4.099 -12.585  0.00  0.00    -0.217 N 
ATOM     27  H   LIG    1        1.123   4.424 -12.914  0.00  0.00    +0.173 HD
BRANCH  26  28
ATOM     28  S   LIG    1        3.387   4.646 -13.259  0.00  0.00    +0.040 S 
ATOM     29  C   LIG    1        4.197   3.160 -13.913  0.00  0.00    +0.218 C 
ATOM     30  O   LIG    1        4.131   5.169 -12.167  0.00  0.00    -0.155 OA
ATOM     31  O   LIG    1        2.976   5.489 -14.326  0.00  0.00    -0.155 OA
ENDBRANCH  26  28
ENDBRANCH  23  26
BRANCH  24  32
ATOM     32  O   LIG    1        0.034   2.126 -12.369  0.00  0.00    -0.493 OA
ATOM     33  C   LIG    1       -0.938   1.090 -12.209  0.00  0.00    +0.277 C 
ENDBRANCH  24  32
ENDBRANCH  19  20
ENDBRANCH   2  19
TORSDOF 10
