REMARK  Name = ZINC03780812
REMARK                            x       y       z     vdW  Elec       q    Type
REMARK                         _______ _______ _______ _____ _____    ______ ____
ROOT
ATOM      1  C   LIG    1       -1.588   2.465  -1.419  0.00  0.00    +0.019 C 
ATOM      2  C   LIG    1       -1.223   2.090   0.018  0.00  0.00    +0.029 C 
ATOM      3  C   LIG    1       -2.456   1.568   0.730  0.00  0.00    +0.015 C 
ATOM      4  C   LIG    1       -3.554   2.643   0.612  0.00  0.00    +0.009 C 
ATOM      5  C   LIG    1       -3.072   3.965   1.191  0.00  0.00    +0.023 C 
ATOM      6  C   LIG    1       -4.116   5.042   1.110  0.00  0.00    -0.038 A 
ATOM      7  C   LIG    1       -5.446   4.676   1.271  0.00  0.00    +0.008 A 
ATOM      8  C   LIG    1       -6.446   5.624   1.223  0.00  0.00    +0.048 A 
ATOM      9  C   LIG    1       -6.121   6.956   1.010  0.00  0.00    +0.150 A 
ATOM     10  C   LIG    1       -4.796   7.319   0.842  0.00  0.00    +0.166 A 
ATOM     11  C   LIG    1       -3.790   6.363   0.886  0.00  0.00    -0.010 A 
ATOM     12  C   LIG    1       -2.373   6.831   0.684  0.00  0.00    +0.038 C 
ATOM     13  C   LIG    1       -1.369   5.772   1.137  0.00  0.00    +0.009 C 
ATOM     14  C   LIG    1       -1.774   4.433   0.521  0.00  0.00    +0.001 C 
ATOM     15  C   LIG    1       -0.014   1.203   0.009  0.00  0.00    +0.139 C 
ATOM     16  O   LIG    1        0.002  -0.004   0.002  0.00  0.00    -0.297 OA
ATOM     17  C   LIG    1        1.191   2.139   0.002  0.00  0.00    +0.075 C 
ATOM     18  C   LIG    1        0.632   3.583   0.118  0.00  0.00    +0.012 C 
ATOM     19  C   LIG    1       -0.735   3.360   0.776  0.00  0.00    +0.006 C 
ENDROOT
BRANCH   9  20
ATOM     20  O   LIG    1       -7.098   7.899   0.966  0.00  0.00    -0.493 OA
ATOM     21  C   LIG    1       -8.442   7.449   1.148  0.00  0.00    +0.277 C 
ENDBRANCH   9  20
BRANCH  10  22
ATOM     22  N   LIG    1       -4.449   8.739   0.613  0.00  0.00    +0.010 N 
ATOM     23  O   LIG    1       -4.398   9.179  -0.521  0.00  0.00    -0.130 OA
BRANCH  22  24
ATOM     24  O   LIG    1       -4.213   9.469   1.560  0.00  0.00    -0.396 OA
ATOM     25  H   LIG    1       -4.252   9.131   2.433  0.00  0.00    +0.329 HD
ENDBRANCH  22  24
ENDBRANCH  10  22
TORSDOF 3
