REMARK  Name = ZINC03842037
REMARK                            x       y       z     vdW  Elec       q    Type
REMARK                         _______ _______ _______ _____ _____    ______ ____
ROOT
ATOM      1  C   LIG    1        0.092   0.110  -0.757  0.00  0.00    +0.140 C 
ATOM      2  C   LIG    1        1.074  -0.105   0.396  0.00  0.00    +0.036 C 
ENDROOT
BRANCH   1  13
ATOM      3  N   LIG    1       -0.435  -0.977  -2.901  0.00  0.00    -0.263 N 
ATOM      4  C   LIG    1       -0.133  -1.756  -3.966  0.00  0.00    +0.268 A 
ATOM      5  C   LIG    1        1.203  -2.367  -3.998  0.00  0.00    +0.084 A 
ATOM      6  C   LIG    1        1.616  -3.192  -5.045  0.00  0.00    +0.018 A 
ATOM      7  C   LIG    1        2.893  -3.722  -4.986  0.00  0.00    +0.021 A 
ATOM      8  C   LIG    1        3.709  -3.421  -3.905  0.00  0.00    +0.113 A 
ATOM      9  N   LIG    1        3.302  -2.641  -2.926  0.00  0.00    -0.236 NA
ATOM     10  C   LIG    1        2.086  -2.103  -2.928  0.00  0.00    +0.167 A 
ATOM     11  N   LIG    1        1.666  -1.299  -1.920  0.00  0.00    -0.212 NA
ATOM     12  O   LIG    1       -0.937  -1.947  -4.859  0.00  0.00    -0.267 OA
ATOM     13  C   LIG    1        0.479  -0.772  -1.917  0.00  0.00    +0.140 A 
BRANCH   3  17
ATOM     14  C   LIG    1       -4.191   0.818  -2.648  0.00  0.00    +0.121 A 
ATOM     15  C   LIG    1       -3.283   1.241  -3.609  0.00  0.00    +0.047 A 
ATOM     16  C   LIG    1       -2.039   0.647  -3.693  0.00  0.00    +0.030 A 
ATOM     17  C   LIG    1       -1.697  -0.374  -2.816  0.00  0.00    +0.051 A 
ATOM     18  C   LIG    1       -2.608  -0.800  -1.859  0.00  0.00    +0.030 A 
ATOM     19  C   LIG    1       -3.849  -0.202  -1.772  0.00  0.00    +0.047 A 
BRANCH  14  20
ATOM     20  O   LIG    1       -5.415   1.404  -2.566  0.00  0.00    -0.492 OA
BRANCH  20  22
ATOM     21  C   LIG    1       -7.639   1.640  -1.651  0.00  0.00    +0.048 C 
ATOM     22  C   LIG    1       -6.270   0.972  -1.506  0.00  0.00    +0.225 C 
ENDBRANCH  20  22
ENDBRANCH  14  20
ENDBRANCH   3  17
ENDBRANCH   1  13
BRANCH   1  23
ATOM     23  N   LIG    1        0.131   1.513  -1.176  0.00  0.00    -0.287 N 
ATOM     24  C   LIG    1       -0.978   2.274  -1.087  0.00  0.00    +0.221 C 
ATOM     25  O   LIG    1       -1.988   1.818  -0.595  0.00  0.00    -0.275 OA
BRANCH  24  26
ATOM     26  C   LIG    1       -0.963   3.691  -1.600  0.00  0.00    +0.131 C 
BRANCH  26  27
ATOM     27  C   LIG    1       -2.236   4.386  -1.192  0.00  0.00    -0.038 A 
ATOM     28  C   LIG    1       -3.297   4.458  -2.075  0.00  0.00    +0.007 A 
ATOM     29  C   LIG    1       -4.467   5.090  -1.702  0.00  0.00    +0.046 A 
ATOM     30  C   LIG    1       -4.573   5.663  -0.443  0.00  0.00    +0.130 A 
ATOM     31  C   LIG    1       -3.505   5.595   0.440  0.00  0.00    +0.046 A 
ATOM     32  C   LIG    1       -2.339   4.957   0.064  0.00  0.00    +0.007 A 
BRANCH  30  33
ATOM     33  O   LIG    1       -5.721   6.290  -0.074  0.00  0.00    -0.406 OA
BRANCH  33  34
ATOM     34  C   LIG    1       -6.801   6.269  -1.011  0.00  0.00    +0.575 C 
ATOM     35  F   LIG    1       -6.430   6.968  -2.165  0.00  0.00    -0.133 F 
ATOM     36  F   LIG    1       -7.925   6.874  -0.440  0.00  0.00    -0.133 F 
ATOM     37  F   LIG    1       -7.103   4.945  -1.345  0.00  0.00    -0.133 F 
ENDBRANCH  33  34
ENDBRANCH  30  33
ENDBRANCH  26  27
ENDBRANCH  24  26
BRANCH  23  38
ATOM     38  C   LIG    1        1.373   2.088  -1.698  0.00  0.00    +0.145 C 
BRANCH  38  39
ATOM     39  C   LIG    1        1.357   2.036  -3.204  0.00  0.00    -0.012 A 
ATOM     40  C   LIG    1        1.803   0.906  -3.873  0.00  0.00    +0.008 A 
ATOM     41  C   LIG    1        1.765   0.902  -5.258  0.00  0.00    +0.020 A 
ATOM     42  C   LIG    1        1.298   2.020  -5.923  0.00  0.00    +0.111 A 
ATOM     43  N   LIG    1        0.887   3.079  -5.254  0.00  0.00    -0.263 NA
ATOM     44  C   LIG    1        0.904   3.117  -3.936  0.00  0.00    +0.115 A 
ENDBRANCH  38  39
ENDBRANCH  23  38
ENDBRANCH   1  23
TORSDOF 11
