REMARK  Name = ZINC03832269
REMARK                            x       y       z     vdW  Elec       q    Type
REMARK                         _______ _______ _______ _____ _____    ______ ____
ROOT
ATOM      1  C   LIG    1       -0.018   1.458   0.010  0.00  0.00    +0.033 A 
ATOM      2  C   LIG    1        1.262   1.863   0.000  0.00  0.00    +0.091 A 
ATOM      3  N   LIG    1        2.095   0.774  -0.014  0.00  0.00    -0.303 N 
ATOM      4  C   LIG    1        1.359  -0.378  -0.013  0.00  0.00    +0.148 A 
ATOM      5  N   LIG    1        1.661  -1.676  -0.023  0.00  0.00    -0.218 NA
ATOM      6  C   LIG    1        0.712  -2.587  -0.019  0.00  0.00    +0.225 A 
ATOM      7  N   LIG    1       -0.573  -2.280  -0.005  0.00  0.00    -0.220 NA
ATOM      8  C   LIG    1       -0.974  -1.012   0.006  0.00  0.00    +0.129 A 
ATOM      9  C   LIG    1        0.002  -0.004   0.002  0.00  0.00    +0.058 A 
ENDROOT
BRANCH   3  10
ATOM     10  C1* LIG    1        3.559   0.836  -0.028  0.00  0.00    +0.252 C 
ATOM     11  C2* LIG    1        4.085   0.779  -1.479  0.00  0.00    +0.195 C 
ATOM     12  C3* LIG    1        5.296   1.739  -1.476  0.00  0.00    +0.178 C 
ATOM     13  C4* LIG    1        5.358   2.262  -0.024  0.00  0.00    +0.177 C 
ATOM     14  O4* LIG    1        4.013   2.108   0.483  0.00  0.00    -0.346 OA
BRANCH  11  15
ATOM     15  O2* LIG    1        4.496  -0.548  -1.811  0.00  0.00    -0.385 OA
ATOM     16  H2* LIG    1        4.836  -0.641  -2.712  0.00  0.00    +0.210 HD
ENDBRANCH  11  15
BRANCH  12  17
ATOM     17  O3* LIG    1        6.494   1.035  -1.809  0.00  0.00    -0.386 OA
ATOM     18  H3* LIG    1        7.286   1.590  -1.822  0.00  0.00    +0.210 HD
ENDBRANCH  12  17
BRANCH  13  19
ATOM     19  C5* LIG    1        5.772   3.735  -0.005  0.00  0.00    +0.190 C 
BRANCH  19  20
ATOM     20  O5* LIG    1        5.936   4.166   1.347  0.00  0.00    -0.392 OA
ATOM     21  H5* LIG    1        6.199   5.093   1.435  0.00  0.00    +0.210 HD
ENDBRANCH  19  20
ENDBRANCH  13  19
ENDBRANCH   3  10
BRANCH   8  22
ATOM     22  N   LIG    1       -2.321  -0.695   0.021  0.00  0.00    -0.343 N 
ATOM     23  H   LIG    1       -2.985  -1.401   0.024  0.00  0.00    +0.144 HD
ATOM     24  H   LIG    1       -2.600   0.234   0.029  0.00  0.00    +0.144 HD
ENDBRANCH   8  22
TORSDOF 6
