REMARK  Name = ZINC03834020
REMARK                            x       y       z     vdW  Elec       q    Type
REMARK                         _______ _______ _______ _____ _____    ______ ____
ROOT
ATOM      1  C   LIG    1        1.235   1.726   2.793  0.00  0.00    +0.039 C 
ATOM      2  C   LIG    1        1.696   2.135   4.030  0.00  0.00    +0.048 C 
ATOM      3  C   LIG    1        3.098   2.173   4.500  0.00  0.00    +0.008 A 
ATOM      4  C   LIG    1        4.312   1.848   3.900  0.00  0.00    +0.011 A 
ATOM      5  C   LIG    1        5.487   1.998   4.604  0.00  0.00    +0.009 A 
ATOM      6  C   LIG    1        5.459   2.479   5.914  0.00  0.00    -0.016 A 
ATOM      7  C   LIG    1        4.249   2.810   6.516  0.00  0.00    +0.032 A 
ATOM      8  C   LIG    1        3.061   2.663   5.814  0.00  0.00    +0.042 A 
ATOM      9  N   LIG    1        1.740   2.913   6.170  0.00  0.00    -0.281 N 
ATOM     10  H   LIG    1        1.462   3.254   7.035  0.00  0.00    +0.155 HD
ATOM     11  C   LIG    1        0.899   2.622   5.164  0.00  0.00    +0.249 C 
ATOM     12  O   LIG    1       -0.313   2.741   5.188  0.00  0.00    -0.270 OA
ENDROOT
BRANCH   1  20
ATOM     13  C   LIG    1       -0.179   2.293   0.072  0.00  0.00    +0.046 C 
ATOM     14  C   LIG    1       -0.808   1.846   1.366  0.00  0.00    -0.022 A 
ATOM     15  C   LIG    1       -2.165   1.606   1.589  0.00  0.00    -0.023 A 
ATOM     16  C   LIG    1       -2.315   1.219   2.881  0.00  0.00    +0.017 A 
ATOM     17  C   LIG    1       -3.621   0.857   3.540  0.00  0.00    +0.063 C 
ATOM     18  N   LIG    1       -1.100   1.216   3.484  0.00  0.00    -0.358 N 
ATOM     19  H   LIG    1       -0.928   0.981   4.409  0.00  0.00    +0.166 HD
ATOM     20  C   LIG    1       -0.150   1.602   2.562  0.00  0.00    +0.043 A 
BRANCH  15  21
ATOM     21  C   LIG    1       -3.269   1.748   0.573  0.00  0.00    +0.048 C 
BRANCH  21  22
ATOM     22  C   LIG    1       -3.462   0.419  -0.159  0.00  0.00    +0.125 C 
BRANCH  22  23
ATOM     23  C   LIG    1       -4.566   0.561  -1.175  0.00  0.00    +0.305 C 
ATOM     24  O   LIG    1       -5.139   1.617  -1.301  0.00  0.00    -0.251 OA
BRANCH  23  25
ATOM     25  O   LIG    1       -4.912  -0.486  -1.941  0.00  0.00    -0.481 OA
ATOM     26  H   LIG    1       -4.468  -1.305  -1.844  0.00  0.00    +0.295 HD
ENDBRANCH  23  25
ENDBRANCH  22  23
ENDBRANCH  21  22
ENDBRANCH  15  21
ENDBRANCH   1  20
BRANCH   6  27
ATOM     27  C   LIG    1        6.726   2.638   6.668  0.00  0.00    -0.018 A 
ATOM     28  C   LIG    1        6.706   3.123   7.975  0.00  0.00    +0.008 A 
ATOM     29  C   LIG    1        7.888   3.264   8.674  0.00  0.00    +0.001 A 
ATOM     30  C   LIG    1        9.091   2.935   8.076  0.00  0.00    +0.000 A 
ATOM     31  C   LIG    1        9.117   2.459   6.778  0.00  0.00    +0.001 A 
ATOM     32  C   LIG    1        7.941   2.309   6.071  0.00  0.00    +0.008 A 
ENDBRANCH   6  27
TORSDOF 6
