REMARK  Name = ZINC03872582
REMARK                            x       y       z     vdW  Elec       q    Type
REMARK                         _______ _______ _______ _____ _____    ______ ____
ROOT
ATOM      1  C   LIG    1        1.246  -2.159  -0.022  0.00  0.00    +0.004 A 
ATOM      2  C   LIG    1        0.942  -2.930   1.185  0.00  0.00    +0.026 A 
ATOM      3  C   LIG    1        0.616  -2.285   2.386  0.00  0.00    +0.016 A 
ATOM      4  C   LIG    1        0.335  -3.024   3.497  0.00  0.00    +0.046 A 
ATOM      5  C   LIG    1        0.372  -4.419   3.445  0.00  0.00    +0.120 A 
ATOM      6  C   LIG    1        0.692  -5.073   2.267  0.00  0.00    +0.092 A 
ATOM      7  C   LIG    1        0.980  -4.339   1.125  0.00  0.00    +0.140 A 
ATOM      8  O   LIG    1        1.292  -4.966  -0.027  0.00  0.00    -0.455 OA
ATOM      9  C   LIG    1        1.579  -4.294  -1.161  0.00  0.00    +0.140 A 
ATOM     10  C   LIG    1        1.891  -4.992  -2.311  0.00  0.00    +0.097 A 
ATOM     11  C   LIG    1        2.188  -4.299  -3.490  0.00  0.00    +0.183 A 
ATOM     12  C   LIG    1        2.172  -2.889  -3.511  0.00  0.00    +0.051 A 
ATOM     13  C   LIG    1        1.867  -2.193  -2.388  0.00  0.00    +0.016 A 
ATOM     14  O   LIG    1        2.465  -4.921  -4.509  0.00  0.00    -0.288 OA
ATOM     15  C   LIG    1        1.560  -2.878  -1.196  0.00  0.00    +0.026 A 
ENDROOT
BRANCH   1  20
ATOM     16  C   LIG    1       -0.017   1.377   0.010  0.00  0.00    +0.001 A 
ATOM     17  C   LIG    1        1.167   2.095   0.002  0.00  0.00    +0.001 A 
ATOM     18  C   LIG    1        2.384   1.440  -0.013  0.00  0.00    +0.015 A 
ATOM     19  C   LIG    1        2.425   0.047  -0.021  0.00  0.00    +0.067 A 
ATOM     20  C   LIG    1        1.220  -0.685  -0.013  0.00  0.00    -0.003 A 
ATOM     21  C   LIG    1        0.002  -0.004   0.002  0.00  0.00    +0.009 A 
BRANCH  19  22
ATOM     22  C   LIG    1        3.722  -0.657  -0.038  0.00  0.00    +0.337 C 
ATOM     23  O   LIG    1        4.765  -0.019  -0.046  0.00  0.00    -0.245 OA
BRANCH  22  24
ATOM     24  O   LIG    1        3.753  -1.880  -0.045  0.00  0.00    -0.477 OA
ATOM     25  H   LIG    1        2.954  -2.369  -0.040  0.00  0.00    +0.295 HD
ENDBRANCH  22  24
ENDBRANCH  19  22
ENDBRANCH   1  20
BRANCH   5  26
ATOM     26  O   LIG    1        0.091  -5.140   4.559  0.00  0.00    -0.507 OA
ATOM     27  H   LIG    1       -0.845  -5.363   4.658  0.00  0.00    +0.292 HD
ENDBRANCH   5  26
TORSDOF 4
