REMARK  Name = ZINC03871740
REMARK                            x       y       z     vdW  Elec       q    Type
REMARK                         _______ _______ _______ _____ _____    ______ ____
ROOT
ATOM      1  N   LIG    1        2.477   6.104   0.783  0.00  0.00    -0.346 N 
ATOM      2  C   LIG    1        1.571   5.119   1.030  0.00  0.00    +0.095 A 
ATOM      3  C   LIG    1        1.408   4.355  -0.089  0.00  0.00    +0.013 A 
ATOM      4  C   LIG    1        2.301   4.920  -1.116  0.00  0.00    +0.008 A 
ATOM      5  C   LIG    1        2.584   4.588  -2.439  0.00  0.00    +0.010 A 
ATOM      6  C   LIG    1        3.496   5.337  -3.150  0.00  0.00    +0.001 A 
ATOM      7  C   LIG    1        4.130   6.418  -2.555  0.00  0.00    +0.002 A 
ATOM      8  C   LIG    1        3.853   6.763  -1.250  0.00  0.00    +0.026 A 
ATOM      9  C   LIG    1        2.939   6.017  -0.513  0.00  0.00    +0.050 A 
ENDROOT
BRANCH   3  10
ATOM     10  C   LIG    1        0.518   3.191  -0.238  0.00  0.00    +0.059 C 
ATOM     11  C   LIG    1       -0.865   3.208  -0.378  0.00  0.00    +0.059 C 
ATOM     12  C   LIG    1       -1.282   1.796  -0.498  0.00  0.00    +0.252 C 
ATOM     13  N   LIG    1       -0.189   1.018  -0.422  0.00  0.00    -0.248 N 
ATOM     14  H   LIG    1       -0.196   0.049  -0.473  0.00  0.00    +0.158 HD
ATOM     15  O   LIG    1       -2.423   1.404  -0.639  0.00  0.00    -0.270 OA
ATOM     16  C   LIG    1        0.916   1.768  -0.272  0.00  0.00    +0.252 C 
ATOM     17  O   LIG    1        2.051   1.347  -0.179  0.00  0.00    -0.270 OA
BRANCH  11  18
ATOM     18  C   LIG    1       -1.737   4.394  -0.405  0.00  0.00    +0.013 A 
ATOM     19  C   LIG    1       -1.883   5.276  -1.435  0.00  0.00    +0.092 A 
ATOM     20  N   LIG    1       -2.779   6.241  -1.089  0.00  0.00    -0.360 N 
ATOM     21  C   LIG    1       -3.244   6.025   0.191  0.00  0.00    +0.047 A 
ATOM     22  C   LIG    1       -4.147   6.704   1.002  0.00  0.00    +0.026 A 
ATOM     23  C   LIG    1       -4.419   6.237   2.270  0.00  0.00    +0.002 A 
ATOM     24  C   LIG    1       -3.800   5.093   2.750  0.00  0.00    +0.001 A 
ATOM     25  C   LIG    1       -2.902   4.405   1.962  0.00  0.00    +0.010 A 
ATOM     26  H   LIG    1       -3.048   6.977  -1.660  0.00  0.00    +0.165 HD
ATOM     27  C   LIG    1       -2.618   4.865   0.678  0.00  0.00    +0.008 A 
ENDBRANCH  11  18
ENDBRANCH   3  10
BRANCH   1  28
ATOM     28  C   LIG    1        2.901   7.114   1.757  0.00  0.00    +0.120 C 
BRANCH  28  29
ATOM     29  C   LIG    1        2.065   8.382   1.573  0.00  0.00    +0.006 C 
BRANCH  29  33
ATOM     30  C   LIG    1        0.898  10.582   1.159  0.00  0.00    -0.096 C 
ATOM     31  N   LIG    1        1.865  10.739   2.277  0.00  0.00    +0.380 N 
ATOM     32  H   LIG    1        2.535  11.479   2.038  0.00  0.00    -0.082 HD
ATOM     33  C   LIG    1        2.590   9.478   2.502  0.00  0.00    -0.067 C 
ATOM     34  C   LIG    1        2.356   9.077   3.973  0.00  0.00    -0.017 C 
ATOM     35  C   LIG    1        1.963  10.419   4.644  0.00  0.00    -0.020 C 
ATOM     36  C   LIG    1        1.153  11.106   3.517  0.00  0.00    -0.079 C 
ENDBRANCH  29  33
ENDBRANCH  28  29
ENDBRANCH   1  28
TORSDOF 5
