REMARK  Name = ZINC03830283
REMARK                            x       y       z     vdW  Elec       q    Type
REMARK                         _______ _______ _______ _____ _____    ______ ____
ROOT
ATOM      1  C   LIG    1       -5.565  -0.274  -2.642  0.00  0.00    +0.092 C 
ENDROOT
BRANCH   1   2
ATOM      2  C   LIG    1       -4.072   0.049  -2.714  0.00  0.00    -0.025 C 
BRANCH   2   3
ATOM      3  N   LIG    1       -3.486  -0.604  -3.893  0.00  0.00    +0.384 N 
ATOM      4  H   LIG    1       -3.559  -1.606  -3.797  0.00  0.00    -0.081 HD
ATOM      5  C   LIG    1       -2.064  -0.221  -4.019  0.00  0.00    -0.078 C 
ATOM      6  C   LIG    1       -1.818  -0.111  -5.544  0.00  0.00    -0.020 C 
ATOM      7  C   LIG    1       -3.160   0.494  -6.035  0.00  0.00    -0.020 C 
ATOM      8  C   LIG    1       -4.200  -0.168  -5.107  0.00  0.00    -0.078 C 
ENDBRANCH   2   3
BRANCH   2   9
ATOM      9  C   LIG    1       -3.377  -0.463  -1.450  0.00  0.00    +0.146 C 
BRANCH   9  10
ATOM     10  O   LIG    1       -2.006  -0.060  -1.464  0.00  0.00    -0.381 OA
BRANCH  10  11
ATOM     11  C   LIG    1       -1.263  -0.489  -0.321  0.00  0.00    +0.162 C 
BRANCH  11  13
ATOM     12  C   LIG    1        0.214   1.524  -0.394  0.00  0.00    +0.009 C 
ATOM     13  C   LIG    1        0.183  -0.005  -0.441  0.00  0.00    +0.009 C 
ATOM     14  C   LIG    1        1.008  -0.568   0.717  0.00  0.00    +0.009 C 
ENDBRANCH  11  13
ENDBRANCH  10  11
ENDBRANCH   9  10
ENDBRANCH   2   9
ENDBRANCH   1   2
BRANCH   1  15
ATOM     15  N   LIG    1       -6.170   0.462  -1.528  0.00  0.00    -0.327 N 
BRANCH  15  16
ATOM     16  C   LIG    1       -6.325  -0.157  -0.285  0.00  0.00    +0.030 A 
ATOM     17  C   LIG    1       -5.901  -1.466  -0.102  0.00  0.00    +0.023 A 
ATOM     18  C   LIG    1       -6.056  -2.075   1.129  0.00  0.00    +0.002 A 
ATOM     19  C   LIG    1       -6.632  -1.381   2.177  0.00  0.00    +0.000 A 
ATOM     20  C   LIG    1       -7.055  -0.077   1.998  0.00  0.00    +0.002 A 
ATOM     21  C   LIG    1       -6.899   0.539   0.772  0.00  0.00    +0.023 A 
ENDBRANCH  15  16
BRANCH  15  22
ATOM     22  C   LIG    1       -6.612   1.845  -1.718  0.00  0.00    +0.140 C 
BRANCH  22  23
ATOM     23  C   LIG    1       -8.020   1.853  -2.257  0.00  0.00    -0.030 A 
ATOM     24  C   LIG    1       -8.238   1.834  -3.622  0.00  0.00    +0.005 A 
ATOM     25  C   LIG    1       -9.529   1.842  -4.116  0.00  0.00    +0.000 A 
ATOM     26  C   LIG    1      -10.602   1.868  -3.245  0.00  0.00    +0.000 A 
ATOM     27  C   LIG    1      -10.384   1.886  -1.880  0.00  0.00    +0.000 A 
ATOM     28  C   LIG    1       -9.093   1.874  -1.386  0.00  0.00    +0.005 A 
ENDBRANCH  22  23
ENDBRANCH  15  22
ENDBRANCH   1  15
TORSDOF 10
