REMARK  Name = ZINC03794794
REMARK                            x       y       z     vdW  Elec       q    Type
REMARK                         _______ _______ _______ _____ _____    ______ ____
ROOT
ATOM      1  C   LIG    1       -0.014   1.395   0.064  0.00  0.00    +0.025 A 
ATOM      2  C   LIG    1        1.163   2.105   0.057  0.00  0.00    +0.025 A 
ATOM      3  C   LIG    1        2.391   1.443  -0.012  0.00  0.00    +0.039 A 
ATOM      4  C   LIG    1        2.426   0.046  -0.075  0.00  0.00    +0.056 A 
ATOM      5  C   LIG    1        1.219  -0.683  -0.068  0.00  0.00    +0.056 A 
ATOM      6  C   LIG    1        1.246  -2.153  -0.133  0.00  0.00    +0.200 C 
ATOM      7  C   LIG    1        2.535  -2.861  -0.206  0.00  0.00    +0.078 A 
ATOM      8  C   LIG    1        2.571  -4.257  -0.269  0.00  0.00    +0.129 A 
ATOM      9  C   LIG    1        3.795  -4.917  -0.338  0.00  0.00    +0.050 A 
ATOM     10  C   LIG    1        4.974  -4.205  -0.344  0.00  0.00    +0.050 A 
ATOM     11  C   LIG    1        4.959  -2.813  -0.282  0.00  0.00    +0.129 A 
ATOM     12  C   LIG    1        3.741  -2.133  -0.213  0.00  0.00    +0.078 A 
ATOM     13  O   LIG    1        0.204  -2.782  -0.127  0.00  0.00    -0.286 OA
ATOM     14  C   LIG    1        3.715  -0.661  -0.148  0.00  0.00    +0.200 C 
ATOM     15  O   LIG    1        4.756  -0.032  -0.155  0.00  0.00    -0.286 OA
ATOM     16  C   LIG    1        0.000  -0.001   0.002  0.00  0.00    +0.039 A 
ENDROOT
BRANCH  16  17
ATOM     17  N   LIG    1       -1.193  -0.709   0.009  0.00  0.00    -0.345 N 
ATOM     18  H   LIG    1       -1.182  -1.677   0.058  0.00  0.00    +0.146 HD
BRANCH  17  19
ATOM     19  C   LIG    1       -2.470   0.007  -0.058  0.00  0.00    +0.082 C 
BRANCH  19  20
ATOM     20  C   LIG    1       -3.621  -1.001  -0.035  0.00  0.00    -0.064 C 
BRANCH  20  21
ATOM     21  N   LIG    1       -4.901  -0.283  -0.101  0.00  0.00    +0.382 N 
ATOM     22  H   LIG    1       -4.941   0.254  -0.954  0.00  0.00    -0.086 HD
ATOM     23  H   LIG    1       -4.981   0.337   0.691  0.00  0.00    -0.086 HD
BRANCH  21  24
ATOM     24  C   LIG    1       -6.006  -1.251  -0.079  0.00  0.00    -0.054 C 
BRANCH  24  25
ATOM     25  C   LIG    1       -7.340  -0.503  -0.148  0.00  0.00    +0.137 C 
BRANCH  25  26
ATOM     26  O   LIG    1       -7.447   0.164  -1.407  0.00  0.00    -0.397 OA
ATOM     27  H   LIG    1       -8.269   0.659  -1.521  0.00  0.00    +0.209 HD
ENDBRANCH  25  26
ENDBRANCH  24  25
ENDBRANCH  21  24
ENDBRANCH  20  21
ENDBRANCH  19  20
ENDBRANCH  17  19
ENDBRANCH  16  17
BRANCH  11  28
ATOM     28  O   LIG    1        6.125  -2.121  -0.288  0.00  0.00    -0.506 OA
ATOM     29  H   LIG    1        6.436  -1.880  -1.171  0.00  0.00    +0.292 HD
ENDBRANCH  11  28
BRANCH   8  30
ATOM     30  O   LIG    1        1.415  -4.967  -0.263  0.00  0.00    -0.506 OA
ATOM     31  H   LIG    1        1.051  -5.134  -1.143  0.00  0.00    +0.292 HD
ENDBRANCH   8  30
BRANCH   3  32
ATOM     32  N   LIG    1        3.573   2.170  -0.019  0.00  0.00    -0.345 N 
ATOM     33  H   LIG    1        4.426   1.709   0.026  0.00  0.00    +0.146 HD
BRANCH  32  34
ATOM     34  C   LIG    1        3.534   3.632  -0.092  0.00  0.00    +0.082 C 
BRANCH  34  35
ATOM     35  C   LIG    1        4.961   4.182  -0.084  0.00  0.00    -0.064 C 
BRANCH  35  36
ATOM     36  N   LIG    1        4.922   5.649  -0.159  0.00  0.00    +0.382 N 
ATOM     37  H   LIG    1        4.417   6.012   0.636  0.00  0.00    -0.086 HD
ATOM     38  H   LIG    1        4.458   5.930  -1.009  0.00  0.00    -0.086 HD
BRANCH  36  39
ATOM     39  C   LIG    1        6.293   6.176  -0.151  0.00  0.00    -0.054 C 
BRANCH  39  40
ATOM     40  C   LIG    1        6.251   7.704  -0.228  0.00  0.00    +0.137 C 
BRANCH  40  41
ATOM     41  O   LIG    1        5.639   8.224   0.954  0.00  0.00    -0.397 OA
ATOM     42  H   LIG    1        5.579   9.189   0.974  0.00  0.00    +0.209 HD
ENDBRANCH  40  41
ENDBRANCH  39  40
ENDBRANCH  36  39
ENDBRANCH  35  36
ENDBRANCH  34  35
ENDBRANCH  32  34
ENDBRANCH   3  32
TORSDOF 16
