REMARK  Name = ZINC03812918
REMARK                            x       y       z     vdW  Elec       q    Type
REMARK                         _______ _______ _______ _____ _____    ______ ____
ROOT
ATOM      1  C   LIG    1       -5.542  -0.722  -2.740  0.00  0.00    +0.092 C 
ENDROOT
BRANCH   1   2
ATOM      2  C   LIG    1       -4.127  -0.163  -2.577  0.00  0.00    -0.025 C 
BRANCH   2   3
ATOM      3  N   LIG    1       -4.191   1.296  -2.419  0.00  0.00    +0.384 N 
ATOM      4  H   LIG    1       -4.633   1.532  -1.543  0.00  0.00    -0.081 HD
ATOM      5  C   LIG    1       -2.827   1.879  -2.480  0.00  0.00    -0.078 C 
ATOM      6  C   LIG    1       -3.089   3.356  -2.865  0.00  0.00    -0.020 C 
ATOM      7  C   LIG    1       -4.270   3.250  -3.857  0.00  0.00    -0.020 C 
ATOM      8  C   LIG    1       -4.938   1.898  -3.544  0.00  0.00    -0.078 C 
ENDBRANCH   2   3
BRANCH   2   9
ATOM      9  C   LIG    1       -3.473  -0.782  -1.340  0.00  0.00    +0.146 C 
BRANCH   9  10
ATOM     10  O   LIG    1       -2.114  -0.351  -1.254  0.00  0.00    -0.381 OA
BRANCH  10  11
ATOM     11  C   LIG    1       -1.408  -0.875  -0.127  0.00  0.00    +0.162 C 
BRANCH  11  13
ATOM     12  C   LIG    1        0.018   1.167   0.064  0.00  0.00    +0.009 C 
ATOM     13  C   LIG    1        0.029  -0.350  -0.135  0.00  0.00    +0.009 C 
ATOM     14  C   LIG    1        0.819  -1.007   0.998  0.00  0.00    +0.009 C 
ENDBRANCH  11  13
ENDBRANCH  10  11
ENDBRANCH   9  10
ENDBRANCH   2   9
ENDBRANCH   1   2
BRANCH   1  15
ATOM     15  N   LIG    1       -5.471  -2.161  -3.006  0.00  0.00    -0.327 N 
BRANCH  15  16
ATOM     16  C   LIG    1       -5.265  -2.621  -4.308  0.00  0.00    +0.030 A 
ATOM     17  C   LIG    1       -5.231  -1.723  -5.367  0.00  0.00    +0.023 A 
ATOM     18  C   LIG    1       -5.027  -2.181  -6.653  0.00  0.00    +0.002 A 
ATOM     19  C   LIG    1       -4.857  -3.534  -6.888  0.00  0.00    +0.000 A 
ATOM     20  C   LIG    1       -4.890  -4.431  -5.836  0.00  0.00    +0.002 A 
ATOM     21  C   LIG    1       -5.088  -3.978  -4.547  0.00  0.00    +0.023 A 
ENDBRANCH  15  16
BRANCH  15  22
ATOM     22  C   LIG    1       -5.617  -3.117  -1.905  0.00  0.00    +0.140 C 
BRANCH  22  23
ATOM     23  C   LIG    1       -7.072  -3.474  -1.739  0.00  0.00    -0.030 A 
ATOM     24  C   LIG    1       -7.875  -2.728  -0.898  0.00  0.00    +0.005 A 
ATOM     25  C   LIG    1       -9.210  -3.056  -0.746  0.00  0.00    +0.000 A 
ATOM     26  C   LIG    1       -9.740  -4.130  -1.436  0.00  0.00    +0.000 A 
ATOM     27  C   LIG    1       -8.937  -4.876  -2.278  0.00  0.00    +0.000 A 
ATOM     28  C   LIG    1       -7.604  -4.545  -2.433  0.00  0.00    +0.005 A 
ENDBRANCH  22  23
ENDBRANCH  15  22
ENDBRANCH   1  15
TORSDOF 10
