REMARK  Name = ZINC03653378
REMARK                            x       y       z     vdW  Elec       q    Type
REMARK                         _______ _______ _______ _____ _____    ______ ____
ROOT
ATOM      1  C   LIG    1       -0.016   1.361   0.023  0.00  0.00    +0.106 A 
ATOM      2  C   LIG    1        1.163   2.049   0.003  0.00  0.00    +0.056 A 
ATOM      3  C   LIG    1        2.417   1.281  -0.025  0.00  0.00    +0.261 A 
ATOM      4  N   LIG    1        2.350  -0.067  -0.030  0.00  0.00    -0.274 N 
ATOM      5  C   LIG    1        1.157  -0.688  -0.009  0.00  0.00    +0.331 A 
ATOM      6  O   LIG    1        1.124  -1.903  -0.013  0.00  0.00    -0.246 OA
ATOM      7  H   LIG    1        3.166  -0.591  -0.048  0.00  0.00    +0.173 HD
ATOM      8  O   LIG    1        3.493   1.849  -0.043  0.00  0.00    -0.267 OA
ATOM      9  N   LIG    1        0.002  -0.004   0.017  0.00  0.00    -0.273 N 
ENDROOT
BRANCH   9  10
ATOM     10  C1* LIG    1       -1.266  -0.738   0.039  0.00  0.00    +0.226 C 
ATOM     11  C2* LIG    1       -1.432  -1.562  -1.258  0.00  0.00    +0.088 C 
ATOM     12  C3* LIG    1       -2.113  -2.867  -0.788  0.00  0.00    +0.150 C 
ATOM     13  C4* LIG    1       -2.276  -2.678   0.737  0.00  0.00    +0.175 C 
ATOM     14  O4* LIG    1       -1.262  -1.716   1.102  0.00  0.00    -0.348 OA
BRANCH  12  15
ATOM     15  O3* LIG    1       -3.387  -3.022  -1.416  0.00  0.00    -0.389 OA
ATOM     16  H3* LIG    1       -3.345  -3.085  -2.380  0.00  0.00    +0.210 HD
ENDBRANCH  12  15
BRANCH  13  17
ATOM     17  C5* LIG    1       -2.046  -4.003   1.466  0.00  0.00    +0.190 C 
BRANCH  17  18
ATOM     18  O5* LIG    1       -2.315  -3.833   2.859  0.00  0.00    -0.392 OA
ATOM     19  H5* LIG    1       -2.189  -4.635   3.384  0.00  0.00    +0.210 HD
ENDBRANCH  17  18
ENDBRANCH  13  17
ENDBRANCH   9  10
BRANCH   2  20
ATOM     20  C   LIG    1        1.179   3.526   0.009  0.00  0.00    +0.022 C 
ATOM     21  C   LIG    1        2.333   4.176   0.102  0.00  0.00    +0.052 C 
ATOM     22 BR   LIG    1        2.346   6.061   0.254  0.00  0.00    -0.059 Br
ENDBRANCH   2  20
TORSDOF 5
