REMARK  Name = ZINC03872287
REMARK                            x       y       z     vdW  Elec       q    Type
REMARK                         _______ _______ _______ _____ _____    ______ ____
ROOT
ATOM      1  N   LIG    1        0.845   0.510   2.769  0.00  0.00    -0.288 N 
ATOM      2  C   LIG    1        0.555  -0.738   2.304  0.00  0.00    +0.203 A 
ATOM      3  N   LIG    1        1.101  -1.637   3.071  0.00  0.00    -0.231 NA
ATOM      4  C   LIG    1        1.767  -1.024   4.080  0.00  0.00    +0.147 A 
ATOM      5  C   LIG    1        2.520  -1.468   5.180  0.00  0.00    +0.147 A 
ATOM      6  N   LIG    1        3.047  -0.560   5.994  0.00  0.00    -0.219 NA
ATOM      7  C   LIG    1        2.873   0.732   5.783  0.00  0.00    +0.225 A 
ATOM      8  N   LIG    1        2.176   1.193   4.766  0.00  0.00    -0.216 NA
ATOM      9  C   LIG    1        1.610   0.360   3.898  0.00  0.00    +0.167 A 
ENDROOT
BRANCH   1  14
ATOM     10  C   LIG    1       -0.864   1.587  -1.181  0.00  0.00    +0.040 C 
ATOM     11  C   LIG    1       -0.078   1.072   0.026  0.00  0.00    +0.146 C 
ATOM     12  C   LIG    1        1.369   1.598  -0.027  0.00  0.00    +0.147 C 
ATOM     13  C   LIG    1        1.538   2.381   1.297  0.00  0.00    +0.088 C 
ATOM     14  C   LIG    1        0.413   1.778   2.177  0.00  0.00    +0.225 C 
ATOM     15  O   LIG    1       -0.667   1.564   1.242  0.00  0.00    -0.351 OA
BRANCH  12  16
ATOM     16  O   LIG    1        1.545   2.464  -1.150  0.00  0.00    -0.389 OA
ATOM     17  H   LIG    1        2.439   2.824  -1.232  0.00  0.00    +0.210 HD
ENDBRANCH  12  16
ENDBRANCH   1  14
BRANCH   5  18
ATOM     18  N   LIG    1        2.709  -2.820   5.410  0.00  0.00    -0.341 N 
ATOM     19  H   LIG    1        3.231  -3.114   6.172  0.00  0.00    +0.144 HD
ATOM     20  H   LIG    1        1.821  -3.263   5.538  0.00  0.00    +0.144 HD
ENDBRANCH   5  18
TORSDOF 3
