REMARK  Name = ZINC03870800
REMARK                            x       y       z     vdW  Elec       q    Type
REMARK                         _______ _______ _______ _____ _____    ______ ____
ROOT
ATOM      1  C   LIG    1       -1.715   5.463   2.429  0.00  0.00    +0.148 C 
ATOM      2  C   LIG    1       -2.494   5.915   3.669  0.00  0.00    +0.165 C 
ATOM      3  C   LIG    1       -1.929   5.239   4.889  0.00  0.00    +0.059 C 
ATOM      4  C   LIG    1       -1.161   4.162   4.810  0.00  0.00    +0.203 C 
ATOM      5  O   LIG    1       -0.816   3.586   3.633  0.00  0.00    -0.478 OA
ATOM      6  C   LIG    1       -1.581   3.935   2.476  0.00  0.00    +0.228 C 
ENDROOT
BRANCH   1   9
ATOM      7  C   LIG    1       -3.003   7.494  -0.550  0.00  0.00    +0.109 C 
ATOM      8  C   LIG    1       -2.257   7.087   0.695  0.00  0.00    +0.210 C 
ATOM      9  N   LIG    1       -2.440   5.859   1.219  0.00  0.00    -0.306 N 
ATOM     10  H   LIG    1       -3.051   5.237   0.794  0.00  0.00    +0.149 HD
ATOM     11  O   LIG    1       -1.493   7.865   1.226  0.00  0.00    -0.276 OA
ENDBRANCH   1   9
BRANCH   2  12
ATOM     12  O   LIG    1       -3.870   5.559   3.522  0.00  0.00    -0.386 OA
ATOM     13  H   LIG    1       -4.425   5.815   4.271  0.00  0.00    +0.210 HD
ENDBRANCH   2  12
BRANCH   4  14
ATOM     14  C   LIG    1       -0.660   3.564   6.059  0.00  0.00    +0.372 C 
ATOM     15  O   LIG    1       -0.953   4.058   7.130  0.00  0.00    -0.242 OA
BRANCH  14  16
ATOM     16  O   LIG    1        0.124   2.468   6.015  0.00  0.00    -0.475 OA
ATOM     17  H   LIG    1        0.349   2.087   5.189  0.00  0.00    +0.296 HD
ENDBRANCH  14  16
ENDBRANCH   4  14
BRANCH   6  18
ATOM     18  C   LIG    1       -0.865   3.442   1.217  0.00  0.00    +0.187 C 
BRANCH  18  19
ATOM     19  O   LIG    1       -1.619   3.816   0.062  0.00  0.00    -0.385 OA
ATOM     20  H   LIG    1       -2.514   3.452   0.042  0.00  0.00    +0.210 HD
ENDBRANCH  18  19
BRANCH  18  21
ATOM     21  C   LIG    1       -0.733   1.918   1.269  0.00  0.00    +0.172 C 
BRANCH  21  22
ATOM     22  O   LIG    1        0.021   1.544   2.423  0.00  0.00    -0.387 OA
ATOM     23  H   LIG    1        0.916   1.908   2.443  0.00  0.00    +0.210 HD
ENDBRANCH  21  22
BRANCH  21  24
ATOM     24  C   LIG    1       -0.017   1.425   0.010  0.00  0.00    +0.189 C 
BRANCH  24  25
ATOM     25  O   LIG    1        0.002  -0.004   0.002  0.00  0.00    -0.392 OA
ATOM     26  H   LIG    1        0.442  -0.387  -0.769  0.00  0.00    +0.210 HD
ENDBRANCH  24  25
ENDBRANCH  21  24
ENDBRANCH  18  21
ENDBRANCH   6  18
TORSDOF 10
