REMARK  Name = ZINC03794314
REMARK                            x       y       z     vdW  Elec       q    Type
REMARK                         _______ _______ _______ _____ _____    ______ ____
ROOT
ATOM      1  C   LIG    1        6.121  -2.724  -0.590  0.00  0.00    +0.039 C 
ATOM      2  C   LIG    1        5.640  -3.218   0.807  0.00  0.00    +0.123 C 
ATOM      3  C   LIG    1        5.594  -4.772   0.701  0.00  0.00    +0.034 C 
ATOM      4  C   LIG    1        7.094  -5.161   0.698  0.00  0.00    +0.034 C 
ATOM      5  C   LIG    1        7.808  -3.780   0.803  0.00  0.00    +0.122 C 
ATOM      6  O   LIG    1        6.843  -3.006   1.615  0.00  0.00    -0.373 OA
ATOM      7  C   LIG    1        7.626  -3.095  -0.586  0.00  0.00    +0.028 C 
ENDROOT
BRANCH   1   8
ATOM      8  C   LIG    1        5.937  -1.211  -0.724  0.00  0.00    +0.108 C 
BRANCH   8   9
ATOM      9  N   LIG    1        4.503  -0.891  -0.721  0.00  0.00    -0.239 NA
ATOM     10  H   LIG    1        4.019  -1.394  -1.449  0.00  0.00    +0.144 HD
BRANCH   9  14
ATOM     11  N   LIG    1        1.994   0.118  -0.756  0.00  0.00    -0.268 N 
ATOM     12  H   LIG    1        2.135  -0.825  -0.577  0.00  0.00    +0.156 HD
ATOM     13  C   LIG    1        3.049   0.951  -0.856  0.00  0.00    +0.318 C 
ATOM     14  N   LIG    1        4.302   0.455  -0.838  0.00  0.00    -0.234 N 
ATOM     15  H   LIG    1        5.061   1.054  -0.910  0.00  0.00    +0.171 HD
ATOM     16  O   LIG    1        2.870   2.148  -0.960  0.00  0.00    -0.251 OA
BRANCH  11  20
ATOM     17  C   LIG    1       -1.875   1.592  -1.222  0.00  0.00    +0.000 A 
ATOM     18  C   LIG    1       -1.557   0.330  -1.689  0.00  0.00    +0.002 A 
ATOM     19  C   LIG    1       -0.277  -0.164  -1.531  0.00  0.00    +0.023 A 
ATOM     20  C   LIG    1        0.694   0.613  -0.913  0.00  0.00    +0.035 A 
ATOM     21  C   LIG    1        0.373   1.882  -0.450  0.00  0.00    +0.023 A 
ATOM     22  C   LIG    1       -0.911   2.368  -0.606  0.00  0.00    +0.002 A 
ENDBRANCH  11  20
ENDBRANCH   9  14
ENDBRANCH   8   9
ENDBRANCH   1   8
BRANCH   7  23
ATOM     23  C   LIG    1        8.494  -1.842  -0.715  0.00  0.00    +0.033 C 
BRANCH  23  24
ATOM     24  C   LIG    1        9.942  -2.244  -0.831  0.00  0.00    -0.031 C 
ATOM     25  C   LIG    1       10.662  -1.815  -1.838  0.00  0.00    -0.031 C 
BRANCH  25  26
ATOM     26  C   LIG    1       10.107  -0.769  -2.770  0.00  0.00    +0.027 C 
BRANCH  26  27
ATOM     27  C   LIG    1       11.094   0.395  -2.875  0.00  0.00    +0.015 C 
BRANCH  27  28
ATOM     28  C   LIG    1       10.530   1.458  -3.821  0.00  0.00    +0.121 C 
BRANCH  28  29
ATOM     29  C   LIG    1       11.503   2.604  -3.925  0.00  0.00    +0.305 C 
ATOM     30  O   LIG    1       12.540   2.575  -3.306  0.00  0.00    -0.251 OA
BRANCH  29  31
ATOM     31  O   LIG    1       11.216   3.658  -4.706  0.00  0.00    -0.481 OA
ATOM     32  H   LIG    1       10.412   3.681  -5.186  0.00  0.00    +0.295 HD
ENDBRANCH  29  31
ENDBRANCH  28  29
ENDBRANCH  27  28
ENDBRANCH  26  27
ENDBRANCH  25  26
ENDBRANCH  23  24
ENDBRANCH   7  23
TORSDOF 11
