REMARK  Name = ZINC03675784
REMARK                            x       y       z     vdW  Elec       q    Type
REMARK                         _______ _______ _______ _____ _____    ______ ____
ROOT
ATOM      1  C   LIG    1        2.913   3.589  -0.006  0.00  0.00    +0.058 A 
ATOM      2  C   LIG    1        1.520   3.517   0.007  0.00  0.00    +0.047 A 
ATOM      3  C   LIG    1        1.184   2.080   0.002  0.00  0.00    +0.010 A 
ATOM      4  C   LIG    1       -0.017   1.374   0.010  0.00  0.00    +0.011 A 
ATOM      5  C   LIG    1        0.002  -0.004   0.002  0.00  0.00    +0.001 A 
ATOM      6  C   LIG    1        1.210  -0.687  -0.014  0.00  0.00    +0.002 A 
ATOM      7  C   LIG    1        2.404   0.000  -0.022  0.00  0.00    +0.026 A 
ATOM      8  C   LIG    1        2.407   1.391  -0.014  0.00  0.00    +0.048 A 
ATOM      9  N   LIG    1        3.424   2.326  -0.019  0.00  0.00    -0.354 N 
ATOM     10  H   LIG    1        4.370   2.113  -0.030  0.00  0.00    +0.166 HD
ENDROOT
BRANCH   1  14
ATOM     11  C   LIG    1        5.192   7.170  -0.011  0.00  0.00    +0.120 A 
ATOM     12  C   LIG    1        5.530   6.132  -0.872  0.00  0.00    +0.046 A 
ATOM     13  C   LIG    1        4.794   4.969  -0.874  0.00  0.00    +0.013 A 
ATOM     14  C   LIG    1        3.704   4.832  -0.008  0.00  0.00    -0.001 A 
ATOM     15  C   LIG    1        3.365   5.881   0.853  0.00  0.00    +0.013 A 
ATOM     16  C   LIG    1        4.110   7.039   0.851  0.00  0.00    +0.046 A 
BRANCH  11  18
ATOM     17  C   LIG    1        5.518   9.342   0.896  0.00  0.00    +0.277 C 
ATOM     18  O   LIG    1        5.920   8.316  -0.014  0.00  0.00    -0.495 OA
ENDBRANCH  11  18
ENDBRANCH   1  14
BRANCH   2  19
ATOM     19  C   LIG    1        0.615   4.599   0.022  0.00  0.00    +0.261 C 
ATOM     20  O   LIG    1        1.032   5.740   0.024  0.00  0.00    -0.296 OA
ENDBRANCH   2  19
TORSDOF 3
