REMARK  Name = ZINC03871742
REMARK                            x       y       z     vdW  Elec       q    Type
REMARK                         _______ _______ _______ _____ _____    ______ ____
ROOT
ATOM      1  C   LIG    1        1.674   3.247   0.004  0.00  0.00    +0.059 C 
ATOM      2  C   LIG    1        1.638   4.125   1.080  0.00  0.00    +0.059 C 
ATOM      3  C   LIG    1        2.155   5.414   0.575  0.00  0.00    +0.252 C 
ATOM      4  N   LIG    1        2.461   5.274  -0.726  0.00  0.00    -0.248 N 
ATOM      5  H   LIG    1        2.817   5.978  -1.289  0.00  0.00    +0.158 HD
ATOM      6  O   LIG    1        2.279   6.432   1.226  0.00  0.00    -0.270 OA
ATOM      7  C   LIG    1        2.205   4.021  -1.138  0.00  0.00    +0.252 C 
ATOM      8  O   LIG    1        2.380   3.595  -2.263  0.00  0.00    -0.270 OA
ENDROOT
BRANCH   2   9
ATOM      9  C   LIG    1        1.179   3.831   2.448  0.00  0.00    +0.016 A 
ATOM     10  C   LIG    1       -0.179   3.979   2.967  0.00  0.00    +0.008 A 
ATOM     11  C   LIG    1       -1.370   4.397   2.374  0.00  0.00    +0.010 A 
ATOM     12  C   LIG    1       -2.497   4.406   3.179  0.00  0.00    +0.001 A 
ATOM     13  C   LIG    1       -2.449   4.015   4.506  0.00  0.00    +0.002 A 
ATOM     14  C   LIG    1       -1.278   3.592   5.111  0.00  0.00    +0.026 A 
ATOM     15  C   LIG    1       -0.129   3.574   4.322  0.00  0.00    +0.050 A 
ATOM     16  N   LIG    1        1.162   3.218   4.603  0.00  0.00    -0.343 N 
ATOM     17  C   LIG    1        1.675   2.740   5.896  0.00  0.00    +0.122 C 
ATOM     18  C   LIG    1        3.199   2.875   5.909  0.00  0.00    +0.023 C 
ATOM     19  C   LIG    1        3.782   2.217   4.654  0.00  0.00    -0.021 C 
ATOM     20  C   LIG    1        3.419   3.066   3.430  0.00  0.00    +0.055 C 
ATOM     21  C   LIG    1        1.940   3.370   3.484  0.00  0.00    +0.028 A 
BRANCH  19  22
ATOM     22  C   LIG    1        5.304   2.128   4.783  0.00  0.00    -0.083 C 
BRANCH  22  23
ATOM     23  N   LIG    1        5.639   1.230   5.902  0.00  0.00    +0.378 N 
ATOM     24  H   LIG    1        5.262   1.621   6.773  0.00  0.00    -0.090 HD
ATOM     25  H   LIG    1        6.650   1.142   5.988  0.00  0.00    -0.090 HD
ATOM     26  H   LIG    1        5.231   0.310   5.747  0.00  0.00    -0.090 HD
ENDBRANCH  22  23
ENDBRANCH  19  22
ENDBRANCH   2   9
BRANCH   1  30
ATOM     27  C   LIG    1       -1.189  -0.857   0.008  0.00  0.00    +0.149 C 
ATOM     28  N   LIG    1        0.002  -0.004   0.002  0.00  0.00    -0.349 N 
ATOM     29  C   LIG    1       -0.016   1.357   0.009  0.00  0.00    +0.095 A 
ATOM     30  C   LIG    1        1.261   1.834  -0.000  0.00  0.00    +0.013 A 
ATOM     31  C   LIG    1        2.148   0.657  -0.015  0.00  0.00    +0.008 A 
ATOM     32  C   LIG    1        3.530   0.488  -0.029  0.00  0.00    +0.010 A 
ATOM     33  C   LIG    1        4.063  -0.782  -0.041  0.00  0.00    +0.001 A 
ATOM     34  C   LIG    1        3.229  -1.891  -0.039  0.00  0.00    +0.002 A 
ATOM     35  C   LIG    1        1.859  -1.739  -0.024  0.00  0.00    +0.026 A 
ATOM     36  C   LIG    1        1.302  -0.465  -0.013  0.00  0.00    +0.049 A 
ENDBRANCH   1  30
TORSDOF 4
