REMARK  Name = ZINC03639353
REMARK                            x       y       z     vdW  Elec       q    Type
REMARK                         _______ _______ _______ _____ _____    ______ ____
ROOT
ATOM      1  C   LIG    1       -0.019   1.526   0.010  0.00  0.00    -0.013 C 
ATOM      2  C   LIG    1        0.002  -0.004   0.002  0.00  0.00    -0.069 C 
ENDROOT
BRANCH   2   3
ATOM      3  N   LIG    1        0.713  -0.491   1.192  0.00  0.00    +0.388 N 
ATOM      4  H   LIG    1        1.632  -0.076   1.228  0.00  0.00    -0.084 HD
ATOM      5  H   LIG    1        0.798  -1.495   1.145  0.00  0.00    -0.084 HD
BRANCH   3   6
ATOM      6  C   LIG    1       -0.040  -0.119   2.398  0.00  0.00    +0.009 C 
BRANCH   6   7
ATOM      7  C   LIG    1        0.672  -0.607   3.590  0.00  0.00    -0.125 C 
ATOM      8  C   LIG    1        1.240  -0.995   4.541  0.00  0.00    +0.002 C 
ENDBRANCH   6   7
ENDBRANCH   3   6
ENDBRANCH   2   3
BRANCH   2   9
ATOM      9  C   LIG    1        0.718  -0.497  -1.257  0.00  0.00    +0.019 C 
BRANCH   9  10
ATOM     10  C   LIG    1        0.632  -2.000  -1.327  0.00  0.00    -0.049 A 
ATOM     11  C   LIG    1        1.612  -2.778  -0.739  0.00  0.00    +0.003 A 
ATOM     12  C   LIG    1        1.532  -4.156  -0.804  0.00  0.00    +0.000 A 
ATOM     13  C   LIG    1        0.473  -4.757  -1.457  0.00  0.00    +0.000 A 
ATOM     14  C   LIG    1       -0.508  -3.980  -2.045  0.00  0.00    +0.000 A 
ATOM     15  C   LIG    1       -0.431  -2.602  -1.976  0.00  0.00    +0.003 A 
ENDBRANCH   9  10
ENDBRANCH   2   9
TORSDOF 5
