REMARK  Name = ZINC03784334
REMARK                            x       y       z     vdW  Elec       q    Type
REMARK                         _______ _______ _______ _____ _____    ______ ____
ROOT
ATOM      1  C   LIG    1       -2.204  -4.733  -2.176  0.00  0.00    -0.030 A 
ATOM      2  C   LIG    1       -1.104  -4.762  -1.338  0.00  0.00    +0.006 A 
ATOM      3  C   LIG    1       -0.702  -5.951  -0.764  0.00  0.00    +0.009 A 
ATOM      4  C   LIG    1       -1.407  -7.124  -1.030  0.00  0.00    -0.017 A 
ATOM      5  C   LIG    1       -2.515  -7.088  -1.876  0.00  0.00    +0.009 A 
ATOM      6  C   LIG    1       -2.911  -5.892  -2.440  0.00  0.00    +0.006 A 
ENDROOT
BRANCH   4   7
ATOM      7  C   LIG    1       -0.980  -8.404  -0.417  0.00  0.00    -0.007 A 
ATOM      8  C   LIG    1        0.351  -8.806  -0.490  0.00  0.00    +0.009 A 
ATOM      9  C   LIG    1        0.744  -9.998   0.082  0.00  0.00    +0.001 A 
ATOM     10  C   LIG    1       -0.178 -10.802   0.731  0.00  0.00    +0.001 A 
ATOM     11  C   LIG    1       -1.502 -10.420   0.813  0.00  0.00    +0.012 A 
ATOM     12  C   LIG    1       -1.915  -9.216   0.246  0.00  0.00    +0.028 A 
BRANCH  12  13
ATOM     13  C   LIG    1       -3.331  -8.800   0.336  0.00  0.00    +0.180 A 
ATOM     14  N   LIG    1       -3.870  -7.687  -0.167  0.00  0.00    -0.239 N 
ATOM     15  H   LIG    1       -3.395  -6.986  -0.669  0.00  0.00    +0.192 HD
ATOM     16  N   LIG    1       -5.125  -7.697   0.127  0.00  0.00    -0.046 NA
ATOM     17  N   LIG    1       -5.397  -8.766   0.790  0.00  0.00    -0.023 NA
ATOM     18  N   LIG    1       -4.324  -9.465   0.930  0.00  0.00    -0.108 NA
ENDBRANCH  12  13
ENDBRANCH   4   7
BRANCH   1  19
ATOM     19  C   LIG    1       -2.638  -3.431  -2.800  0.00  0.00    +0.148 C 
BRANCH  19  29
ATOM     20  C   LIG    1       -1.412  -0.526   0.013  0.00  0.00    +0.043 A 
ATOM     21  C   LIG    1       -1.820  -1.407  -0.969  0.00  0.00    +0.047 A 
ATOM     22  C   LIG    1       -3.130  -1.876  -0.947  0.00  0.00    +0.043 A 
ATOM     23  C   LIG    1       -3.970  -1.452   0.079  0.00  0.00    -0.004 A 
ATOM     24  C   LIG    1       -5.380  -1.973   0.164  0.00  0.00    +0.048 C 
ATOM     25  C   LIG    1       -5.919  -2.228  -1.244  0.00  0.00    +0.101 C 
ATOM     26  C   LIG    1       -4.909  -3.004  -2.047  0.00  0.00    +0.220 C 
ATOM     27  O   LIG    1       -5.286  -3.858  -2.822  0.00  0.00    -0.275 OA
ATOM     28  C   LIG    1       -3.490  -0.567   1.020  0.00  0.00    +0.046 A 
ATOM     29  N   LIG    1       -3.593  -2.760  -1.915  0.00  0.00    -0.267 N 
ATOM     30  N   LIG    1       -2.241  -0.139   0.963  0.00  0.00    -0.256 NA
BRANCH  20  32
ATOM     31  C   LIG    1       -0.019   1.526   0.010  0.00  0.00    +0.010 C 
ATOM     32  C   LIG    1        0.002  -0.004   0.002  0.00  0.00    +0.052 C 
ENDBRANCH  20  32
BRANCH  28  33
ATOM     33  C   LIG    1       -4.394  -0.089   2.126  0.00  0.00    +0.052 C 
ATOM     34  C   LIG    1       -4.277  -1.033   3.325  0.00  0.00    +0.010 C 
ENDBRANCH  28  33
ENDBRANCH  19  29
ENDBRANCH   1  19
TORSDOF 6
