REMARK  Name = ZINC03810797
REMARK                            x       y       z     vdW  Elec       q    Type
REMARK                         _______ _______ _______ _____ _____    ______ ____
ROOT
ATOM      1  C   LIG    1       -2.088  -0.078   1.222  0.00  0.00    -0.096 C 
ATOM      2  N   LIG    1       -1.393  -0.506  -0.010  0.00  0.00    +0.378 N 
ATOM      3  H   LIG    1       -1.981  -0.281  -0.821  0.00  0.00    -0.082 HD
ENDROOT
BRANCH   2   4
ATOM      4  C   LIG    1       -0.105   0.209  -0.138  0.00  0.00    -0.071 C 
BRANCH   4   5
ATOM      5  C   LIG    1       -0.384   1.641  -0.600  0.00  0.00    +0.003 C 
ATOM      6  C   LIG    1       -0.985   1.609  -2.003  0.00  0.00    +0.006 C 
ATOM      7  C   LIG    1       -1.054   3.047  -2.532  0.00  0.00    +0.005 C 
ATOM      8  C   LIG    1        0.369   3.529  -2.804  0.00  0.00    +0.039 C 
ATOM      9  C   LIG    1        1.247   3.293  -1.603  0.00  0.00    -0.002 A 
ATOM     10  C   LIG    1        2.450   3.992  -1.531  0.00  0.00    +0.124 A 
ATOM     11  C   LIG    1        3.301   3.815  -0.453  0.00  0.00    +0.046 A 
ATOM     12  C   LIG    1        2.954   2.938   0.556  0.00  0.00    +0.004 A 
ATOM     13  C   LIG    1        1.761   2.248   0.485  0.00  0.00    +0.004 A 
ATOM     14  C   LIG    1        0.903   2.424  -0.593  0.00  0.00    -0.039 A 
BRANCH  10  15
ATOM     15  O   LIG    1        2.791   4.853  -2.526  0.00  0.00    -0.495 OA
ATOM     16  C   LIG    1        4.038   5.538  -2.392  0.00  0.00    +0.277 C 
ENDBRANCH  10  15
ENDBRANCH   4   5
ENDBRANCH   2   4
BRANCH   2  17
ATOM     17  C   LIG    1       -1.158  -1.965   0.023  0.00  0.00    -0.075 C 
BRANCH  17  18
ATOM     18  C   LIG    1       -2.506  -2.684  -0.071  0.00  0.00    +0.017 C 
BRANCH  18  19
ATOM     19  C   LIG    1       -2.283  -4.174  -0.060  0.00  0.00    -0.046 A 
ATOM     20  C   LIG    1       -2.263  -4.856   1.147  0.00  0.00    +0.004 A 
ATOM     21  C   LIG    1       -2.061  -6.209   1.175  0.00  0.00    +0.012 A 
ATOM     22  C   LIG    1       -1.875  -6.904  -0.019  0.00  0.00    +0.020 A 
ATOM     23  C   LIG    1       -1.640  -8.312  -0.360  0.00  0.00    +0.049 A 
ATOM     24  C   LIG    1       -1.542  -8.361  -1.696  0.00  0.00    +0.196 A 
ATOM     25  O   LIG    1       -1.691  -7.131  -2.217  0.00  0.00    -0.463 OA
ATOM     26  C   LIG    1       -1.895  -6.219  -1.245  0.00  0.00    +0.135 A 
ATOM     27  C   LIG    1       -2.106  -4.846  -1.251  0.00  0.00    +0.050 A 
ENDBRANCH  18  19
ENDBRANCH  17  18
ENDBRANCH   2  17
TORSDOF 6
