REMARK  Name = ZINC03815800
REMARK                            x       y       z     vdW  Elec       q    Type
REMARK                         _______ _______ _______ _____ _____    ______ ____
ROOT
ATOM      1  C   LIG    1        5.146   5.240  -2.233  0.00  0.00    +0.019 A 
ATOM      2  C   LIG    1        3.846   4.833  -2.574  0.00  0.00    +0.013 A 
ATOM      3  C   LIG    1        3.242   3.813  -1.900  0.00  0.00    +0.029 A 
ATOM      4  C   LIG    1        3.914   3.161  -0.871  0.00  0.00    +0.073 A 
ATOM      5  C   LIG    1        5.215   3.558  -0.511  0.00  0.00    +0.090 A 
ATOM      6  N   LIG    1        5.605   2.757   0.515  0.00  0.00    -0.235 NA
ATOM      7  C   LIG    1        4.651   1.921   0.803  0.00  0.00    +0.205 A 
ATOM      8  N   LIG    1        3.583   2.128  -0.019  0.00  0.00    -0.299 N 
ATOM      9  C   LIG    1        5.830   4.601  -1.200  0.00  0.00    +0.041 A 
ENDROOT
BRANCH   8  10
ATOM     10  C   LIG    1        2.375   1.418  -0.005  0.00  0.00    +0.048 A 
ATOM     11  C   LIG    1        1.167   2.102   0.020  0.00  0.00    +0.026 A 
ATOM     12  C   LIG    1       -0.023   1.400   0.033  0.00  0.00    +0.002 A 
ATOM     13  C   LIG    1       -0.011   0.017   0.022  0.00  0.00    +0.000 A 
ATOM     14  C   LIG    1        1.191  -0.667  -0.003  0.00  0.00    +0.002 A 
ATOM     15  C   LIG    1        2.383   0.030  -0.016  0.00  0.00    +0.026 A 
ENDBRANCH   8  10
BRANCH   1  17
ATOM     16  C   LIG    1        7.129   6.861  -2.523  0.00  0.00    +0.091 C 
ATOM     17  C   LIG    1        5.786   6.341  -2.966  0.00  0.00    +0.160 C 
ATOM     18  O   LIG    1        5.233   6.830  -3.929  0.00  0.00    -0.292 OA
ENDBRANCH   1  17
TORSDOF 2
