REMARK  Name = ZINC03816287
REMARK                            x       y       z     vdW  Elec       q    Type
REMARK                         _______ _______ _______ _____ _____    ______ ____
ROOT
ATOM      1  C   LIG    1        2.615  -3.096  -4.571  0.00  0.00    +0.015 A 
ATOM      2  C   LIG    1        2.412  -4.467  -4.363  0.00  0.00    +0.016 A 
ATOM      3  C   LIG    1        2.902  -5.397  -5.223  0.00  0.00    +0.013 A 
ATOM      4  C   LIG    1        3.630  -4.986  -6.352  0.00  0.00    +0.027 A 
ATOM      5  C   LIG    1        3.847  -3.551  -6.578  0.00  0.00    +0.094 A 
ATOM      6  N   LIG    1        4.551  -3.433  -7.692  0.00  0.00    -0.173 NA
ATOM      7  N   LIG    1        4.812  -4.704  -8.215  0.00  0.00    -0.276 N 
ATOM      8  H   LIG    1        5.311  -4.881  -9.028  0.00  0.00    +0.189 HD
ATOM      9  C   LIG    1        4.260  -5.652  -7.413  0.00  0.00    +0.066 A 
ATOM     10  C   LIG    1        3.309  -2.634  -5.651  0.00  0.00    +0.045 A 
ENDROOT
BRANCH   9  11
ATOM     11  C   LIG    1        4.311  -7.055  -7.613  0.00  0.00    +0.030 C 
ATOM     12  C   LIG    1        4.956  -7.561  -8.685  0.00  0.00    +0.030 C 
BRANCH  12  13
ATOM     13  C   LIG    1        5.010  -9.016  -8.892  0.00  0.00    +0.064 A 
ATOM     14  C   LIG    1        5.684  -9.536 -10.002  0.00  0.00    +0.028 A 
ATOM     15  C   LIG    1        5.725 -10.906 -10.181  0.00  0.00    +0.004 A 
ATOM     16  C   LIG    1        5.091 -11.717  -9.248  0.00  0.00    +0.020 A 
ATOM     17  C   LIG    1        4.442 -11.138  -8.173  0.00  0.00    +0.111 A 
ATOM     18  N   LIG    1        4.420  -9.830  -8.020  0.00  0.00    -0.256 NA
ENDBRANCH  12  13
ENDBRANCH   9  11
BRANCH   1  19
ATOM     19  S   LIG    1        1.952  -1.943  -3.416  0.00  0.00    -0.089 S 
BRANCH  19  25
ATOM     20  C   LIG    1        3.166  -0.646  -1.316  0.00  0.00    +0.050 A 
ATOM     21  C   LIG    1        4.233  -0.409  -0.446  0.00  0.00    +0.014 A 
ATOM     22  C   LIG    1        5.399  -1.131  -0.576  0.00  0.00    +0.001 A 
ATOM     23  C   LIG    1        5.522  -2.093  -1.567  0.00  0.00    +0.001 A 
ATOM     24  C   LIG    1        4.478  -2.339  -2.434  0.00  0.00    +0.016 A 
ATOM     25  C   LIG    1        3.291  -1.626  -2.315  0.00  0.00    +0.025 A 
BRANCH  20  29
ATOM     26  C   LIG    1        0.557   1.825  -0.090  0.00  0.00    +0.128 C 
ATOM     27  N   LIG    1        1.800   1.061  -0.222  0.00  0.00    -0.314 N 
ATOM     28  H   LIG    1        2.541   1.231   0.381  0.00  0.00    +0.149 HD
ATOM     29  C   LIG    1        1.915   0.122  -1.183  0.00  0.00    +0.245 C 
ATOM     30  O   LIG    1        0.987  -0.091  -1.939  0.00  0.00    -0.270 OA
ENDBRANCH  20  29
ENDBRANCH  19  25
ENDBRANCH   1  19
TORSDOF 5
