REMARK  Name = ZINC03870310
REMARK                            x       y       z     vdW  Elec       q    Type
REMARK                         _______ _______ _______ _____ _____    ______ ____
ROOT
ATOM      1  C   LIG    1        1.624  -2.393  -2.364  0.00  0.00    -0.064 C 
ATOM      2  C   LIG    1        1.865  -3.905  -2.274  0.00  0.00    -0.010 C 
ATOM      3  C   LIG    1        2.507  -4.369  -3.579  0.00  0.00    +0.034 C 
ATOM      4  C   LIG    1        3.703  -3.517  -3.914  0.00  0.00    -0.044 A 
ATOM      5  C   LIG    1        4.615  -4.016  -4.836  0.00  0.00    +0.007 A 
ATOM      6  C   LIG    1        5.728  -3.285  -5.191  0.00  0.00    +0.045 A 
ATOM      7  C   LIG    1        5.939  -2.036  -4.623  0.00  0.00    +0.117 A 
ATOM      8  C   LIG    1        5.032  -1.539  -3.703  0.00  0.00    +0.049 A 
ATOM      9  C   LIG    1        3.914  -2.280  -3.345  0.00  0.00    -0.042 A 
ATOM     10  C   LIG    1        2.976  -1.685  -2.327  0.00  0.00    +0.020 C 
ENDROOT
BRANCH   1  11
ATOM     11  N   LIG    1        0.804  -1.954  -1.227  0.00  0.00    +0.382 N 
ATOM     12  H   LIG    1        1.258  -2.215  -0.364  0.00  0.00    -0.081 HD
BRANCH  11  13
ATOM     13  C   LIG    1        0.643  -0.495  -1.274  0.00  0.00    -0.079 C 
BRANCH  13  15
ATOM     14  C   LIG    1       -0.156   1.504  -0.006  0.00  0.00    +0.002 C 
ATOM     15  C   LIG    1       -0.113  -0.025  -0.029  0.00  0.00    -0.022 C 
ENDBRANCH  13  15
ENDBRANCH  11  13
BRANCH  11  16
ATOM     16  C   LIG    1       -0.516  -2.595  -1.298  0.00  0.00    -0.079 C 
BRANCH  16  17
ATOM     17  C   LIG    1       -1.153  -2.302  -2.658  0.00  0.00    -0.022 C 
ATOM     18  C   LIG    1       -2.580  -2.852  -2.682  0.00  0.00    +0.002 C 
ENDBRANCH  16  17
ENDBRANCH  11  16
ENDBRANCH   1  11
BRANCH   7  19
ATOM     19  O   LIG    1        7.032  -1.305  -4.968  0.00  0.00    -0.507 OA
ATOM     20  H   LIG    1        6.890  -0.718  -5.723  0.00  0.00    +0.292 HD
ENDBRANCH   7  19
TORSDOF 6
