REMARK  Name = ZINC03809198
REMARK                            x       y       z     vdW  Elec       q    Type
REMARK                         _______ _______ _______ _____ _____    ______ ____
ROOT
ATOM      1  C   LIG    1       -2.403   2.644  -3.249  0.00  0.00    +0.049 A 
ATOM      2  C   LIG    1       -3.218   3.023  -4.298  0.00  0.00    +0.042 A 
ATOM      3  C   LIG    1       -4.556   2.672  -4.296  0.00  0.00    +0.127 A 
ATOM      4  F   LIG    1       -5.351   3.044  -5.323  0.00  0.00    -0.205 F 
ATOM      5  C   LIG    1       -5.085   1.938  -3.244  0.00  0.00    -0.006 A 
ATOM      6  C   LIG    1       -4.271   1.553  -2.197  0.00  0.00    +0.000 A 
ATOM      7  C   LIG    1       -5.076   0.763  -1.187  0.00  0.00    +0.039 C 
ATOM      8  C   LIG    1       -6.353   0.330  -1.938  0.00  0.00    +0.009 C 
ATOM      9  C   LIG    1       -6.494   1.437  -3.009  0.00  0.00    +0.039 C 
ATOM     10  C   LIG    1       -2.928   1.911  -2.196  0.00  0.00    +0.124 A 
ENDROOT
BRANCH  10  11
ATOM     11  O   LIG    1       -2.127   1.537  -1.164  0.00  0.00    -0.489 OA
BRANCH  11  12
ATOM     12  C   LIG    1       -0.756   1.934  -1.230  0.00  0.00    +0.258 C 
BRANCH  12  13
ATOM     13  C   LIG    1       -0.017   1.426   0.010  0.00  0.00    +0.139 C 
ATOM     14  C   LIG    1        1.421   1.950  -0.001  0.00  0.00    -0.047 C 
ATOM     15  N   LIG    1        2.151   1.402   1.157  0.00  0.00    +0.382 N 
ATOM     16  H   LIG    1        3.121   1.739   1.137  0.00  0.00    -0.086 HD
ATOM     17  H   LIG    1        1.698   1.716   2.024  0.00  0.00    -0.086 HD
ATOM     18  C   LIG    1        2.147  -0.072   1.111  0.00  0.00    -0.054 C 
ATOM     19  C   LIG    1        0.701  -0.577   1.111  0.00  0.00    +0.141 C 
ATOM     20  O   LIG    1        0.002  -0.004   0.002  0.00  0.00    -0.377 OA
ENDBRANCH  12  13
ENDBRANCH  11  12
ENDBRANCH  10  11
TORSDOF 3
