REMARK  Name = ZINC03814184
REMARK                            x       y       z     vdW  Elec       q    Type
REMARK                         _______ _______ _______ _____ _____    ______ ____
ROOT
ATOM      1  C   LIG    1        4.743   4.075  -1.166  0.00  0.00    +0.018 C 
ATOM      2  C   LIG    1        4.954   5.555  -0.847  0.00  0.00    -0.002 C 
ATOM      3  C   LIG    1        4.034   5.965   0.307  0.00  0.00    +0.036 C 
ATOM      4  C   LIG    1        4.040   4.911   1.382  0.00  0.00    -0.026 A 
ATOM      5  C   LIG    1        4.745   5.111   2.552  0.00  0.00    +0.005 A 
ATOM      6  C   LIG    1        4.732   4.145   3.541  0.00  0.00    +0.000 A 
ATOM      7  C   LIG    1        4.012   2.977   3.363  0.00  0.00    +0.002 A 
ATOM      8  C   LIG    1        3.309   2.769   2.192  0.00  0.00    +0.024 A 
ATOM      9  C   LIG    1        3.326   3.740   1.196  0.00  0.00    +0.040 A 
ATOM     10  N   LIG    1        2.634   3.529  -0.004  0.00  0.00    -0.262 N 
ATOM     11  C   LIG    1        3.278   3.738  -1.166  0.00  0.00    +0.206 C 
ATOM     12  O   LIG    1        2.676   3.655  -2.216  0.00  0.00    -0.277 OA
ENDROOT
BRANCH   1  13
ATOM     13  N   LIG    1        5.309   3.787  -2.497  0.00  0.00    +0.395 N 
ATOM     14  H1  LIG    1        6.138   4.375  -2.647  0.00  0.00    -0.084 HD
ATOM     15  H2  LIG    1        4.607   3.997  -3.217  0.00  0.00    -0.084 HD
BRANCH  13  16
ATOM     16  CA  LIG    1        5.696   2.367  -2.593  0.00  0.00    +0.040 C 
BRANCH  16  17
ATOM     17  C   LIG    1        7.082   2.183  -2.032  0.00  0.00    +0.291 C 
ATOM     18  O   LIG    1        7.685   3.132  -1.590  0.00  0.00    -0.253 OA
BRANCH  17  19
ATOM     19  OXT LIG    1        7.646   0.966  -2.022  0.00  0.00    -0.482 OA
ATOM     20  HXT LIG    1        7.178   0.230  -2.364  0.00  0.00    +0.295 HD
ENDBRANCH  17  19
ENDBRANCH  16  17
BRANCH  16  21
ATOM     21  C   LIG    1        5.680   1.940  -4.063  0.00  0.00    -0.000 C 
BRANCH  21  22
ATOM     22  C   LIG    1        4.248   2.008  -4.598  0.00  0.00    +0.034 C 
BRANCH  22  26
ATOM     23  C   LIG    1        4.204   0.818  -8.700  0.00  0.00    +0.000 A 
ATOM     24  C   LIG    1        4.033  -0.126  -7.705  0.00  0.00    +0.000 A 
ATOM     25  C   LIG    1        4.048   0.259  -6.377  0.00  0.00    +0.003 A 
ATOM     26  C   LIG    1        4.233   1.588  -6.045  0.00  0.00    -0.047 A 
ATOM     27  C   LIG    1        4.398   2.533  -7.041  0.00  0.00    +0.003 A 
ATOM     28  C   LIG    1        4.389   2.147  -8.368  0.00  0.00    +0.000 A 
ENDBRANCH  22  26
ENDBRANCH  21  22
ENDBRANCH  16  21
ENDBRANCH  13  16
ENDBRANCH   1  13
BRANCH  10  29
ATOM     29  C   LIG    1        1.235   3.094   0.007  0.00  0.00    +0.233 C 
BRANCH  29  30
ATOM     30  C   LIG    1        1.177   1.588  -0.001  0.00  0.00    +0.323 C 
ATOM     31  O   LIG    1        2.199   0.944  -0.014  0.00  0.00    -0.249 OA
BRANCH  30  32
ATOM     32  O   LIG    1       -0.011   0.963   0.007  0.00  0.00    -0.480 OA
ATOM     33  H   LIG    1       -0.804   1.462   0.018  0.00  0.00    +0.295 HD
ENDBRANCH  30  32
ENDBRANCH  29  30
ENDBRANCH  10  29
TORSDOF 10
