REMARK  Name = ZINC03830246
REMARK                            x       y       z     vdW  Elec       q    Type
REMARK                         _______ _______ _______ _____ _____    ______ ____
ROOT
ATOM      1  C   LIG    1       -6.836  -3.796   0.815  0.00  0.00    +0.063 C 
ATOM      2  C   LIG    1       -7.569  -4.460  -0.185  0.00  0.00    +0.023 C 
ATOM      3  C   LIG    1       -6.944  -5.284  -1.136  0.00  0.00    +0.008 C 
ATOM      4  C   LIG    1       -7.699  -5.904  -2.083  0.00  0.00    +0.020 C 
ATOM      5  C   LIG    1       -9.083  -5.742  -2.134  0.00  0.00    +0.082 C 
ATOM      6 CL   LIG    1       -9.985  -6.562  -3.369  0.00  0.00    -0.122 Cl
ATOM      7  C   LIG    1       -9.745  -4.957  -1.241  0.00  0.00    +0.038 C 
ATOM      8  C   LIG    1       -9.022  -4.286  -0.234  0.00  0.00    +0.060 C 
ATOM      9  N   LIG    1       -9.634  -3.511   0.657  0.00  0.00    -0.310 NA
ATOM     10  H   LIG    1      -10.597  -3.407   0.609  0.00  0.00    +0.122 HD
ATOM     11  C   LIG    1       -8.960  -2.873   1.614  0.00  0.00    +0.059 C 
ATOM     12  C   LIG    1       -9.651  -2.061   2.538  0.00  0.00    +0.021 C 
ATOM     13  C   LIG    1       -8.969  -1.421   3.523  0.00  0.00    +0.033 C 
ATOM     14  C   LIG    1       -7.579  -1.539   3.632  0.00  0.00    +0.118 C 
ATOM     15  C   LIG    1       -6.875  -2.311   2.755  0.00  0.00    +0.038 C 
ATOM     16  C   LIG    1       -7.551  -2.995   1.729  0.00  0.00    +0.026 C 
ENDROOT
BRANCH   1  17
ATOM     17  N   LIG    1       -5.466  -3.929   0.903  0.00  0.00    -0.310 NA
ATOM     18  H   LIG    1       -5.061  -4.256   1.722  0.00  0.00    +0.122 HD
BRANCH  17  19
ATOM     19  C   LIG    1       -4.621  -3.577  -0.241  0.00  0.00    +0.051 C 
ATOM     20  C   LIG    1       -3.403  -4.502  -0.280  0.00  0.00    +0.024 C 
BRANCH  19  21
ATOM     21  C   LIG    1       -4.155  -2.126  -0.103  0.00  0.00    +0.016 C 
BRANCH  21  22
ATOM     22  C   LIG    1       -5.364  -1.192  -0.190  0.00  0.00    -0.017 C 
BRANCH  22  23
ATOM     23  C   LIG    1       -4.899   0.259  -0.052  0.00  0.00    -0.079 C 
BRANCH  23  24
ATOM     24  N   LIG    1       -6.038   1.162  -0.265  0.00  0.00    +0.379 N 
ATOM     25  H   LIG    1       -6.489   0.933  -1.139  0.00  0.00    -0.082 HD
BRANCH  24  27
ATOM     26  C   LIG    1       -8.240   1.853   0.552  0.00  0.00    -0.017 C 
ATOM     27  C   LIG    1       -6.997   1.008   0.836  0.00  0.00    -0.082 C 
ENDBRANCH  24  27
BRANCH  24  28
ATOM     28  C   LIG    1       -5.561   2.550  -0.309  0.00  0.00    -0.082 C 
ATOM     29  C   LIG    1       -4.616   2.728  -1.498  0.00  0.00    -0.017 C 
ENDBRANCH  24  28
ENDBRANCH  23  24
ENDBRANCH  22  23
ENDBRANCH  21  22
ENDBRANCH  19  21
ENDBRANCH  17  19
ENDBRANCH   1  17
BRANCH  14  30
ATOM     30  O   LIG    1       -6.924  -0.878   4.623  0.00  0.00    -0.380 OA
ATOM     31  C   LIG    1       -7.717  -0.086   5.509  0.00  0.00    +0.194 C 
ENDBRANCH  14  30
TORSDOF 9
