REMARK  Name = ZINC03791739
REMARK                            x       y       z     vdW  Elec       q    Type
REMARK                         _______ _______ _______ _____ _____    ______ ____
ROOT
ATOM      1  C   LIG    1        0.810  -1.776  -1.839  0.00  0.00    +0.089 A 
ATOM      2  C   LIG    1        0.158  -2.768  -1.121  0.00  0.00    +0.030 A 
ATOM      3  C   LIG    1        0.184  -4.075  -1.569  0.00  0.00    +0.034 A 
ATOM      4  C   LIG    1        0.858  -4.397  -2.732  0.00  0.00    +0.125 A 
ATOM      5  C   LIG    1        1.510  -3.414  -3.453  0.00  0.00    +0.080 A 
ATOM      6  C   LIG    1        1.484  -2.101  -3.014  0.00  0.00    +0.145 A 
ENDROOT
BRANCH   1   7
ATOM      7  N   LIG    1        0.785  -0.451  -1.387  0.00  0.00    -0.217 N 
ATOM      8  H   LIG    1        1.245   0.252  -1.900  0.00  0.00    +0.173 HD
BRANCH   7  10
ATOM      9  C   LIG    1        0.213   1.721   0.203  0.00  0.00    +0.218 C 
ATOM     10  S   LIG    1       -0.016  -0.068   0.010  0.00  0.00    +0.040 S 
ATOM     11  O   LIG    1       -1.380  -0.360  -0.262  0.00  0.00    -0.155 OA
ATOM     12  O   LIG    1        0.684  -0.764   1.032  0.00  0.00    -0.155 OA
ENDBRANCH   7  10
ENDBRANCH   1   7
BRANCH   4  13
ATOM     13  N   LIG    1        0.881  -5.799  -3.207  0.00  0.00    +0.006 N 
ATOM     14  O   LIG    1        0.312  -6.660  -2.578  0.00  0.00    -0.130 OA
BRANCH  13  15
ATOM     15  O   LIG    1        1.470  -6.083  -4.224  0.00  0.00    -0.396 OA
ATOM     16  H   LIG    1        1.911  -5.415  -4.712  0.00  0.00    +0.329 HD
ENDBRANCH  13  15
ENDBRANCH   4  13
BRANCH   6  17
ATOM     17  O   LIG    1        2.119  -1.131  -3.726  0.00  0.00    -0.487 OA
BRANCH  17  18
ATOM     18  C   LIG    1        2.893  -1.554  -4.850  0.00  0.00    +0.174 C 
ATOM     19  C   LIG    1        1.984  -1.691  -6.073  0.00  0.00    +0.044 C 
ATOM     20  C   LIG    1        2.812  -2.143  -7.277  0.00  0.00    +0.004 C 
ATOM     21  C   LIG    1        3.901  -1.108  -7.565  0.00  0.00    +0.000 C 
ATOM     22  C   LIG    1        4.811  -0.970  -6.342  0.00  0.00    +0.004 C 
ATOM     23  C   LIG    1        3.982  -0.518  -5.138  0.00  0.00    +0.044 C 
ENDBRANCH  17  18
ENDBRANCH   6  17
TORSDOF 6
