REMARK  Name = ZINC03791923
REMARK                            x       y       z     vdW  Elec       q    Type
REMARK                         _______ _______ _______ _____ _____    ______ ____
ROOT
ATOM      1  C   LIG    1       -3.014  -2.361   0.018  0.00  0.00    +0.078 C 
ATOM      2  C   LIG    1       -3.522  -2.441   1.456  0.00  0.00    +0.057 C 
ATOM      3  C   LIG    1       -2.792  -3.518   2.216  0.00  0.00    -0.042 A 
ATOM      4  C   LIG    1       -2.847  -3.480   3.604  0.00  0.00    +0.004 A 
ATOM      5  C   LIG    1       -2.204  -4.441   4.357  0.00  0.00    +0.000 A 
ATOM      6  C   LIG    1       -1.500  -5.450   3.726  0.00  0.00    +0.000 A 
ATOM      7  C   LIG    1       -1.443  -5.488   2.348  0.00  0.00    +0.004 A 
ATOM      8  C   LIG    1       -2.086  -4.519   1.588  0.00  0.00    -0.037 A 
ATOM      9  C   LIG    1       -1.970  -4.612   0.089  0.00  0.00    +0.051 C 
ATOM     10  C   LIG    1       -3.050  -3.769  -0.587  0.00  0.00    +0.035 C 
ENDROOT
BRANCH   9  11
ATOM     11  C   LIG    1       -2.125  -6.050  -0.333  0.00  0.00    -0.040 A 
ATOM     12  C   LIG    1       -3.293  -6.732  -0.048  0.00  0.00    +0.004 A 
ATOM     13  C   LIG    1       -3.435  -8.051  -0.436  0.00  0.00    +0.000 A 
ATOM     14  C   LIG    1       -2.410  -8.688  -1.109  0.00  0.00    +0.000 A 
ATOM     15  C   LIG    1       -1.242  -8.006  -1.395  0.00  0.00    +0.000 A 
ATOM     16  C   LIG    1       -1.101  -6.685  -1.011  0.00  0.00    +0.004 A 
ENDBRANCH   9  11
BRANCH   1  18
ATOM     17  C   LIG    1       -1.412  -0.526   0.013  0.00  0.00    +0.213 C 
ATOM     18  N   LIG    1       -1.640  -1.854   0.008  0.00  0.00    -0.312 N 
ATOM     19  H   LIG    1       -0.894  -2.474  -0.003  0.00  0.00    +0.149 HD
ATOM     20  O   LIG    1       -2.344   0.250   0.026  0.00  0.00    -0.276 OA
BRANCH  17  22
ATOM     21  C   LIG    1       -0.019   1.526   0.010  0.00  0.00    +0.013 C 
ATOM     22  C   LIG    1        0.002  -0.004   0.002  0.00  0.00    +0.092 C 
ENDBRANCH  17  22
ENDBRANCH   1  18
TORSDOF 3
