REMARK  Name = ZINC03842421
REMARK                            x       y       z     vdW  Elec       q    Type
REMARK                         _______ _______ _______ _____ _____    ______ ____
ROOT
ATOM      1  C   LIG    1        2.810   3.787  -0.027  0.00  0.00    +0.145 C 
ENDROOT
BRANCH   1   2
ATOM      2  C   LIG    1        2.143   2.461   0.237  0.00  0.00    +0.135 A 
ATOM      3  N   LIG    1        0.844   2.421   0.363  0.00  0.00    -0.223 NA
ATOM      4  C   LIG    1        0.207   1.281   0.596  0.00  0.00    +0.135 A 
ATOM      5  C   LIG    1        0.897   0.054   0.720  0.00  0.00    +0.095 A 
ATOM      6  C   LIG    1        2.363   0.137   0.572  0.00  0.00    +0.264 A 
ATOM      7  O   LIG    1        3.058  -0.860   0.659  0.00  0.00    -0.267 OA
ATOM      8  C   LIG    1        0.060  -1.040   0.963  0.00  0.00    +0.062 A 
ATOM      9  C   LIG    1        0.659  -2.414   1.116  0.00  0.00    +0.067 C 
ATOM     10  N   LIG    1       -1.230  -0.888   1.058  0.00  0.00    -0.213 NA
ATOM     11  S   LIG    1       -1.481   0.788   0.826  0.00  0.00    +0.032 S 
ATOM     12  N   LIG    1        2.910   1.347   0.337  0.00  0.00    -0.290 N 
BRANCH  12  13
ATOM     13  C   LIG    1        4.363   1.460   0.186  0.00  0.00    +0.161 C 
BRANCH  13  14
ATOM     14  C   LIG    1        5.024   1.270   1.527  0.00  0.00    -0.028 A 
ATOM     15  C   LIG    1        5.867   2.244   2.027  0.00  0.00    +0.005 A 
ATOM     16  C   LIG    1        6.469   2.072   3.259  0.00  0.00    +0.000 A 
ATOM     17  C   LIG    1        6.237   0.919   3.986  0.00  0.00    +0.000 A 
ATOM     18  C   LIG    1        5.399  -0.058   3.484  0.00  0.00    +0.000 A 
ATOM     19  C   LIG    1        4.792   0.117   2.254  0.00  0.00    +0.005 A 
ENDBRANCH  13  14
ENDBRANCH  12  13
ENDBRANCH   1   2
BRANCH   1  21
ATOM     20  C   LIG    1        1.765   4.957  -1.892  0.00  0.00    +0.247 C 
ATOM     21  N   LIG    1        1.826   4.730  -0.565  0.00  0.00    -0.287 N 
ATOM     22  O   LIG    1        1.047   5.836  -2.325  0.00  0.00    -0.270 OA
BRANCH  20  27
ATOM     23  C   LIG    1        4.910   1.766  -5.504  0.00  0.00    +0.044 C 
ATOM     24  C   LIG    1        4.087   2.602  -4.558  0.00  0.00    -0.050 A 
ATOM     25  C   LIG    1        3.549   3.802  -4.989  0.00  0.00    +0.004 A 
ATOM     26  C   LIG    1        2.794   4.571  -4.128  0.00  0.00    +0.013 A 
ATOM     27  C   LIG    1        2.573   4.137  -2.820  0.00  0.00    +0.037 A 
ATOM     28  C   LIG    1        3.123   2.928  -2.390  0.00  0.00    +0.013 A 
ATOM     29  C   LIG    1        3.872   2.166  -3.262  0.00  0.00    +0.004 A 
ENDBRANCH  20  27
BRANCH  21  30
ATOM     30  C   LIG    1        0.908   5.426   0.341  0.00  0.00    +0.107 C 
BRANCH  30  31
ATOM     31  C   LIG    1       -0.446   4.713   0.341  0.00  0.00    -0.001 C 
BRANCH  31  32
ATOM     32  C   LIG    1       -1.437   5.502   1.199  0.00  0.00    -0.085 C 
BRANCH  32  33
ATOM     33  N   LIG    1       -2.731   4.795   1.210  0.00  0.00    +0.378 N 
ATOM     34  H   LIG    1       -2.604   3.867   1.630  0.00  0.00    -0.090 HD
ATOM     35  H   LIG    1       -3.077   4.685   0.258  0.00  0.00    -0.090 HD
ATOM     36  H   LIG    1       -3.410   5.319   1.759  0.00  0.00    -0.090 HD
ENDBRANCH  32  33
ENDBRANCH  31  32
ENDBRANCH  30  31
ENDBRANCH  21  30
ENDBRANCH   1  21
BRANCH   1  37
ATOM     37  C   LIG    1        3.384   4.338   1.279  0.00  0.00    +0.011 C 
ATOM     38  C   LIG    1        2.396   4.083   2.419  0.00  0.00    +0.009 C 
ATOM     39  C   LIG    1        3.622   5.843   1.137  0.00  0.00    +0.009 C 
ENDBRANCH   1  37
TORSDOF 10
