REMARK  Name = ZINC03833821
REMARK                            x       y       z     vdW  Elec       q    Type
REMARK                         _______ _______ _______ _____ _____    ______ ____
ROOT
ATOM      1  C   LIG    1       -0.752   1.659  -0.167  0.00  0.00    +0.015 C 
ATOM      2  C   LIG    1       -0.977   0.146  -0.141  0.00  0.00    +0.009 C 
ATOM      3  C   LIG    1       -2.297  -0.166   0.537  0.00  0.00    +0.041 C 
ATOM      4  C   LIG    1       -2.269   0.508   1.918  0.00  0.00    +0.120 C 
ATOM      5  C   LIG    1       -1.083   0.035   2.753  0.00  0.00    +0.035 C 
ATOM      6  C   LIG    1        0.249   0.239   2.013  0.00  0.00    -0.000 C 
ATOM      7  C   LIG    1        1.397  -0.312   2.860  0.00  0.00    +0.008 C 
ATOM      8  C   LIG    1        1.508   0.489   4.161  0.00  0.00    +0.032 C 
ATOM      9  C   LIG    1        0.158   0.452   4.854  0.00  0.00    -0.056 C 
ATOM     10  C   LIG    1        0.102   0.089   6.128  0.00  0.00    +0.051 C 
ATOM     11  C   LIG    1       -1.189   0.020   6.829  0.00  0.00    +0.179 C 
ATOM     12  C   LIG    1       -2.417   0.312   6.070  0.00  0.00    +0.047 C 
ATOM     13  C   LIG    1       -2.336   0.680   4.801  0.00  0.00    -0.012 C 
ATOM     14  O   LIG    1       -1.242  -0.272   8.009  0.00  0.00    -0.288 OA
ATOM     15  C   LIG    1       -1.032   0.834   4.059  0.00  0.00    +0.013 C 
ATOM     16  C   LIG    1       -0.880   2.312   3.693  0.00  0.00    +0.020 C 
ATOM     17  C   LIG    1       -0.774  -0.431  -1.539  0.00  0.00    +0.131 C 
ATOM     18  C   LIG    1        0.740  -0.746  -1.636  0.00  0.00    +0.043 C 
ATOM     19  C   LIG    1        1.346  -0.418  -0.244  0.00  0.00    +0.008 C 
ATOM     20  C   LIG    1        0.139  -0.539   0.693  0.00  0.00    +0.002 C 
ENDROOT
BRANCH   4  21
ATOM     21  O   LIG    1       -2.179   1.923   1.744  0.00  0.00    -0.391 OA
ATOM     22  H   LIG    1       -2.917   2.306   1.250  0.00  0.00    +0.210 HD
ENDBRANCH   4  21
BRANCH  17  23
ATOM     23  O   LIG    1       -1.540  -1.627  -1.697  0.00  0.00    -0.380 OA
ATOM     24  H   LIG    1       -1.450  -2.039  -2.567  0.00  0.00    +0.211 HD
ENDBRANCH  17  23
BRANCH  17  25
ATOM     25  C   LIG    1       -1.164   0.583  -2.583  0.00  0.00    +0.190 C 
ATOM     26  O   LIG    1       -0.331   1.326  -3.044  0.00  0.00    -0.292 OA
BRANCH  25  27
ATOM     27  C   LIG    1       -2.593   0.669  -3.053  0.00  0.00    +0.233 C 
BRANCH  27  28
ATOM     28  O   LIG    1       -2.710   1.698  -4.038  0.00  0.00    -0.387 OA
ATOM     29  H   LIG    1       -3.605   1.810  -4.385  0.00  0.00    +0.210 HD
ENDBRANCH  27  28
ENDBRANCH  25  27
ENDBRANCH  17  25
TORSDOF 5
