REMARK  Name = ZINC03822128
REMARK                            x       y       z     vdW  Elec       q    Type
REMARK                         _______ _______ _______ _____ _____    ______ ____
ROOT
ATOM      1  C   LIG    1       -1.333   2.114   0.020  0.00  0.00    +0.044 C 
ATOM      2  C   LIG    1       -0.017   1.380   0.010  0.00  0.00    -0.047 A 
ATOM      3  C   LIG    1        1.167   2.092   0.002  0.00  0.00    +0.003 A 
ATOM      4  C   LIG    1        2.375   1.420  -0.011  0.00  0.00    +0.001 A 
ATOM      5  C   LIG    1        2.396   0.039  -0.020  0.00  0.00    +0.004 A 
ATOM      6  C   LIG    1        1.210  -0.676  -0.013  0.00  0.00    -0.035 A 
ATOM      7  C   LIG    1        0.965  -2.170  -0.019  0.00  0.00    +0.068 C 
ATOM      8  C   LIG    1       -0.508  -2.335  -0.447  0.00  0.00    +0.019 C 
ATOM      9  C   LIG    1       -1.137  -1.001   0.007  0.00  0.00    +0.036 C 
ATOM     10  C   LIG    1        0.002  -0.004   0.002  0.00  0.00    -0.041 A 
ENDROOT
BRANCH   7  11
ATOM     11  C   LIG    1        1.179  -2.740   1.359  0.00  0.00    +0.043 A 
ATOM     12  C   LIG    1        0.921  -2.115   2.523  0.00  0.00    +0.134 A 
ATOM     13  N   LIG    1        1.254  -2.988   3.524  0.00  0.00    -0.244 NA
ATOM     14  C   LIG    1        1.714  -4.113   2.935  0.00  0.00    +0.196 A 
ATOM     15  N   LIG    1        1.666  -3.958   1.641  0.00  0.00    -0.348 N 
ATOM     16  H   LIG    1        1.948  -4.639   0.965  0.00  0.00    +0.167 HD
ENDBRANCH   7  11
TORSDOF 1
