REMARK  Name = ZINC03786466
REMARK                            x       y       z     vdW  Elec       q    Type
REMARK                         _______ _______ _______ _____ _____    ______ ____
ROOT
ATOM      1  N   LIG    1        0.762  -1.980   1.234  0.00  0.00    +0.382 N 
ATOM      2  H   LIG    1        1.164  -2.304   0.367  0.00  0.00    -0.081 HD
ATOM      3  C   LIG    1       -0.610  -2.486   1.352  0.00  0.00    -0.074 C 
ATOM      4  C   LIG    1       -0.600  -4.014   1.257  0.00  0.00    -0.017 C 
ATOM      5  C   LIG    1        0.252  -4.582   2.395  0.00  0.00    +0.009 C 
ATOM      6  C   LIG    1        1.662  -3.988   2.313  0.00  0.00    +0.007 C 
ATOM      7  C   LIG    1        2.485  -4.495   3.459  0.00  0.00    -0.036 A 
ATOM      8  C   LIG    1        2.392  -5.692   4.096  0.00  0.00    +0.004 A 
ATOM      9  C   LIG    1        3.255  -5.999   5.148  0.00  0.00    +0.002 A 
ATOM     10  C   LIG    1        4.266  -5.201   5.584  0.00  0.00    +0.026 A 
ATOM     11  C   LIG    1        4.384  -3.956   4.970  0.00  0.00    +0.047 A 
ATOM     12  N   LIG    1        5.173  -2.852   5.091  0.00  0.00    -0.360 N 
ATOM     13  H   LIG    1        5.895  -2.756   5.731  0.00  0.00    +0.165 HD
ATOM     14  C   LIG    1        4.797  -1.886   4.169  0.00  0.00    +0.087 A 
ATOM     15  C   LIG    1        3.781  -2.319   3.440  0.00  0.00    -0.024 A 
ATOM     16  C   LIG    1        2.942  -1.764   2.317  0.00  0.00    +0.022 C 
ATOM     17  C   LIG    1        3.490  -3.665   3.932  0.00  0.00    +0.006 A 
ATOM     18  C   LIG    1        1.574  -2.462   2.358  0.00  0.00    -0.057 C 
ENDROOT
BRANCH   1  19
ATOM     19  C   LIG    1        0.742  -0.511   1.242  0.00  0.00    -0.079 C 
BRANCH  19  21
ATOM     20  C   LIG    1       -0.019   1.526   0.010  0.00  0.00    +0.002 C 
ATOM     21  C   LIG    1        0.002  -0.004   0.002  0.00  0.00    -0.022 C 
ENDBRANCH  19  21
ENDBRANCH   1  19
BRANCH   4  22
ATOM     22  C   LIG    1       -2.031  -4.542   1.375  0.00  0.00    +0.070 C 
BRANCH  22  23
ATOM     23  S   LIG    1       -2.036  -6.338   1.115  0.00  0.00    -0.164 S 
ATOM     24  C   LIG    1       -3.781  -6.801   1.285  0.00  0.00    +0.084 C 
ENDBRANCH  22  23
ENDBRANCH   4  22
TORSDOF 4
