REMARK  Name = ZINC03869685
REMARK                            x       y       z     vdW  Elec       q    Type
REMARK                         _______ _______ _______ _____ _____    ______ ____
ROOT
ATOM      1  C   LIG    1       -1.264  -0.760   0.010  0.00  0.00    +0.181 A 
ATOM      2  C   LIG    1       -2.436  -0.076   0.123  0.00  0.00    +0.208 A 
ATOM      3  C   LIG    1       -3.663  -0.789   0.133  0.00  0.00    +0.238 A 
ATOM      4  C   LIG    1       -3.595  -2.255   0.017  0.00  0.00    +0.109 A 
ATOM      5  C   LIG    1       -4.756  -3.039   0.017  0.00  0.00    +0.135 A 
ATOM      6  C   LIG    1       -4.650  -4.412  -0.094  0.00  0.00    +0.091 A 
ATOM      7  C   LIG    1       -3.399  -5.010  -0.204  0.00  0.00    +0.124 A 
ATOM      8  C   LIG    1       -2.246  -4.242  -0.205  0.00  0.00    +0.092 A 
ATOM      9  C   LIG    1       -2.332  -2.862  -0.095  0.00  0.00    +0.147 A 
ATOM     10  O   LIG    1       -4.733  -0.210   0.232  0.00  0.00    -0.283 OA
ATOM     11  O   LIG    1       -1.218  -2.099  -0.100  0.00  0.00    -0.451 OA
ENDROOT
BRANCH   1  17
ATOM     12  C   LIG    1        0.974  -0.276  -0.964  0.00  0.00    +0.015 A 
ATOM     13  C   LIG    1        2.157   0.433  -0.970  0.00  0.00    +0.050 A 
ATOM     14  C   LIG    1        2.386   1.416  -0.018  0.00  0.00    +0.158 A 
ATOM     15  C   LIG    1        1.420   1.692   0.950  0.00  0.00    +0.159 A 
ATOM     16  C   LIG    1        0.233   0.986   0.962  0.00  0.00    +0.060 A 
ATOM     17  C   LIG    1        0.002  -0.004   0.002  0.00  0.00    +0.025 A 
BRANCH  14  18
ATOM     18  O   LIG    1        3.553   2.110  -0.027  0.00  0.00    -0.503 OA
ATOM     19  H   LIG    1        3.529   2.914  -0.565  0.00  0.00    +0.292 HD
ENDBRANCH  14  18
BRANCH  15  20
ATOM     20  O   LIG    1        1.648   2.656   1.881  0.00  0.00    -0.503 OA
ATOM     21  H   LIG    1        1.351   3.537   1.617  0.00  0.00    +0.292 HD
ENDBRANCH  15  20
ENDBRANCH   1  17
BRANCH   2  22
ATOM     22  O   LIG    1       -2.431   1.281   0.228  0.00  0.00    -0.501 OA
ATOM     23  H   LIG    1       -3.312   1.673   0.303  0.00  0.00    +0.292 HD
ENDBRANCH   2  22
BRANCH   5  24
ATOM     24  O   LIG    1       -5.976  -2.454   0.126  0.00  0.00    -0.506 OA
ATOM     25  H   LIG    1       -6.375  -2.216  -0.722  0.00  0.00    +0.292 HD
ENDBRANCH   5  24
BRANCH   7  26
ATOM     26  O   LIG    1       -3.307  -6.361  -0.312  0.00  0.00    -0.507 OA
ATOM     27  H   LIG    1       -3.326  -6.684  -1.224  0.00  0.00    +0.292 HD
ENDBRANCH   7  26
TORSDOF 6
