REMARK  Name = ZINC03780852
REMARK                            x       y       z     vdW  Elec       q    Type
REMARK                         _______ _______ _______ _____ _____    ______ ____
ROOT
ATOM      1  C   LIG    1       -0.223   1.771   2.415  0.00  0.00    +0.220 C 
ATOM      2  N   LIG    1       -0.746   1.583   1.187  0.00  0.00    -0.287 N 
ATOM      3  C   LIG    1       -0.013   1.086   0.008  0.00  0.00    +0.123 C 
ATOM      4  C   LIG    1       -0.806   1.621  -1.210  0.00  0.00    +0.071 C 
ATOM      5  C   LIG    1       -2.269   1.504  -0.705  0.00  0.00    +0.050 C 
ATOM      6  C   LIG    1       -2.143   1.837   0.797  0.00  0.00    +0.186 C 
ATOM      7  O   LIG    1       -0.922   2.186   3.314  0.00  0.00    -0.275 OA
ENDROOT
BRANCH   1   9
ATOM      8  C   LIG    1        1.503  -0.009   2.375  0.00  0.00    +0.018 C 
ATOM      9  C   LIG    1        1.231   1.468   2.669  0.00  0.00    +0.082 C 
BRANCH   9  10
ATOM     10  C   LIG    1        1.566   1.766   4.132  0.00  0.00    +0.078 C 
BRANCH  10  11
ATOM     11  S   LIG    1        3.345   1.542   4.403  0.00  0.00    -0.178 S 
ATOM     12  H   LIG    1        3.514   1.829   5.706  0.00  0.00    +0.102 HD
ENDBRANCH  10  11
ENDBRANCH   9  10
ENDBRANCH   1   9
BRANCH   6  13
ATOM     13  C   LIG    1       -3.067   0.955   1.597  0.00  0.00    +0.325 C 
ATOM     14  O   LIG    1       -2.614   0.196   2.421  0.00  0.00    -0.249 OA
BRANCH  13  15
ATOM     15  O   LIG    1       -4.392   1.011   1.393  0.00  0.00    -0.479 OA
ATOM     16  H   LIG    1       -4.743   1.599   0.753  0.00  0.00    +0.295 HD
ENDBRANCH  13  15
ENDBRANCH   6  13
BRANCH   4  17
ATOM     17  S   LIG    1       -0.538   0.578  -2.670  0.00  0.00    -0.120 S 
BRANCH  17  18
ATOM     18  C   LIG    1        1.165   0.818  -3.057  0.00  0.00    +0.008 A 
ATOM     19  C   LIG    1        1.942   1.670  -2.282  0.00  0.00    +0.015 A 
ATOM     20  C   LIG    1        3.277   1.850  -2.585  0.00  0.00    +0.001 A 
ATOM     21  C   LIG    1        3.838   1.193  -3.665  0.00  0.00    +0.000 A 
ATOM     22  C   LIG    1        3.066   0.349  -4.442  0.00  0.00    +0.001 A 
ATOM     23  C   LIG    1        1.731   0.159  -4.142  0.00  0.00    +0.015 A 
ENDBRANCH  17  18
ENDBRANCH   4  17
TORSDOF 7
