REMARK  Name = ZINC03821364
REMARK                            x       y       z     vdW  Elec       q    Type
REMARK                         _______ _______ _______ _____ _____    ______ ____
ROOT
ATOM      1  C   UNK A  0        8.537   7.522  -0.243  0.00  0.00    +0.044 A 
ATOM      2  C   UNK A  0        8.633   8.903  -0.330  0.00  0.00    +0.013 A 
ATOM      3  C   UNK A  0        7.490   9.690  -0.406  0.00  0.00    +0.001 A 
ATOM      4  C   UNK A  0        6.248   9.130  -0.400  0.00  0.00    +0.008 A 
ATOM      5  C   UNK A  0        6.102   7.734  -0.314  0.00  0.00    -0.015 A 
ATOM      6  C   UNK A  0        4.831   7.137  -0.305  0.00  0.00    +0.031 A 
ATOM      7  C   UNK A  0        4.726   5.766  -0.219  0.00  0.00    +0.028 A 
ATOM      8  C   UNK A  0        5.872   4.967  -0.136  0.00  0.00    +0.023 A 
ATOM      9  C   UNK A  0        7.114   5.523  -0.147  0.00  0.00    +0.011 A 
ATOM     10  C   UNK A  0        7.255   6.915  -0.234  0.00  0.00    -0.006 A 
ENDROOT
BRANCH   1  13
ATOM     11  N   MET A  1       10.968   7.265  -0.294  0.00  0.00    -0.298 N 
ATOM     12  H   MET A  1       11.040   8.221  -0.442  0.00  0.00    +0.150 HD
ATOM     13  C   UNK A  0        9.754   6.694  -0.162  0.00  0.00    +0.245 C 
ATOM     14  O   UNK A  0        9.663   5.496   0.024  0.00  0.00    -0.270 OA
BRANCH  11  15
ATOM     15  CA  MET A  1       12.177   6.442  -0.213  0.00  0.00    +0.183 C 
BRANCH  15  16
ATOM     16  C   MET A  1       12.574   6.272   1.231  0.00  0.00    +0.325 C 
ATOM     17  O   MET A  1       11.914   6.785   2.103  0.00  0.00    -0.249 OA
BRANCH  16  18
ATOM     18  OXT MET A  1       13.660   5.550   1.548  0.00  0.00    -0.479 OA
ATOM     19  HXT MET A  1       14.172   5.152   0.871  0.00  0.00    +0.295 HD
ENDBRANCH  16  18
ENDBRANCH  15  16
BRANCH  15  20
ATOM     20  CB  MET A  1       13.312   7.128  -0.977  0.00  0.00    +0.044 C 
BRANCH  20  21
ATOM     21  CG  MET A  1       12.962   7.188  -2.465  0.00  0.00    +0.071 C 
BRANCH  21  23
ATOM     22  CE  MET A  1       13.745   7.993  -5.094  0.00  0.00    +0.084 C 
ATOM     23  SD  MET A  1       14.308   8.001  -3.370  0.00  0.00    -0.164 S 
ENDBRANCH  21  23
ENDBRANCH  20  21
ENDBRANCH  15  20
ENDBRANCH  11  15
ENDBRANCH   1  13
BRANCH   7  24
ATOM     24  N   UNK A  0        3.464   5.168  -0.209  0.00  0.00    -0.345 N 
ATOM     25  H   UNK A  0        2.667   5.718  -0.263  0.00  0.00    +0.146 HD
BRANCH  24  26
ATOM     26  C   UNK A  0        3.344   3.711  -0.118  0.00  0.00    +0.086 C 
BRANCH  26  27
ATOM     27  C   UNK A  0        1.865   3.319  -0.127  0.00  0.00    -0.048 C 
BRANCH  27  28
ATOM     28  N   UNK A  0        1.192   3.878  -1.313  0.00  0.00    +0.382 N 
ATOM     29  H   UNK A  0        0.210   3.576  -1.317  0.00  0.00    -0.090 HD
ATOM     30  H   UNK A  0        1.645   3.545  -2.162  0.00  0.00    -0.090 HD
ATOM     31  H   UNK A  0        1.227   4.896  -1.287  0.00  0.00    -0.090 HD
ENDBRANCH  27  28
BRANCH  27  32
ATOM     32  C   UNK A  0        1.742   1.794  -0.158  0.00  0.00    +0.051 C 
BRANCH  32  33
ATOM     33  S   UNK A  0       -0.012   1.330  -0.168  0.00  0.00    -0.180 S 
ATOM     34  H   UNK A  0        0.008  -0.015  -0.195  0.00  0.00    +0.102 HD
ENDBRANCH  32  33
ENDBRANCH  27  32
ENDBRANCH  26  27
ENDBRANCH  24  26
ENDBRANCH   7  24
TORSDOF 13
