REMARK  Name = ZINC03872713
REMARK                            x       y       z     vdW  Elec       q    Type
REMARK                         _______ _______ _______ _____ _____    ______ ____
ROOT
ATOM      1  N   LIG    1        1.360   2.011  -0.000  0.00  0.00    +0.394 N 
ATOM      2  H   LIG    1        1.832   1.686  -0.830  0.00  0.00    -0.084 HD
ATOM      3  H   LIG    1        1.848   1.677   0.817  0.00  0.00    -0.084 HD
ENDROOT
BRANCH   1   4
ATOM      4  C   LIG    1       -0.018   1.503   0.010  0.00  0.00    +0.041 C 
BRANCH   4   5
ATOM      5  C   LIG    1        0.002  -0.004   0.002  0.00  0.00    +0.287 C 
ATOM      6  O   LIG    1        1.066  -0.599  -0.011  0.00  0.00    -0.253 OA
BRANCH   5   7
ATOM      7  O   LIG    1       -1.045  -0.628   0.009  0.00  0.00    -0.482 OA
ATOM      8  H   LIG    1       -1.863  -0.171   0.019  0.00  0.00    +0.295 HD
ENDBRANCH   5   7
ENDBRANCH   4   5
ENDBRANCH   1   4
BRANCH   1   9
ATOM      9  C   LIG    1        1.340   3.480   0.008  0.00  0.00    +0.048 C 
BRANCH   9  10
ATOM     10  P   LIG    1        3.050   4.111  -0.005  0.00  0.00    +0.311 P 
ATOM     11  O   LIG    1        3.845   3.490   1.194  0.00  0.00    -0.261 OA
BRANCH  10  12
ATOM     12  O   LIG    1        3.032   5.672   0.132  0.00  0.00    -0.325 OA
ATOM     13  H   LIG    1        2.603   5.918   0.967  0.00  0.00    +0.220 HD
ENDBRANCH  10  12
BRANCH  10  14
ATOM     14  O   LIG    1        3.743   3.713  -1.353  0.00  0.00    -0.325 OA
ATOM     15  H   LIG    1        3.754   2.747  -1.438  0.00  0.00    +0.220 HD
ENDBRANCH  10  14
ENDBRANCH   9  10
ENDBRANCH   1   9
TORSDOF 7
