REMARK  Name = ZINC03805769
REMARK                            x       y       z     vdW  Elec       q    Type
REMARK                         _______ _______ _______ _____ _____    ______ ____
ROOT
ATOM      1  C   LIG    1       -2.253  -1.400   4.087  0.00  0.00    +0.013 C 
ATOM      2  C   LIG    1       -3.145  -0.540   3.189  0.00  0.00    -0.012 C 
ATOM      3  C   LIG    1       -4.540  -1.155   3.059  0.00  0.00    +0.013 C 
ATOM      4  C   LIG    1       -3.228   0.909   3.718  0.00  0.00    +0.062 C 
ATOM      5  C   LIG    1       -2.121   1.637   2.982  0.00  0.00    +0.028 A 
ATOM      6  C   LIG    1       -1.385   2.783   3.038  0.00  0.00    +0.011 A 
ATOM      7  C   LIG    1       -0.459   2.733   1.900  0.00  0.00    +0.011 A 
ATOM      8  C   LIG    1       -0.718   1.572   1.248  0.00  0.00    +0.038 A 
ATOM      9  N   LIG    1       -1.721   0.911   1.904  0.00  0.00    -0.345 N 
ATOM     10  C   LIG    1       -2.500  -0.337   1.802  0.00  0.00    +0.128 C 
ENDROOT
BRANCH   7  11
ATOM     11  C   LIG    1        0.556   3.751   1.534  0.00  0.00    -0.015 A 
ATOM     12  C   LIG    1        1.631   4.005   2.385  0.00  0.00    +0.010 A 
ATOM     13  C   LIG    1        2.574   4.950   2.038  0.00  0.00    +0.020 A 
ATOM     14  C   LIG    1        2.450   5.653   0.851  0.00  0.00    +0.041 A 
ATOM     15 CL   LIG    1        3.637   6.845   0.424  0.00  0.00    -0.084 Cl
ATOM     16  C   LIG    1        1.382   5.408   0.005  0.00  0.00    +0.020 A 
ATOM     17  C   LIG    1        0.435   4.462   0.341  0.00  0.00    +0.010 A 
ENDBRANCH   7  11
BRANCH   6  18
ATOM     18  C   LIG    1       -1.494   3.861   4.051  0.00  0.00    -0.016 A 
ATOM     19  C   LIG    1       -2.657   4.623   4.139  0.00  0.00    +0.008 A 
ATOM     20  C   LIG    1       -2.755   5.622   5.086  0.00  0.00    +0.001 A 
ATOM     21  C   LIG    1       -1.696   5.874   5.940  0.00  0.00    +0.000 A 
ATOM     22  C   LIG    1       -0.537   5.125   5.854  0.00  0.00    +0.001 A 
ATOM     23  C   LIG    1       -0.431   4.120   4.914  0.00  0.00    +0.008 A 
ENDBRANCH   6  18
BRANCH   8  24
ATOM     24  C   LIG    1       -0.013   1.086   0.008  0.00  0.00    +0.174 C 
BRANCH  24  25
ATOM     25  C   LIG    1       -0.742   1.585  -1.213  0.00  0.00    +0.311 C 
ATOM     26  O   LIG    1       -1.732   2.266  -1.089  0.00  0.00    -0.251 OA
BRANCH  25  27
ATOM     27  O   LIG    1       -0.290   1.274  -2.438  0.00  0.00    -0.480 OA
ATOM     28  H   LIG    1        0.478   0.746  -2.534  0.00  0.00    +0.295 HD
ENDBRANCH  25  27
ENDBRANCH  24  25
ENDBRANCH   8  24
TORSDOF 5
