REMARK  Name = ZINC03830247
REMARK                            x       y       z     vdW  Elec       q    Type
REMARK                         _______ _______ _______ _____ _____    ______ ____
ROOT
ATOM      1  C   LIG    1       -6.612  -3.534  -1.888  0.00  0.00    +0.063 C 
ATOM      2  C   LIG    1       -7.538  -4.074  -0.977  0.00  0.00    +0.023 C 
ATOM      3  C   LIG    1       -7.139  -4.923   0.068  0.00  0.00    +0.008 C 
ATOM      4  C   LIG    1       -8.075  -5.418   0.922  0.00  0.00    +0.020 C 
ATOM      5  C   LIG    1       -9.426  -5.102   0.785  0.00  0.00    +0.082 C 
ATOM      6 CL   LIG    1      -10.567  -5.769   1.910  0.00  0.00    -0.122 Cl
ATOM      7  C   LIG    1       -9.874  -4.285  -0.206  0.00  0.00    +0.038 C 
ATOM      8  C   LIG    1       -8.956  -3.739  -1.125  0.00  0.00    +0.060 C 
ATOM      9  N   LIG    1       -9.356  -2.936  -2.107  0.00  0.00    -0.310 NA
ATOM     10  H   LIG    1      -10.299  -2.725  -2.190  0.00  0.00    +0.122 HD
ATOM     11  C   LIG    1       -8.495  -2.413  -2.981  0.00  0.00    +0.059 C 
ATOM     12  C   LIG    1       -8.964  -1.565  -4.007  0.00  0.00    +0.021 C 
ATOM     13  C   LIG    1       -8.089  -1.019  -4.890  0.00  0.00    +0.033 C 
ATOM     14  C   LIG    1       -6.719  -1.294  -4.812  0.00  0.00    +0.118 C 
ATOM     15  C   LIG    1       -6.228  -2.112  -3.838  0.00  0.00    +0.038 C 
ATOM     16  C   LIG    1       -7.105  -2.687  -2.901  0.00  0.00    +0.026 C 
ENDROOT
BRANCH   1  17
ATOM     17  N   LIG    1       -5.266  -3.820  -1.790  0.00  0.00    -0.310 NA
ATOM     18  H   LIG    1       -4.790  -4.183  -2.553  0.00  0.00    +0.122 HD
BRANCH  17  19
ATOM     19  C   LIG    1       -4.554  -3.574  -0.533  0.00  0.00    +0.051 C 
ATOM     20  C   LIG    1       -3.336  -4.496  -0.447  0.00  0.00    +0.024 C 
BRANCH  19  21
ATOM     21  C   LIG    1       -4.094  -2.115  -0.484  0.00  0.00    +0.016 C 
BRANCH  21  22
ATOM     22  C   LIG    1       -5.317  -1.196  -0.443  0.00  0.00    -0.017 C 
BRANCH  22  23
ATOM     23  C   LIG    1       -4.857   0.262  -0.394  0.00  0.00    -0.079 C 
BRANCH  23  24
ATOM     24  N   LIG    1       -6.022   1.148  -0.519  0.00  0.00    +0.379 N 
ATOM     25  H   LIG    1       -6.563   0.879  -1.327  0.00  0.00    -0.082 HD
BRANCH  24  27
ATOM     26  C   LIG    1       -8.129   1.861   0.505  0.00  0.00    -0.017 C 
ATOM     27  C   LIG    1       -6.854   1.035   0.687  0.00  0.00    -0.082 C 
ENDBRANCH  24  27
BRANCH  24  28
ATOM     28  C   LIG    1       -5.568   2.536  -0.673  0.00  0.00    -0.082 C 
ATOM     29  C   LIG    1       -4.645   2.639  -1.889  0.00  0.00    -0.017 C 
ENDBRANCH  24  28
ENDBRANCH  23  24
ENDBRANCH  22  23
ENDBRANCH  21  22
ENDBRANCH  19  21
ENDBRANCH  17  19
ENDBRANCH   1  17
BRANCH  14  30
ATOM     30  O   LIG    1       -5.870  -0.740  -5.717  0.00  0.00    -0.380 OA
ATOM     31  C   LIG    1       -6.445   0.108  -6.713  0.00  0.00    +0.194 C 
ENDBRANCH  14  30
TORSDOF 9
