REMARK  Name = ZINC03806262
REMARK                            x       y       z     vdW  Elec       q    Type
REMARK                         _______ _______ _______ _____ _____    ______ ____
ROOT
ATOM      1  C   LIG    1       -0.016   1.352   0.009  0.00  0.00    +0.203 A 
ATOM      2  N   LIG    1        1.210   1.787   0.000  0.00  0.00    -0.236 NA
ATOM      3  C   LIG    1        2.063   0.743  -0.013  0.00  0.00    +0.115 A 
ATOM      4  C   LIG    1        1.332  -0.396  -0.017  0.00  0.00    +0.162 A 
ATOM      5  N   LIG    1        1.715  -1.693  -0.041  0.00  0.00    -0.221 NA
ATOM      6  C   LIG    1        2.888  -2.189  -0.098  0.00  0.00    +0.184 C 
ATOM      7  N   LIG    1        4.049  -1.502  -0.110  0.00  0.00    -0.332 N 
ATOM      8  H   LIG    1        4.807  -1.886   0.356  0.00  0.00    +0.147 HD
ATOM      9  C   LIG    1        4.237  -0.227  -0.774  0.00  0.00    +0.140 C 
ATOM     10  C   LIG    1        3.559   0.897  -0.015  0.00  0.00    +0.183 C 
ATOM     11  N   LIG    1        0.002  -0.004   0.002  0.00  0.00    -0.288 N 
ENDROOT
BRANCH  11  12
ATOM     12  C1* LIG    1       -1.165  -0.889   0.013  0.00  0.00    +0.225 C 
ATOM     13  C2* LIG    1       -1.522  -1.291   1.461  0.00  0.00    +0.088 C 
ATOM     14  C3* LIG    1       -3.067  -1.323   1.471  0.00  0.00    +0.150 C 
ATOM     15  C4* LIG    1       -3.460  -0.936   0.028  0.00  0.00    +0.175 C 
ATOM     16  O4* LIG    1       -2.330  -0.191  -0.477  0.00  0.00    -0.348 OA
BRANCH  14  17
ATOM     17  O3* LIG    1       -3.539  -2.634   1.788  0.00  0.00    -0.389 OA
ATOM     18  H3* LIG    1       -3.269  -2.949   2.661  0.00  0.00    +0.210 HD
ENDBRANCH  14  17
BRANCH  15  19
ATOM     19  C5* LIG    1       -4.718  -0.065   0.034  0.00  0.00    +0.190 C 
BRANCH  19  20
ATOM     20  O5* LIG    1       -5.131   0.184  -1.311  0.00  0.00    -0.392 OA
ATOM     21  H5* LIG    1       -5.925   0.732  -1.384  0.00  0.00    +0.210 HD
ENDBRANCH  19  20
ENDBRANCH  15  19
ENDBRANCH  11  12
BRANCH  10  22
ATOM     22  O   LIG    1        3.898   2.143  -0.627  0.00  0.00    -0.384 OA
ATOM     23  H   LIG    1        4.849   2.316  -0.666  0.00  0.00    +0.210 HD
ENDBRANCH  10  22
TORSDOF 5
