REMARK  Name = ZINC03870315
REMARK                            x       y       z     vdW  Elec       q    Type
REMARK                         _______ _______ _______ _____ _____    ______ ____
ROOT
ATOM      1  C   LIG    1       -0.280   1.899   0.941  0.00  0.00    -0.002 C 
ATOM      2  C   LIG    1       -0.251   0.360   0.944  0.00  0.00    -0.007 C 
ATOM      3  C   LIG    1        0.726  -0.091  -0.147  0.00  0.00    -0.077 C 
ATOM      4  N   LIG    1        0.228   0.369  -1.466  0.00  0.00    +0.384 N 
ATOM      5  H   LIG    1       -0.705  -0.032  -1.622  0.00  0.00    -0.081 HD
ATOM      6  C   LIG    1        0.121   1.843  -1.505  0.00  0.00    -0.057 C 
ATOM      7  C   LIG    1        1.458   2.557  -1.408  0.00  0.00    +0.021 C 
ATOM      8  C   LIG    1        1.944   2.656   0.013  0.00  0.00    -0.045 A 
ATOM      9  C   LIG    1        3.256   3.069   0.217  0.00  0.00    +0.007 A 
ATOM     10  C   LIG    1        3.755   3.216   1.494  0.00  0.00    +0.045 A 
ATOM     11  C   LIG    1        2.943   2.949   2.587  0.00  0.00    +0.117 A 
ATOM     12  C   LIG    1        1.639   2.529   2.384  0.00  0.00    +0.049 A 
ATOM     13  C   LIG    1        1.144   2.377   1.098  0.00  0.00    -0.034 A 
ATOM     14  C   LIG    1       -0.822   2.356  -0.417  0.00  0.00    -0.037 C 
ATOM     15  C   LIG    1       -2.223   1.780  -0.635  0.00  0.00    +0.010 C 
ATOM     16  C   LIG    1       -0.880   3.884  -0.462  0.00  0.00    +0.010 C 
ENDROOT
BRANCH   1  18
ATOM     17  C   LIG    1       -2.529   1.734   2.018  0.00  0.00    +0.005 C 
ATOM     18  C   LIG    1       -1.163   2.422   2.076  0.00  0.00    +0.008 C 
ENDBRANCH   1  18
BRANCH  11  19
ATOM     19  O   LIG    1        3.425   3.099   3.849  0.00  0.00    -0.507 OA
ATOM     20  H   LIG    1        3.836   2.301   4.210  0.00  0.00    +0.292 HD
ENDBRANCH  11  19
BRANCH   4  21
ATOM     21  C   LIG    1        1.127  -0.093  -2.533  0.00  0.00    -0.043 C 
BRANCH  21  22
ATOM     22  C   LIG    1        1.000  -1.613  -2.643  0.00  0.00    +0.052 C 
ATOM     23  C   LIG    1        2.171  -2.458  -2.136  0.00  0.00    +0.035 C 
ATOM     24  C   LIG    1        1.916  -2.328  -3.639  0.00  0.00    +0.035 C 
BRANCH  22  25
ATOM     25  O   LIG    1       -0.318  -2.136  -2.466  0.00  0.00    -0.390 OA
ATOM     26  H   LIG    1       -0.372  -3.099  -2.540  0.00  0.00    +0.210 HD
ENDBRANCH  22  25
ENDBRANCH  21  22
ENDBRANCH   4  21
TORSDOF 5
