REMARK  Name = ZINC03861261
REMARK                            x       y       z     vdW  Elec       q    Type
REMARK                         _______ _______ _______ _____ _____    ______ ____
ROOT
ATOM      1  C   UNK    1       -3.529   3.624   3.213  0.00  0.00    +0.091 C 
ENDROOT
BRANCH   1   5
ATOM      2  C   UNK    1       -3.284  -0.551   4.084  0.00  0.00    +0.000 A 
ATOM      3  C   UNK    1       -4.086  -0.107   3.050  0.00  0.00    +0.000 A 
ATOM      4  C   UNK    1       -4.166   1.244   2.768  0.00  0.00    +0.005 A 
ATOM      5  C   UNK    1       -3.442   2.151   3.520  0.00  0.00    -0.023 A 
ATOM      6  C   UNK    1       -2.636   1.706   4.551  0.00  0.00    +0.005 A 
ATOM      7  C   UNK    1       -2.560   0.355   4.836  0.00  0.00    +0.000 A 
ENDBRANCH   1   5
BRANCH   1   8
ATOM      8  C   UNK    1       -4.938   4.104   3.444  0.00  0.00    -0.023 A 
ATOM      9  C   UNK    1       -5.750   3.450   4.352  0.00  0.00    +0.005 A 
ATOM     10  C   UNK    1       -7.042   3.893   4.568  0.00  0.00    +0.000 A 
ATOM     11  C   UNK    1       -7.524   4.984   3.869  0.00  0.00    +0.000 A 
ATOM     12  C   UNK    1       -6.714   5.634   2.957  0.00  0.00    +0.000 A 
ATOM     13  C   UNK    1       -5.421   5.194   2.745  0.00  0.00    +0.005 A 
ENDBRANCH   1   8
BRANCH   1  14
ATOM     14  C   UNK    1       -2.586   4.381   4.112  0.00  0.00    -0.023 A 
ATOM     15  C   UNK    1       -2.794   4.391   5.479  0.00  0.00    +0.005 A 
ATOM     16  C   UNK    1       -1.926   5.082   6.304  0.00  0.00    +0.000 A 
ATOM     17  C   UNK    1       -0.857   5.770   5.763  0.00  0.00    +0.000 A 
ATOM     18  C   UNK    1       -0.652   5.764   4.396  0.00  0.00    +0.000 A 
ATOM     19  C   UNK    1       -1.516   5.069   3.570  0.00  0.00    +0.005 A 
ENDBRANCH   1  14
BRANCH   1  20
ATOM     20  S   UNK    1       -3.070   3.908   1.480  0.00  0.00    -0.141 S 
BRANCH  20  21
ATOM     21  C   UNK    1       -1.460   3.089   1.313  0.00  0.00    +0.065 C 
BRANCH  21  22
ATOM     22  C   UNK    1       -0.992   3.177  -0.141  0.00  0.00    +0.046 C 
BRANCH  22  23
ATOM     23  N   UNK    1       -1.993   2.527  -1.006  0.00  0.00    +0.387 N 
ATOM     24  H   UNK    1       -2.903   2.983  -0.872  0.00  0.00    -0.089 HD
ATOM     25  H   UNK    1       -2.076   1.541  -0.763  0.00  0.00    -0.089 HD
ATOM     26  H   UNK    1       -1.719   2.613  -1.983  0.00  0.00    -0.089 HD
ENDBRANCH  22  23
BRANCH  22  27
ATOM     27  C   UNK    1        0.345   2.497  -0.281  0.00  0.00    +0.291 C 
ATOM     28  O   UNK    1        0.409   1.373  -0.720  0.00  0.00    -0.253 OA
BRANCH  27  29
ATOM     29  O   UNK    1        1.466   3.141   0.078  0.00  0.00    -0.482 OA
ATOM     30  H   UNK    1        1.417   4.013   0.419  0.00  0.00    +0.295 HD
ENDBRANCH  27  29
ENDBRANCH  22  27
ENDBRANCH  21  22
ENDBRANCH  20  21
ENDBRANCH   1  20
TORSDOF 9
