REMARK  Name = ZINC03782818
REMARK                            x       y       z     vdW  Elec       q    Type
REMARK                         _______ _______ _______ _____ _____    ______ ____
ROOT
ATOM      1  C   LIG    1        2.123  -2.172  -4.446  0.00  0.00    -0.028 A 
ATOM      2  C   LIG    1        3.142  -1.499  -3.795  0.00  0.00    +0.006 A 
ATOM      3  C   LIG    1        4.454  -1.887  -3.974  0.00  0.00    +0.009 A 
ATOM      4  C   LIG    1        4.752  -2.961  -4.812  0.00  0.00    -0.017 A 
ATOM      5  C   LIG    1        3.721  -3.636  -5.465  0.00  0.00    +0.009 A 
ATOM      6  C   LIG    1        2.412  -3.242  -5.274  0.00  0.00    +0.006 A 
ENDROOT
BRANCH   4   7
ATOM      7  C   LIG    1        6.159  -3.383  -5.008  0.00  0.00    -0.007 A 
ATOM      8  C   LIG    1        7.133  -2.443  -5.332  0.00  0.00    +0.009 A 
ATOM      9  C   LIG    1        8.442  -2.841  -5.514  0.00  0.00    +0.001 A 
ATOM     10  C   LIG    1        8.796  -4.173  -5.377  0.00  0.00    +0.001 A 
ATOM     11  C   LIG    1        7.844  -5.118  -5.057  0.00  0.00    +0.012 A 
ATOM     12  C   LIG    1        6.518  -4.734  -4.864  0.00  0.00    +0.028 A 
BRANCH  12  13
ATOM     13  C   LIG    1        5.495  -5.743  -4.515  0.00  0.00    +0.180 A 
ATOM     14  N   LIG    1        4.194  -5.524  -4.313  0.00  0.00    -0.239 N 
ATOM     15  H   LIG    1        3.734  -4.655  -4.369  0.00  0.00    +0.192 HD
ATOM     16  N   LIG    1        3.649  -6.658  -4.031  0.00  0.00    -0.046 NA
ATOM     17  N   LIG    1        4.550  -7.577  -4.047  0.00  0.00    -0.023 NA
ATOM     18  N   LIG    1        5.689  -7.052  -4.345  0.00  0.00    -0.108 NA
ENDBRANCH  12  13
ENDBRANCH   4   7
BRANCH   1  19
ATOM     19  C   LIG    1        0.693  -1.742  -4.246  0.00  0.00    +0.162 C 
BRANCH  19  28
ATOM     20  C   LIG    1        0.376  -1.795  -1.741  0.00  0.00    +0.299 A 
ATOM     21  N   LIG    1        0.286  -0.937  -0.759  0.00  0.00    -0.195 NA
ATOM     22  C   LIG    1        0.387   0.327  -1.250  0.00  0.00    +0.094 A 
ATOM     23  C   LIG    1        0.356   1.591  -0.658  0.00  0.00    +0.030 A 
ATOM     24  C   LIG    1        0.486   2.724  -1.435  0.00  0.00    +0.003 A 
ATOM     25  C   LIG    1        0.647   2.626  -2.804  0.00  0.00    +0.017 A 
ATOM     26  C   LIG    1        0.681   1.373  -3.421  0.00  0.00    +0.084 A 
ATOM     27  C   LIG    1        0.550   0.216  -2.640  0.00  0.00    +0.086 A 
ATOM     28  N   LIG    1        0.546  -1.132  -2.922  0.00  0.00    -0.289 N 
BRANCH  26  29
ATOM     29  C   LIG    1        0.851   1.269  -4.879  0.00  0.00    +0.339 C 
ATOM     30  O   LIG    1        0.362   2.116  -5.614  0.00  0.00    -0.245 OA
BRANCH  29  31
ATOM     31  O   LIG    1        1.482   0.335  -5.356  0.00  0.00    -0.477 OA
ATOM     32  H   LIG    1        1.856  -0.313  -4.793  0.00  0.00    +0.295 HD
ENDBRANCH  29  31
ENDBRANCH  26  29
BRANCH  20  33
ATOM     33  O   LIG    1        0.316  -3.140  -1.606  0.00  0.00    -0.464 OA
BRANCH  33  35
ATOM     34  C   LIG    1        0.089  -5.181  -0.332  0.00  0.00    +0.048 C 
ATOM     35  C   LIG    1        0.133  -3.652  -0.285  0.00  0.00    +0.229 C 
ENDBRANCH  33  35
ENDBRANCH  20  33
ENDBRANCH  19  28
ENDBRANCH   1  19
TORSDOF 8
