REMARK  Name = ZINC03787060
REMARK                            x       y       z     vdW  Elec       q    Type
REMARK                         _______ _______ _______ _____ _____    ______ ____
ROOT
ATOM      1  C   LIG    1       -0.019   1.526   0.010  0.00  0.00    +0.040 C 
ATOM      2  C   LIG    1        0.002  -0.004   0.002  0.00  0.00    +0.135 C 
ATOM      3  C   LIG    1       -1.415  -0.597   0.250  0.00  0.00    +0.215 C 
ATOM      4  N   LIG    1       -1.753  -0.583   1.677  0.00  0.00    -0.263 N 
ATOM      5  C   LIG    1       -0.622  -0.680   2.609  0.00  0.00    +0.229 C 
ATOM      6  C   LIG    1       -1.121  -2.064   2.984  0.00  0.00    +0.142 C 
ATOM      7  C   LIG    1       -2.339  -1.677   2.199  0.00  0.00    +0.221 C 
ATOM      8  O   LIG    1       -3.442  -2.167   2.080  0.00  0.00    -0.275 OA
ATOM      9  S   LIG    1        0.847  -0.681   1.501  0.00  0.00    -0.002 S 
ATOM     10  O   LIG    1        1.249  -2.021   1.251  0.00  0.00    -0.172 OA
ATOM     11  O   LIG    1        1.796   0.264   1.975  0.00  0.00    -0.172 OA
ENDROOT
BRANCH   3  12
ATOM     12  C   LIG    1       -2.431   0.220  -0.505  0.00  0.00    +0.328 C 
ATOM     13  O   LIG    1       -2.726  -0.080  -1.650  0.00  0.00    -0.249 OA
BRANCH  12  14
ATOM     14  O   LIG    1       -2.959   1.180   0.028  0.00  0.00    -0.479 OA
ATOM     15  H   LIG    1       -2.733   1.411   0.908  0.00  0.00    +0.295 HD
ENDBRANCH  12  14
ENDBRANCH   3  12
BRANCH   2  16
ATOM     16  C   LIG    1        0.623  -0.546  -1.287  0.00  0.00    +0.177 C 
BRANCH  16  17
ATOM     17  N   LIG    1        1.949   0.046  -1.477  0.00  0.00    -0.250 N 
ATOM     18  C   LIG    1        3.104  -0.637  -1.657  0.00  0.00    +0.130 A 
ATOM     19  C   LIG    1        4.076   0.295  -1.789  0.00  0.00    +0.156 A 
ATOM     20  N   LIG    1        3.477   1.487  -1.686  0.00  0.00    -0.138 NA
ATOM     21  N   LIG    1        2.216   1.305  -1.507  0.00  0.00    -0.066 NA
ENDBRANCH  16  17
ENDBRANCH   2  16
TORSDOF 4
