REMARK  Name = ZINC03871859
REMARK                            x       y       z     vdW  Elec       q    Type
REMARK                         _______ _______ _______ _____ _____    ______ ____
ROOT
ATOM      1  N   LIG    1       -4.753  -2.805  -2.576  0.00  0.00    -0.308 N 
ATOM      2  C   LIG    1       -5.413  -3.192  -3.811  0.00  0.00    +0.107 C 
ATOM      3  C   LIG    1       -6.932  -3.196  -3.564  0.00  0.00    +0.024 C 
ATOM      4  C   LIG    1       -7.368  -1.790  -3.163  0.00  0.00    +0.037 C 
ATOM      5  C   LIG    1       -7.258  -1.543  -1.678  0.00  0.00    -0.039 A 
ATOM      6  C   LIG    1       -8.182  -0.647  -1.140  0.00  0.00    +0.053 A 
ATOM      7  C   LIG    1       -8.149  -0.309   0.198  0.00  0.00    +0.158 A 
ATOM      8  C   LIG    1       -7.176  -0.861   1.027  0.00  0.00    +0.159 A 
ATOM      9  C   LIG    1       -6.271  -1.762   0.499  0.00  0.00    +0.054 A 
ATOM     10  C   LIG    1       -6.330  -2.119  -0.841  0.00  0.00    -0.023 A 
ATOM     11  C   LIG    1       -5.397  -3.203  -1.321  0.00  0.00    +0.142 C 
ENDROOT
BRANCH   1  12
ATOM     12  C   LIG    1       -3.595  -2.116  -2.584  0.00  0.00    +0.133 C 
ATOM     13  S   LIG    1       -2.874  -1.670  -4.071  0.00  0.00    -0.019 S 
BRANCH  12  14
ATOM     14  N   LIG    1       -3.004  -1.778  -1.420  0.00  0.00    -0.326 N 
ATOM     15  H   LIG    1       -3.413  -2.030  -0.578  0.00  0.00    +0.148 HD
BRANCH  14  16
ATOM     16  C   LIG    1       -1.745  -1.028  -1.429  0.00  0.00    +0.108 C 
BRANCH  16  17
ATOM     17  C   LIG    1       -1.293  -0.775   0.011  0.00  0.00    +0.054 C 
BRANCH  17  24
ATOM     18  C   LIG    1       -0.017   1.378   0.010  0.00  0.00    +0.005 A 
ATOM     19  C   LIG    1        1.171   2.086   0.002  0.00  0.00    +0.020 A 
ATOM     20  C   LIG    1        2.378   1.410  -0.013  0.00  0.00    +0.041 A 
ATOM     21 CL   LIG    1        3.870   2.298  -0.023  0.00  0.00    -0.084 Cl
ATOM     22  C   LIG    1        2.396   0.027  -0.021  0.00  0.00    +0.020 A 
ATOM     23  C   LIG    1        1.208  -0.679  -0.013  0.00  0.00    +0.005 A 
ATOM     24  C   LIG    1        0.002  -0.004   0.002  0.00  0.00    -0.046 A 
ENDBRANCH  17  24
ENDBRANCH  16  17
ENDBRANCH  14  16
ENDBRANCH  12  14
ENDBRANCH   1  12
BRANCH   7  25
ATOM     25  O   LIG    1       -9.064   0.560   0.704  0.00  0.00    -0.503 OA
ATOM     26  H   LIG    1       -9.868   0.137   1.035  0.00  0.00    +0.292 HD
ENDBRANCH   7  25
BRANCH   8  27
ATOM     27  O   LIG    1       -7.117  -0.517   2.341  0.00  0.00    -0.503 OA
ATOM     28  H   LIG    1       -7.647  -1.082   2.920  0.00  0.00    +0.292 HD
ENDBRANCH   8  27
TORSDOF 7
