REMARK  Name = ZINC03870313
REMARK                            x       y       z     vdW  Elec       q    Type
REMARK                         _______ _______ _______ _____ _____    ______ ____
ROOT
ATOM      1  C   LIG    1       -2.813  -2.419  -0.019  0.00  0.00    -0.064 C 
ATOM      2  C   LIG    1       -3.473  -1.925  -1.312  0.00  0.00    -0.010 C 
ATOM      3  C   LIG    1       -4.978  -2.158  -1.205  0.00  0.00    +0.034 C 
ATOM      4  C   LIG    1       -5.266  -3.581  -0.803  0.00  0.00    -0.041 A 
ATOM      5  C   LIG    1       -6.549  -4.068  -1.024  0.00  0.00    +0.004 A 
ATOM      6  C   LIG    1       -6.881  -5.360  -0.674  0.00  0.00    +0.004 A 
ATOM      7  C   LIG    1       -5.931  -6.182  -0.098  0.00  0.00    +0.046 A 
ATOM      8  C   LIG    1       -4.651  -5.702   0.121  0.00  0.00    +0.120 A 
ATOM      9  C   LIG    1       -4.316  -4.397  -0.235  0.00  0.00    -0.004 A 
ATOM     10  C   LIG    1       -2.902  -3.943   0.017  0.00  0.00    +0.024 C 
ENDROOT
BRANCH   1  11
ATOM     11  N   LIG    1       -1.404  -2.004   0.007  0.00  0.00    +0.382 N 
ATOM     12  H   LIG    1       -0.943  -2.429   0.797  0.00  0.00    -0.081 HD
BRANCH  11  13
ATOM     13  C   LIG    1       -0.744  -2.434  -1.234  0.00  0.00    -0.079 C 
BRANCH  13  15
ATOM     14  C   LIG    1        1.441  -2.587  -2.434  0.00  0.00    +0.002 C 
ATOM     15  C   LIG    1        0.754  -2.140  -1.142  0.00  0.00    -0.022 C 
ENDBRANCH  13  15
ENDBRANCH  11  13
BRANCH  11  16
ATOM     16  C   LIG    1       -1.325  -0.542   0.122  0.00  0.00    -0.079 C 
BRANCH  16  17
ATOM     17  C   LIG    1       -1.895  -0.106   1.473  0.00  0.00    -0.022 C 
ATOM     18  C   LIG    1       -1.691   1.400   1.650  0.00  0.00    +0.002 C 
ENDBRANCH  16  17
ENDBRANCH  11  16
ENDBRANCH   1  11
BRANCH   8  19
ATOM     19  O   LIG    1       -3.716  -6.509   0.689  0.00  0.00    -0.506 OA
ATOM     20  H   LIG    1       -3.203  -7.024   0.051  0.00  0.00    +0.292 HD
ENDBRANCH   8  19
TORSDOF 6
