REMARK  Name = ZINC03800706
REMARK                            x       y       z     vdW  Elec       q    Type
REMARK                         _______ _______ _______ _____ _____    ______ ____
ROOT
ATOM      1  C   LIG    1       -2.776  -4.090  -0.245  0.00  0.00    +0.120 C 
ATOM      2  C   LIG    1       -4.189  -4.624  -0.310  0.00  0.00    -0.006 A 
ATOM      3  C   LIG    1       -5.120  -4.678  -1.329  0.00  0.00    +0.008 A 
ATOM      4  C   LIG    1       -6.363  -5.233  -1.102  0.00  0.00    +0.019 A 
ATOM      5  C   LIG    1       -6.678  -5.741   0.160  0.00  0.00    +0.052 A 
ATOM      6  C   LIG    1       -5.732  -5.684   1.186  0.00  0.00    +0.025 A 
ATOM      7  C   LIG    1       -4.496  -5.127   0.947  0.00  0.00    -0.014 A 
ATOM      8  C   LIG    1       -3.282  -4.918   1.822  0.00  0.00    +0.197 C 
ATOM      9  O   LIG    1       -2.182  -4.684   0.924  0.00  0.00    -0.360 OA
ENDROOT
BRANCH   1  10
ATOM     10  C   LIG    1       -2.010  -4.493  -1.478  0.00  0.00    -0.011 A 
ATOM     11  C   LIG    1       -1.979  -3.655  -2.577  0.00  0.00    +0.009 A 
ATOM     12  C   LIG    1       -1.277  -4.023  -3.709  0.00  0.00    +0.039 A 
ATOM     13  C   LIG    1       -0.604  -5.233  -3.742  0.00  0.00    +0.123 A 
ATOM     14  F   LIG    1        0.082  -5.595  -4.848  0.00  0.00    -0.205 F 
ATOM     15  C   LIG    1       -0.636  -6.072  -2.641  0.00  0.00    +0.039 A 
ATOM     16  C   LIG    1       -1.335  -5.699  -1.509  0.00  0.00    +0.009 A 
ENDBRANCH   1  10
BRANCH   5  17
ATOM     17  C   LIG    1       -7.967  -6.318   0.402  0.00  0.00    +0.099 C 
ATOM     18  N   LIG    1       -8.989  -6.775   0.593  0.00  0.00    -0.191 NA
ENDBRANCH   5  17
BRANCH   1  19
ATOM     19  C   LIG    1       -2.794  -2.566  -0.111  0.00  0.00    +0.043 C 
BRANCH  19  20
ATOM     20  C   LIG    1       -1.358  -2.037  -0.122  0.00  0.00    -0.015 C 
BRANCH  20  21
ATOM     21  C   LIG    1       -1.376  -0.512   0.012  0.00  0.00    -0.079 C 
BRANCH  21  23
ATOM     22  C   LIG    1       -0.018   1.465   0.010  0.00  0.00    -0.097 C 
ATOM     23  N   LIG    1        0.002  -0.004   0.002  0.00  0.00    +0.376 N 
ATOM     24  H   LIG    1        0.474  -0.330  -0.828  0.00  0.00    -0.083 HD
ATOM     25  C   LIG    1        0.713  -0.491   1.192  0.00  0.00    -0.097 C 
ENDBRANCH  21  23
ENDBRANCH  20  21
ENDBRANCH  19  20
ENDBRANCH   1  19
TORSDOF 6
