REMARK  Name = ZINC03779247
REMARK                            x       y       z     vdW  Elec       q    Type
REMARK                         _______ _______ _______ _____ _____    ______ ____
ROOT
ATOM      1  C   LIG    1       -2.138   3.208  -0.800  0.00  0.00    -0.024 A 
ATOM      2  C   LIG    1       -1.798   4.022  -1.812  0.00  0.00    +0.087 A 
ATOM      3  N   LIG    1       -1.983   3.383  -3.007  0.00  0.00    -0.360 N 
ATOM      4  C   LIG    1       -2.459   2.107  -2.787  0.00  0.00    +0.047 A 
ATOM      5  C   LIG    1       -2.807   1.059  -3.632  0.00  0.00    +0.030 A 
ATOM      6  C   LIG    1       -3.264  -0.128  -3.105  0.00  0.00    +0.047 A 
ATOM      7  C   LIG    1       -3.382  -0.293  -1.727  0.00  0.00    +0.121 A 
ATOM      8  C   LIG    1       -3.041   0.736  -0.871  0.00  0.00    +0.056 A 
ATOM      9  H   LIG    1       -1.806   3.769  -3.879  0.00  0.00    +0.165 HD
ATOM     10  C   LIG    1       -2.570   1.941  -1.395  0.00  0.00    +0.006 A 
ENDROOT
BRANCH   7  11
ATOM     11  O   LIG    1       -3.835  -1.472  -1.223  0.00  0.00    -0.495 OA
ATOM     12  C   LIG    1       -4.170  -2.494  -2.163  0.00  0.00    +0.277 C 
ENDBRANCH   7  11
BRANCH   1  13
ATOM     13  C   LIG    1       -2.080   3.534   0.670  0.00  0.00    +0.022 C 
BRANCH  13  17
ATOM     14  C   LIG    1       -0.013   1.086   0.008  0.00  0.00    -0.096 C 
ATOM     15  N   LIG    1       -0.715   1.561   1.229  0.00  0.00    +0.380 N 
ATOM     16  H   LIG    1       -1.675   1.195   1.227  0.00  0.00    -0.082 HD
ATOM     17  C   LIG    1       -0.755   3.037   1.251  0.00  0.00    -0.065 C 
ATOM     18  C   LIG    1       -0.653   3.402   2.753  0.00  0.00    -0.017 C 
ATOM     19  C   LIG    1        0.347   2.334   3.268  0.00  0.00    -0.020 C 
ATOM     20  C   LIG    1       -0.015   1.087   2.434  0.00  0.00    -0.079 C 
ENDBRANCH  13  17
ENDBRANCH   1  13
TORSDOF 3
