REMARK  Name = ZINC03831602
REMARK                            x       y       z     vdW  Elec       q    Type
REMARK                         _______ _______ _______ _____ _____    ______ ____
ROOT
ATOM      1  C   LIG    1       -4.924  -4.458  -1.947  0.00  0.00    -0.030 A 
ATOM      2  C   LIG    1       -5.162  -3.341  -2.727  0.00  0.00    +0.006 A 
ATOM      3  C   LIG    1       -5.247  -3.459  -4.099  0.00  0.00    +0.009 A 
ATOM      4  C   LIG    1       -5.092  -4.708  -4.699  0.00  0.00    -0.017 A 
ATOM      5  C   LIG    1       -4.852  -5.831  -3.908  0.00  0.00    +0.009 A 
ATOM      6  C   LIG    1       -4.764  -5.699  -2.537  0.00  0.00    +0.006 A 
ENDROOT
BRANCH   4   7
ATOM      7  C   LIG    1       -5.183  -4.842  -6.173  0.00  0.00    -0.007 A 
ATOM      8  C   LIG    1       -6.257  -4.286  -6.862  0.00  0.00    +0.009 A 
ATOM      9  C   LIG    1       -6.338  -4.413  -8.234  0.00  0.00    +0.001 A 
ATOM     10  C   LIG    1       -5.355  -5.092  -8.934  0.00  0.00    +0.001 A 
ATOM     11  C   LIG    1       -4.283  -5.650  -8.268  0.00  0.00    +0.012 A 
ATOM     12  C   LIG    1       -4.182  -5.527  -6.883  0.00  0.00    +0.028 A 
BRANCH  12  13
ATOM     13  C   LIG    1       -3.033  -6.118  -6.165  0.00  0.00    +0.180 A 
ATOM     14  N   LIG    1       -2.812  -6.089  -4.849  0.00  0.00    -0.239 N 
ATOM     15  H   LIG    1       -3.388  -5.667  -4.172  0.00  0.00    +0.192 HD
ATOM     16  N   LIG    1       -1.707  -6.714  -4.628  0.00  0.00    -0.046 NA
ATOM     17  N   LIG    1       -1.225  -7.134  -5.745  0.00  0.00    -0.023 NA
ATOM     18  N   LIG    1       -2.015  -6.791  -6.705  0.00  0.00    -0.108 NA
ENDBRANCH  12  13
ENDBRANCH   4   7
BRANCH   1  19
ATOM     19  C   LIG    1       -4.832  -4.322  -0.449  0.00  0.00    +0.143 C 
BRANCH  19  21
ATOM     20  C   LIG    1       -3.143  -2.669   0.144  0.00  0.00    +0.217 C 
ATOM     21  N   LIG    1       -3.463  -3.960  -0.075  0.00  0.00    -0.283 N 
ATOM     22  O   LIG    1       -1.991  -2.358   0.361  0.00  0.00    -0.276 OA
BRANCH  20  23
ATOM     23  C   LIG    1       -4.217  -1.612   0.119  0.00  0.00    +0.096 C 
BRANCH  23  24
ATOM     24  C   LIG    1       -3.616  -0.266   0.527  0.00  0.00    +0.009 C 
BRANCH  24  26
ATOM     25  C   LIG    1       -4.106   2.154   0.910  0.00  0.00    +0.004 C 
ATOM     26  C   LIG    1       -4.707   0.808   0.501  0.00  0.00    -0.003 C 
ENDBRANCH  24  26
ENDBRANCH  23  24
ENDBRANCH  20  23
BRANCH  21  27
ATOM     27  C   LIG    1       -2.441  -5.001   0.062  0.00  0.00    +0.187 C 
BRANCH  27  28
ATOM     28  C   LIG    1       -1.795  -4.904   1.446  0.00  0.00    +0.014 C 
ATOM     29  C   LIG    1       -0.662  -5.926   1.553  0.00  0.00    +0.009 C 
ATOM     30  C   LIG    1       -2.846  -5.193   2.520  0.00  0.00    +0.009 C 
ENDBRANCH  27  28
BRANCH  27  31
ATOM     31  C   LIG    1       -1.387  -4.813  -0.999  0.00  0.00    +0.326 C 
ATOM     32  O   LIG    1       -1.318  -3.760  -1.609  0.00  0.00    -0.249 OA
BRANCH  31  33
ATOM     33  O   LIG    1       -0.604  -5.714  -1.246  0.00  0.00    -0.479 OA
ATOM     34  H   LIG    1       -0.657  -6.523  -0.777  0.00  0.00    +0.295 HD
ENDBRANCH  31  33
ENDBRANCH  27  31
ENDBRANCH  21  27
ENDBRANCH  19  21
ENDBRANCH   1  19
TORSDOF 11
