REMARK  Name = ZINC03871119
REMARK                            x       y       z     vdW  Elec       q    Type
REMARK                         _______ _______ _______ _____ _____    ______ ____
ROOT
ATOM      1  C   LIG    1        1.805   2.468  -2.204  0.00  0.00    +0.226 C 
ATOM      2  C   LIG    1        2.033   1.260  -1.274  0.00  0.00    +0.088 C 
ATOM      3  C   LIG    1        1.259   1.624   0.016  0.00  0.00    +0.150 C 
ATOM      4  C   LIG    1        1.145   3.166  -0.096  0.00  0.00    +0.175 C 
ATOM      5  O   LIG    1        0.944   3.386  -1.510  0.00  0.00    -0.348 OA
ENDROOT
BRANCH   1  15
ATOM      6  C   LIG    1        3.417   4.286  -1.873  0.00  0.00    +0.137 A 
ATOM      7  C   LIG    1        4.600   4.880  -2.146  0.00  0.00    +0.204 A 
ATOM      8  F   LIG    1        4.945   6.032  -1.531  0.00  0.00    -0.198 F 
ATOM      9  C   LIG    1        5.470   4.279  -3.090  0.00  0.00    +0.289 A 
ATOM     10  N   LIG    1        5.104   3.129  -3.690  0.00  0.00    -0.273 N 
ATOM     11  C   LIG    1        3.922   2.557  -3.397  0.00  0.00    +0.331 A 
ATOM     12  O   LIG    1        3.605   1.520  -3.947  0.00  0.00    -0.246 OA
ATOM     13  H   LIG    1        5.713   2.700  -4.357  0.00  0.00    +0.174 HD
ATOM     14  O   LIG    1        6.540   4.798  -3.356  0.00  0.00    -0.265 OA
ATOM     15  N   LIG    1        3.085   3.115  -2.503  0.00  0.00    -0.271 N 
ENDBRANCH   1  15
BRANCH   3  16
ATOM     16  O   LIG    1       -0.034   1.016   0.024  0.00  0.00    -0.389 OA
ATOM     17  H   LIG    1       -0.015   0.050   0.048  0.00  0.00    +0.210 HD
ENDBRANCH   3  16
BRANCH   4  18
ATOM     18  C   LIG    1       -0.053   3.677   0.706  0.00  0.00    +0.206 C 
BRANCH  18  19
ATOM     19  O   LIG    1       -0.068   5.106   0.681  0.00  0.00    -0.284 OA
BRANCH  19  20
ATOM     20  P   LIG    1       -1.194   5.984   1.425  0.00  0.00    +0.472 P 
ATOM     21  O   LIG    1       -2.535   5.560   0.964  0.00  0.00    -0.228 OA
BRANCH  20  22
ATOM     22  O   LIG    1       -0.975   7.541   1.079  0.00  0.00    -0.303 OA
ATOM     23  H   LIG    1       -1.044   7.672   0.121  0.00  0.00    +0.222 HD
ENDBRANCH  20  22
BRANCH  20  24
ATOM     24  O   LIG    1       -1.080   5.766   3.016  0.00  0.00    -0.303 OA
ATOM     25  H   LIG    1       -1.212   4.828   3.225  0.00  0.00    +0.222 HD
ENDBRANCH  20  24
ENDBRANCH  19  20
ENDBRANCH  18  19
ENDBRANCH   4  18
TORSDOF 7
