REMARK  Name = ZINC03666293
REMARK                            x       y       z     vdW  Elec       q    Type
REMARK                         _______ _______ _______ _____ _____    ______ ____
ROOT
ATOM      1  N   LIG    1        0.002  -0.004   0.002  0.00  0.00    -0.244 N 
ATOM      2  C   LIG    1       -1.256  -0.741   0.121  0.00  0.00    +0.198 C 
ATOM      3  N   LIG    1       -1.043  -2.001   0.842  0.00  0.00    -0.321 N 
ATOM      4  H   LIG    1       -1.669  -2.293   1.522  0.00  0.00    +0.148 HD
ATOM      5  C   LIG    1        0.074  -2.769   0.530  0.00  0.00    +0.041 A 
ATOM      6  C   LIG    1        0.076  -4.146   0.677  0.00  0.00    +0.024 A 
ATOM      7  C   LIG    1        1.213  -4.865   0.365  0.00  0.00    +0.002 A 
ATOM      8  C   LIG    1        2.351  -4.220  -0.093  0.00  0.00    +0.001 A 
ATOM      9  C   LIG    1        2.365  -2.850  -0.248  0.00  0.00    +0.015 A 
ATOM     10  C   LIG    1        1.223  -2.112   0.058  0.00  0.00    +0.058 A 
ATOM     11  C   LIG    1        1.179  -0.650  -0.121  0.00  0.00    +0.254 C 
ATOM     12  O   LIG    1        2.195  -0.030  -0.372  0.00  0.00    -0.270 OA
ENDROOT
BRANCH   1  16
ATOM     13  C   LIG    1       -0.054   4.161   0.025  0.00  0.00    -0.048 A 
ATOM     14  C   LIG    1       -0.573   3.458   1.097  0.00  0.00    +0.005 A 
ATOM     15  C   LIG    1       -0.557   2.077   1.092  0.00  0.00    +0.024 A 
ATOM     16  C   LIG    1       -0.017   1.394   0.010  0.00  0.00    +0.039 A 
ATOM     17  C   LIG    1        0.509   2.103  -1.062  0.00  0.00    +0.024 A 
ATOM     18  C   LIG    1        0.485   3.484  -1.054  0.00  0.00    +0.005 A 
BRANCH  13  20
ATOM     19  C   LIG    1        1.215   6.191   0.674  0.00  0.00    +0.009 C 
ATOM     20  C   LIG    1       -0.073   5.668   0.034  0.00  0.00    +0.032 C 
ENDBRANCH  13  20
ENDBRANCH   1  16
BRANCH   2  21
ATOM     21  C   LIG    1       -1.793  -1.038  -1.255  0.00  0.00    -0.009 A 
ATOM     22  C   LIG    1       -1.529  -0.172  -2.301  0.00  0.00    +0.010 A 
ATOM     23  C   LIG    1       -2.015  -0.445  -3.565  0.00  0.00    +0.046 A 
ATOM     24  C   LIG    1       -2.778  -1.583  -3.782  0.00  0.00    +0.121 A 
ATOM     25  C   LIG    1       -3.046  -2.447  -2.731  0.00  0.00    +0.046 A 
ATOM     26  C   LIG    1       -2.553  -2.172  -1.470  0.00  0.00    +0.010 A 
BRANCH  24  27
ATOM     27  O   LIG    1       -3.263  -1.850  -5.024  0.00  0.00    -0.492 OA
BRANCH  27  28
ATOM     28  C   LIG    1       -2.947  -0.916  -6.058  0.00  0.00    +0.232 C 
BRANCH  28  29
ATOM     29  C   LIG    1       -3.574  -1.382  -7.374  0.00  0.00    +0.020 C 
ATOM     30  C   LIG    1       -3.134  -0.451  -8.506  0.00  0.00    +0.010 C 
ATOM     31  C   LIG    1       -5.099  -1.350  -7.252  0.00  0.00    +0.010 C 
ENDBRANCH  28  29
ENDBRANCH  27  28
ENDBRANCH  24  27
ENDBRANCH   2  21
TORSDOF 6
