REMARK  Name = ZINC03812304
REMARK                            x       y       z     vdW  Elec       q    Type
REMARK                         _______ _______ _______ _____ _____    ______ ____
ROOT
ATOM      1  C   LIG    1        5.797  -1.060  -4.739  0.00  0.00    +0.165 C 
ATOM      2  C   LIG    1        6.426  -1.177  -6.143  0.00  0.00    +0.033 C 
ATOM      3  C   LIG    1        5.193  -1.128  -7.084  0.00  0.00    +0.021 C 
ATOM      4  C   LIG    1        4.268  -0.140  -6.332  0.00  0.00    +0.112 C 
ATOM      5  N   LIG    1        4.474  -0.441  -4.904  0.00  0.00    -0.256 N 
ATOM      6  C   LIG    1        3.597  -0.187  -3.912  0.00  0.00    +0.404 C 
ATOM      7  O   LIG    1        3.874  -0.480  -2.766  0.00  0.00    -0.226 OA
ENDROOT
BRANCH   1  13
ATOM      8  C   LIG    1        8.685   0.014  -2.392  0.00  0.00    +0.132 C 
ATOM      9  C   LIG    1        9.761  -0.991  -1.929  0.00  0.00    +0.029 C 
ATOM     10  C   LIG    1        9.064  -2.363  -2.122  0.00  0.00    +0.021 C 
ATOM     11  C   LIG    1        8.221  -2.108  -3.396  0.00  0.00    +0.108 C 
ATOM     12  N   LIG    1        7.755  -0.715  -3.267  0.00  0.00    -0.292 N 
ATOM     13  C   LIG    1        6.661  -0.195  -3.858  0.00  0.00    +0.237 C 
ATOM     14  O   LIG    1        6.372   0.970  -3.681  0.00  0.00    -0.274 OA
BRANCH   8  15
ATOM     15  C   LIG    1        9.337   1.161  -3.166  0.00  0.00    +0.270 C 
BRANCH  15  17
ATOM     16  C   LIG    1       10.454   3.225  -2.681  0.00  0.00    +0.197 C 
ATOM     17  O   LIG    1       10.239   1.863  -2.308  0.00  0.00    -0.353 OA
ENDBRANCH  15  17
BRANCH  15  18
ATOM     18  O   LIG    1       10.056   0.633  -4.282  0.00  0.00    -0.353 OA
ATOM     19  C   LIG    1       10.440   1.617  -5.245  0.00  0.00    +0.197 C 
ENDBRANCH  15  18
ENDBRANCH   8  15
ENDBRANCH   1  13
BRANCH   6  20
ATOM     20  O   LIG    1        2.413   0.391  -4.192  0.00  0.00    -0.445 OA
BRANCH  20  21
ATOM     21  C   LIG    1        1.518   0.635  -3.075  0.00  0.00    +0.269 C 
BRANCH  21  22
ATOM     22  C   LIG    1        0.253   1.282  -3.578  0.00  0.00    -0.010 A 
ATOM     23  C   LIG    1       -0.817   0.499  -3.965  0.00  0.00    +0.007 A 
ATOM     24  C   LIG    1       -1.976   1.093  -4.430  0.00  0.00    +0.000 A 
ATOM     25  C   LIG    1       -2.067   2.470  -4.499  0.00  0.00    +0.000 A 
ATOM     26  C   LIG    1       -0.996   3.254  -4.111  0.00  0.00    +0.000 A 
ATOM     27  C   LIG    1        0.164   2.660  -3.650  0.00  0.00    +0.007 A 
ENDBRANCH  21  22
ENDBRANCH  20  21
ENDBRANCH   6  20
TORSDOF 7
