REMARK  Name = ZINC03783566
REMARK                            x       y       z     vdW  Elec       q    Type
REMARK                         _______ _______ _______ _____ _____    ______ ____
ROOT
ATOM      1  C   LIG    1       -7.120   7.677   1.687  0.00  0.00    +0.189 C 
ATOM      2  O   LIG    1       -6.741   8.598   0.650  0.00  0.00    -0.344 OA
ATOM      3  C   LIG    1       -5.596   7.985   0.011  0.00  0.00    +0.195 C 
ATOM      4  C   LIG    1       -5.969   6.483   0.070  0.00  0.00    +0.157 C 
ATOM      5  O   LIG    1       -6.659   6.364   1.331  0.00  0.00    -0.341 OA
ENDROOT
BRANCH   1   6
ATOM      6  C   LIG    1       -8.643   7.662   1.829  0.00  0.00    +0.071 C 
BRANCH   6   7
ATOM      7  C   LIG    1       -9.276   7.243   0.501  0.00  0.00    +0.040 C 
BRANCH   7  14
ATOM      8  C   LIG    1      -11.422   6.074   1.041  0.00  0.00    +0.005 A 
ATOM      9  C   LIG    1      -12.797   6.061   1.175  0.00  0.00    +0.020 A 
ATOM     10  C   LIG    1      -13.529   7.202   0.897  0.00  0.00    +0.041 A 
ATOM     11 CL   LIG    1      -15.258   7.185   1.058  0.00  0.00    -0.084 Cl
ATOM     12  C   LIG    1      -12.883   8.356   0.492  0.00  0.00    +0.020 A 
ATOM     13  C   LIG    1      -11.507   8.369   0.364  0.00  0.00    +0.005 A 
ATOM     14  C   LIG    1      -10.776   7.229   0.641  0.00  0.00    -0.047 A 
ENDBRANCH   7  14
ENDBRANCH   6   7
ENDBRANCH   1   6
BRANCH   1  15
ATOM     15  C   LIG    1       -6.484   8.103   3.011  0.00  0.00    +0.187 C 
BRANCH  15  16
ATOM     16  N   LIG    1       -5.026   8.123   2.869  0.00  0.00    -0.332 N 
ATOM     17  C   LIG    1       -4.263   9.188   2.473  0.00  0.00    +0.107 A 
ATOM     18  C   LIG    1       -2.982   8.774   2.479  0.00  0.00    +0.130 A 
ATOM     19  N   LIG    1       -2.963   7.491   2.869  0.00  0.00    -0.244 NA
ATOM     20  C   LIG    1       -4.183   7.096   3.110  0.00  0.00    +0.199 A 
ENDBRANCH  15  16
ENDBRANCH   1  15
BRANCH   4  21
ATOM     21  C   LIG    1       -4.712   5.612   0.058  0.00  0.00    +0.108 C 
BRANCH  21  22
ATOM     22  S   LIG    1       -5.188   3.861   0.051  0.00  0.00    -0.123 S 
BRANCH  22  23
ATOM     23  C   LIG    1       -3.650   3.001   0.037  0.00  0.00    +0.008 A 
ATOM     24  C   LIG    1       -3.631   1.612   0.029  0.00  0.00    +0.016 A 
ATOM     25  C   LIG    1       -2.426   0.939   0.019  0.00  0.00    +0.024 A 
ATOM     26  C   LIG    1       -1.233   1.649   0.017  0.00  0.00    +0.025 A 
ATOM     27  C   LIG    1       -1.252   3.038   0.030  0.00  0.00    +0.024 A 
ATOM     28  C   LIG    1       -2.457   3.712   0.035  0.00  0.00    +0.016 A 
BRANCH  26  29
ATOM     29  N   LIG    1       -0.011   0.966   0.007  0.00  0.00    -0.358 N 
ATOM     30  H   LIG    1        0.822   1.462   0.002  0.00  0.00    +0.142 HD
ATOM     31  H   LIG    1        0.002  -0.004   0.002  0.00  0.00    +0.142 HD
ENDBRANCH  26  29
ENDBRANCH  22  23
ENDBRANCH  21  22
ENDBRANCH   4  21
TORSDOF 9
