REMARK  Name = ZINC03774999
REMARK                            x       y       z     vdW  Elec       q    Type
REMARK                         _______ _______ _______ _____ _____    ______ ____
ROOT
ATOM      1  C   LIG    1        3.170   6.494  -5.988  0.00  0.00    +0.033 C 
ENDROOT
BRANCH   1   2
ATOM      2  C   LIG    1        3.622   5.381  -5.041  0.00  0.00    +0.048 C 
ATOM      3  C   LIG    1        5.161   5.217  -5.091  0.00  0.00    +0.016 C 
ATOM      4  C   LIG    1        5.476   4.556  -3.722  0.00  0.00    +0.001 C 
ATOM      5  C   LIG    1        4.505   5.241  -2.738  0.00  0.00    +0.001 C 
ATOM      6  C   LIG    1        3.327   5.766  -3.576  0.00  0.00    +0.016 C 
BRANCH   2   7
ATOM      7  C   LIG    1        2.942   4.082  -5.392  0.00  0.00    +0.219 C 
ATOM      8  N   LIG    1        3.192   3.489  -6.576  0.00  0.00    -0.312 N 
ATOM      9  H   LIG    1        3.753   3.933  -7.232  0.00  0.00    +0.149 HD
ATOM     10  O   LIG    1        2.168   3.572  -4.610  0.00  0.00    -0.275 OA
BRANCH   8  11
ATOM     11  C   LIG    1        2.618   2.174  -6.872  0.00  0.00    +0.073 C 
ATOM     12  C   LIG    1        3.487   1.461  -7.910  0.00  0.00    +0.023 C 
ATOM     13  C   LIG    1        3.541   2.295  -9.191  0.00  0.00    +0.016 C 
ATOM     14  C   LIG    1        2.125   2.470  -9.745  0.00  0.00    +0.098 C 
ATOM     15  C   LIG    1        1.256   3.183  -8.708  0.00  0.00    +0.016 C 
ATOM     16  C   LIG    1        1.203   2.349  -7.426  0.00  0.00    +0.023 C 
BRANCH  14  17
ATOM     17  C   LIG    1        2.177   3.291 -11.008  0.00  0.00    +0.308 C 
ATOM     18  O   LIG    1        3.238   3.696 -11.422  0.00  0.00    -0.251 OA
BRANCH  17  19
ATOM     19  O   LIG    1        1.046   3.574 -11.672  0.00  0.00    -0.480 OA
ATOM     20  H   LIG    1        0.223   3.260 -11.351  0.00  0.00    +0.295 HD
ENDBRANCH  17  19
ENDBRANCH  14  17
ENDBRANCH   8  11
ENDBRANCH   2   7
ENDBRANCH   1   2
BRANCH   1  21
ATOM     21  C   LIG    1        1.642   6.572  -5.993  0.00  0.00    +0.125 C 
BRANCH  21  22
ATOM     22  C   LIG    1        1.190   7.500  -7.090  0.00  0.00    +0.318 C 
ATOM     23  O   LIG    1        2.006   8.044  -7.796  0.00  0.00    -0.250 OA
BRANCH  22  24
ATOM     24  O   LIG    1       -0.120   7.723  -7.283  0.00  0.00    -0.426 OA
BRANCH  24  25
ATOM     25  C   LIG    1       -0.465   8.485  -8.355  0.00  0.00    +0.132 A 
ATOM     26  C   LIG    1       -0.871   9.799  -8.173  0.00  0.00    +0.046 A 
ATOM     27  C   LIG    1       -1.219  10.568  -9.264  0.00  0.00    +0.007 A 
ATOM     28  C   LIG    1       -1.166  10.034 -10.541  0.00  0.00    -0.044 A 
ATOM     29  C   LIG    1       -0.763   8.724 -10.725  0.00  0.00    -0.041 A 
ATOM     30  C   LIG    1       -0.789   8.383 -12.200  0.00  0.00    +0.036 C 
ATOM     31  C   LIG    1       -0.829   9.743 -12.928  0.00  0.00    +0.009 C 
ATOM     32  C   LIG    1       -1.492  10.661 -11.880  0.00  0.00    +0.036 C 
ATOM     33  C   LIG    1       -0.407   7.952  -9.633  0.00  0.00    +0.050 A 
ENDBRANCH  24  25
ENDBRANCH  22  24
ENDBRANCH  21  22
BRANCH  21  34
ATOM     34  C   LIG    1        1.155   7.102  -4.643  0.00  0.00    +0.174 C 
BRANCH  34  35
ATOM     35  O   LIG    1       -0.273   7.166  -4.644  0.00  0.00    -0.377 OA
BRANCH  35  36
ATOM     36  C   LIG    1       -0.833   7.651  -3.422  0.00  0.00    +0.188 C 
BRANCH  36  37
ATOM     37  C   LIG    1       -2.359   7.677  -3.536  0.00  0.00    +0.187 C 
BRANCH  37  39
ATOM     38  C   LIG    1       -4.271   6.254  -3.788  0.00  0.00    +0.194 C 
ATOM     39  O   LIG    1       -2.849   6.342  -3.673  0.00  0.00    -0.381 OA
ENDBRANCH  37  39
ENDBRANCH  36  37
ENDBRANCH  35  36
ENDBRANCH  34  35
ENDBRANCH  21  34
ENDBRANCH   1  21
TORSDOF 14
