REMARK  Name = ZINC03777854
REMARK                            x       y       z     vdW  Elec       q    Type
REMARK                         _______ _______ _______ _____ _____    ______ ____
ROOT
ATOM      1  N   LIG    1        1.588   3.152   0.004  0.00  0.00    -0.276 N 
ATOM      2  C   LIG    1        1.313   1.793  -0.001  0.00  0.00    +0.169 A 
ATOM      3  C   LIG    1       -0.017   1.379   0.010  0.00  0.00    +0.152 A 
ATOM      4  N   LIG    1        0.002  -0.004   0.002  0.00  0.00    -0.322 N 
ATOM      5  C   LIG    1       -1.161  -0.894   0.008  0.00  0.00    +0.151 C 
ATOM      6  C   LIG    1        1.315  -0.379  -0.013  0.00  0.00    +0.136 A 
ATOM      7  C   LIG    1       -1.038   2.350   0.030  0.00  0.00    +0.282 A 
ATOM      8  N   LIG    1       -0.706   3.657   0.028  0.00  0.00    -0.259 N 
ATOM      9  O   LIG    1       -2.209   2.012   0.044  0.00  0.00    -0.265 OA
ATOM     10  N   LIG    1        2.076   0.703  -0.014  0.00  0.00    -0.210 NA
ATOM     11  C   LIG    1        0.581   4.045   0.018  0.00  0.00    +0.334 A 
ATOM     12  O   LIG    1        0.842   5.232   0.022  0.00  0.00    -0.246 OA
ENDROOT
BRANCH   6  13
ATOM     13  C   LIG    1        1.803  -1.760  -0.024  0.00  0.00    +0.047 C 
ATOM     14  C   LIG    1        3.129  -2.006  -0.038  0.00  0.00    +0.011 C 
BRANCH  14  15
ATOM     15  C   LIG    1        3.619  -3.393  -0.050  0.00  0.00    -0.021 A 
ATOM     16  C   LIG    1        2.711  -4.458  -0.046  0.00  0.00    +0.012 A 
ATOM     17  C   LIG    1        3.173  -5.756  -0.057  0.00  0.00    +0.050 A 
ATOM     18  C   LIG    1        4.538  -6.011  -0.072  0.00  0.00    +0.162 A 
ATOM     19  C   LIG    1        5.448  -4.956  -0.076  0.00  0.00    +0.162 A 
ATOM     20  C   LIG    1        4.994  -3.651  -0.070  0.00  0.00    +0.057 A 
BRANCH  18  21
ATOM     21  O   LIG    1        4.987  -7.293  -0.083  0.00  0.00    -0.491 OA
ATOM     22  C   LIG    1        4.000  -8.327  -0.079  0.00  0.00    +0.277 C 
ENDBRANCH  18  21
BRANCH  19  23
ATOM     23  O   LIG    1        6.784  -5.210  -0.091  0.00  0.00    -0.491 OA
ATOM     24  C   LIG    1        7.659  -4.081  -0.094  0.00  0.00    +0.277 C 
ENDBRANCH  19  23
ENDBRANCH  14  15
ENDBRANCH   6  13
BRANCH   1  25
ATOM     25  C   LIG    1        2.978   3.617  -0.007  0.00  0.00    +0.128 C 
BRANCH  25  27
ATOM     26  C   LIG    1        4.898   4.272  -1.466  0.00  0.00    +0.005 C 
ATOM     27  C   LIG    1        3.447   3.787  -1.454  0.00  0.00    +0.018 C 
ENDBRANCH  25  27
ENDBRANCH   1  25
BRANCH   8  28
ATOM     28  C   LIG    1       -1.764   4.670   0.044  0.00  0.00    +0.130 C 
BRANCH  28  29
ATOM     29  C   LIG    1       -2.146   5.031  -1.392  0.00  0.00    +0.018 C 
ATOM     30  C   LIG    1       -3.251   6.089  -1.376  0.00  0.00    +0.005 C 
ENDBRANCH  28  29
ENDBRANCH   8  28
TORSDOF 8
