REMARK  Name = ZINC03806262
REMARK                            x       y       z     vdW  Elec       q    Type
REMARK                         _______ _______ _______ _____ _____    ______ ____
ROOT
ATOM      1  C   LIG    1       -0.016   1.352   0.009  0.00  0.00    +0.177 A 
ATOM      2  N   LIG    1        1.210   1.787   0.000  0.00  0.00    -0.346 N 
ATOM      3  H   LIG    1        1.471   2.721   0.002  0.00  0.00    +0.167 HD
ATOM      4  C   LIG    1        2.063   0.743  -0.013  0.00  0.00    +0.090 A 
ATOM      5  C   LIG    1        1.332  -0.396  -0.017  0.00  0.00    +0.160 A 
ATOM      6  N   LIG    1        1.715  -1.693  -0.041  0.00  0.00    -0.221 NA
ATOM      7  C   LIG    1        2.888  -2.189  -0.098  0.00  0.00    +0.184 C 
ATOM      8  N   LIG    1        4.049  -1.502  -0.110  0.00  0.00    -0.332 N 
ATOM      9  H   LIG    1        4.807  -1.886   0.356  0.00  0.00    +0.147 HD
ATOM     10  C   LIG    1        4.237  -0.227  -0.774  0.00  0.00    +0.140 C 
ATOM     11  C   LIG    1        3.559   0.897  -0.015  0.00  0.00    +0.181 C 
ATOM     12  N   LIG    1        0.002  -0.004   0.002  0.00  0.00    -0.290 N 
ENDROOT
BRANCH  12  13
ATOM     13  C1* LIG    1       -1.165  -0.889   0.013  0.00  0.00    +0.225 C 
ATOM     14  C2* LIG    1       -1.522  -1.291   1.461  0.00  0.00    +0.088 C 
ATOM     15  C3* LIG    1       -3.067  -1.323   1.471  0.00  0.00    +0.150 C 
ATOM     16  C4* LIG    1       -3.460  -0.936   0.028  0.00  0.00    +0.175 C 
ATOM     17  O4* LIG    1       -2.330  -0.191  -0.477  0.00  0.00    -0.348 OA
BRANCH  15  18
ATOM     18  O3* LIG    1       -3.539  -2.634   1.788  0.00  0.00    -0.389 OA
ATOM     19  H3* LIG    1       -3.269  -2.949   2.661  0.00  0.00    +0.210 HD
ENDBRANCH  15  18
BRANCH  16  20
ATOM     20  C5* LIG    1       -4.718  -0.065   0.034  0.00  0.00    +0.190 C 
BRANCH  20  21
ATOM     21  O5* LIG    1       -5.131   0.184  -1.311  0.00  0.00    -0.392 OA
ATOM     22  H5* LIG    1       -5.925   0.732  -1.384  0.00  0.00    +0.210 HD
ENDBRANCH  20  21
ENDBRANCH  16  20
ENDBRANCH  12  13
BRANCH  11  23
ATOM     23  O   LIG    1        3.898   2.143  -0.627  0.00  0.00    -0.384 OA
ATOM     24  H   LIG    1        4.849   2.316  -0.666  0.00  0.00    +0.210 HD
ENDBRANCH  11  23
TORSDOF 5
