REMARK  Name = ZINC03809416
REMARK                            x       y       z     vdW  Elec       q    Type
REMARK                         _______ _______ _______ _____ _____    ______ ____
ROOT
ATOM      1  C   LIG    1       -0.018   1.461   0.010  0.00  0.00    +0.151 C 
ATOM      2  N   LIG    1        0.002  -0.004   0.002  0.00  0.00    -0.322 N 
ATOM      3  C   LIG    1        0.009  -0.813  -1.098  0.00  0.00    +0.136 A 
ATOM      4  N   LIG    1        0.027  -2.076  -0.709  0.00  0.00    -0.210 NA
ATOM      5  C   LIG    1        0.034  -2.140   0.621  0.00  0.00    +0.168 A 
ATOM      6  N   LIG    1        0.051  -3.189   1.527  0.00  0.00    -0.280 N 
ATOM      7  C   LIG    1        0.068  -4.572   1.045  0.00  0.00    +0.155 C 
ATOM      8  C   LIG    1        0.068  -2.938   2.850  0.00  0.00    +0.333 A 
ATOM      9  O   LIG    1        0.087  -3.871   3.629  0.00  0.00    -0.246 OA
ATOM     10  N   LIG    1        0.055  -1.683   3.331  0.00  0.00    -0.262 N 
ATOM     11  C   LIG    1        0.066  -1.467   4.780  0.00  0.00    +0.157 C 
ATOM     12  C   LIG    1        0.033  -0.620   2.501  0.00  0.00    +0.282 A 
ATOM     13  O   LIG    1        0.022   0.512   2.950  0.00  0.00    -0.265 OA
ATOM     14  C   LIG    1        0.024  -0.835   1.107  0.00  0.00    +0.152 A 
ENDROOT
BRANCH   3  15
ATOM     15  C   LIG    1       -0.004  -0.353  -2.489  0.00  0.00    +0.047 C 
ATOM     16  C   LIG    1        0.004  -1.250  -3.495  0.00  0.00    +0.011 C 
BRANCH  16  17
ATOM     17  C   LIG    1       -0.008  -0.788  -4.893  0.00  0.00    -0.024 A 
ATOM     18  C   LIG    1       -0.023   0.580  -5.181  0.00  0.00    +0.008 A 
ATOM     19  C   LIG    1       -0.035   1.006  -6.492  0.00  0.00    +0.002 A 
ATOM     20  C   LIG    1       -0.032   0.082  -7.523  0.00  0.00    +0.020 A 
ATOM     21  C   LIG    1       -0.018  -1.275  -7.247  0.00  0.00    +0.042 A 
ATOM     22 CL   LIG    1       -0.015  -2.424  -8.548  0.00  0.00    -0.084 Cl
ATOM     23  C   LIG    1        0.000  -1.716  -5.939  0.00  0.00    +0.028 A 
ENDBRANCH  16  17
ENDBRANCH   3  15
TORSDOF 2
