REMARK  Name = ZINC03782486
REMARK                            x       y       z     vdW  Elec       q    Type
REMARK                         _______ _______ _______ _____ _____    ______ ____
ROOT
ATOM      1  C   LIG    1       -1.252   0.052   0.294  0.00  0.00    +0.066 C 
ATOM      2  C   LIG    1       -1.513   1.325  -0.468  0.00  0.00    -0.037 A 
ATOM      3  C   LIG    1       -0.730   2.432  -0.165  0.00  0.00    +0.007 A 
ATOM      4  C   LIG    1       -0.922   3.629  -0.822  0.00  0.00    +0.038 A 
ATOM      5  C   LIG    1       -1.905   3.730  -1.793  0.00  0.00    +0.124 A 
ATOM      6  F   LIG    1       -2.103   4.899  -2.439  0.00  0.00    -0.205 F 
ATOM      7  C   LIG    1       -2.683   2.629  -2.097  0.00  0.00    +0.042 A 
ATOM      8  C   LIG    1       -2.486   1.423  -1.438  0.00  0.00    -0.041 A 
ATOM      9  C   LIG    1       -3.359   0.259  -1.830  0.00  0.00    +0.039 C 
ATOM     10  C   LIG    1       -3.324  -0.825  -0.755  0.00  0.00    +0.053 C 
ATOM     11  C   LIG    1       -1.858  -1.144  -0.438  0.00  0.00    +0.119 C 
ENDROOT
BRANCH   1  13
ATOM     12  C   LIG    1        0.529  -1.330   1.371  0.00  0.00    +0.008 C 
ATOM     13  C   LIG    1        0.258  -0.153   0.432  0.00  0.00    -0.006 C 
ATOM     14  C   LIG    1        0.860  -0.448  -0.944  0.00  0.00    +0.008 C 
ENDBRANCH   1  13
BRANCH  11  15
ATOM     15  O   LIG    1       -1.143  -1.379  -1.652  0.00  0.00    -0.456 OA
BRANCH  15  16
ATOM     16  C   LIG    1       -1.486  -2.465  -2.361  0.00  0.00    +0.334 C 
ATOM     17  O   LIG    1       -2.393  -3.170  -1.986  0.00  0.00    -0.248 OA
BRANCH  16  18
ATOM     18  C   LIG    1       -0.741  -2.806  -3.626  0.00  0.00    +0.279 C 
BRANCH  18  19
ATOM     19  O   LIG    1       -1.288  -3.997  -4.196  0.00  0.00    -0.372 OA
ATOM     20  C   LIG    1       -0.649  -4.410  -5.405  0.00  0.00    +0.194 C 
ENDBRANCH  18  19
ENDBRANCH  16  18
ENDBRANCH  15  16
ENDBRANCH  11  15
BRANCH  11  21
ATOM     21  C   LIG    1       -1.783  -2.385   0.454  0.00  0.00    +0.030 C 
BRANCH  21  22
ATOM     22  C   LIG    1       -2.427  -2.080   1.808  0.00  0.00    -0.075 C 
BRANCH  22  23
ATOM     23  N   LIG    1       -2.315  -3.257   2.680  0.00  0.00    +0.378 N 
ATOM     24  H   LIG    1       -1.347  -3.535   2.748  0.00  0.00    -0.082 HD
ATOM     25  C   LIG    1       -3.102  -4.361   2.115  0.00  0.00    -0.096 C 
BRANCH  23  26
ATOM     26  C   LIG    1       -2.825  -2.926   4.017  0.00  0.00    -0.079 C 
BRANCH  26  27
ATOM     27  C   LIG    1       -2.594  -4.111   4.958  0.00  0.00    -0.011 C 
BRANCH  27  28
ATOM     28  C   LIG    1       -3.125  -3.766   6.351  0.00  0.00    +0.072 C 
BRANCH  28  29
ATOM     29  C   LIG    1       -2.898  -4.933   7.278  0.00  0.00    +0.108 A 
ATOM     30  N   LIG    1       -2.238  -4.868   8.465  0.00  0.00    -0.342 N 
ATOM     31  C   LIG    1       -2.243  -6.137   9.008  0.00  0.00    +0.066 A 
ATOM     32  C   LIG    1       -1.739  -6.691  10.178  0.00  0.00    +0.028 A 
ATOM     33  C   LIG    1       -1.920  -8.034  10.430  0.00  0.00    +0.002 A 
ATOM     34  C   LIG    1       -2.601  -8.834   9.524  0.00  0.00    +0.002 A 
ATOM     35  C   LIG    1       -3.104  -8.307   8.369  0.00  0.00    +0.030 A 
ATOM     36  C   LIG    1       -2.933  -6.948   8.091  0.00  0.00    +0.089 A 
ATOM     37  H   LIG    1       -1.837  -4.076   8.858  0.00  0.00    +0.167 HD
ATOM     38  N   LIG    1       -3.310  -6.148   7.061  0.00  0.00    -0.232 NA
ENDBRANCH  28  29
ENDBRANCH  27  28
ENDBRANCH  26  27
ENDBRANCH  23  26
ENDBRANCH  22  23
ENDBRANCH  21  22
ENDBRANCH  11  21
TORSDOF 12
