REMARK  Name = ZINC03872462
REMARK                            x       y       z     vdW  Elec       q    Type
REMARK                         _______ _______ _______ _____ _____    ______ ____
ROOT
ATOM      1  C   VAL A  1        2.685   4.053  -0.492  0.00  0.00    +0.234 C 
ATOM      2  N   VAL A  2        2.977   5.367  -0.558  0.00  0.00    -0.302 N 
ATOM      3  H   VAL A  2        2.340   6.022  -0.232  0.00  0.00    +0.150 HD
ATOM      4  O   VAL A  1        3.481   3.234  -0.900  0.00  0.00    -0.274 OA
ENDROOT
BRANCH   1   5
ATOM      5  CA  VAL A  1        1.370   3.602   0.088  0.00  0.00    +0.161 C 
BRANCH   5   7
ATOM      6  C   UNK A  0        0.094   1.527   0.022  0.00  0.00    +0.241 C 
ATOM      7  N   VAL A  1        1.294   2.139   0.047  0.00  0.00    -0.302 N 
ATOM      8  H   VAL A  1        2.108   1.611   0.037  0.00  0.00    +0.150 HD
ATOM      9  O   UNK A  0       -0.924   2.187   0.029  0.00  0.00    -0.273 OA
BRANCH   6  10
ATOM     10  C   UNK A  0        0.016   0.022  -0.020  0.00  0.00    +0.186 C 
BRANCH  10  11
ATOM     11  O   UNK A  0       -1.350  -0.387   0.077  0.00  0.00    -0.384 OA
ATOM     12  H   UNK A  0       -1.913  -0.052  -0.634  0.00  0.00    +0.210 HD
ENDBRANCH  10  11
BRANCH  10  13
ATOM     13  C   UNK A  0        0.607  -0.482  -1.338  0.00  0.00    -0.037 C 
BRANCH  13  14
ATOM     14  N   UNK A  0       -0.065   0.160  -2.482  0.00  0.00    +0.382 N 
ATOM     15  H   UNK A  0        0.323  -0.216  -3.356  0.00  0.00    -0.090 HD
ATOM     16  H   UNK A  0        0.089   1.167  -2.457  0.00  0.00    -0.090 HD
ATOM     17  H   UNK A  0       -1.065  -0.031  -2.453  0.00  0.00    -0.090 HD
ENDBRANCH  13  14
BRANCH  13  18
ATOM     18  C   UNK A  0        0.415  -1.997  -1.437  0.00  0.00    -0.010 C 
BRANCH  18  20
ATOM     19  C   UNK A  0        2.628  -2.330  -2.547  0.00  0.00    +0.007 C 
ATOM     20  C   UNK A  0        1.117  -2.519  -2.692  0.00  0.00    -0.019 C 
ATOM     21  C   UNK A  0        0.804  -4.006  -2.869  0.00  0.00    +0.007 C 
ENDBRANCH  18  20
ENDBRANCH  13  18
ENDBRANCH  10  13
ENDBRANCH   6  10
ENDBRANCH   5   7
BRANCH   5  22
ATOM     22  CB  VAL A  1        1.261   4.077   1.538  0.00  0.00    +0.012 C 
ATOM     23  CG2 VAL A  1        2.410   3.484   2.356  0.00  0.00    +0.009 C 
ATOM     24  CG1 VAL A  1       -0.074   3.619   2.127  0.00  0.00    +0.009 C 
ENDBRANCH   5  22
ENDBRANCH   1   5
BRANCH   2  25
ATOM     25  CA  VAL A  2        4.256   5.806  -1.121  0.00  0.00    +0.161 C 
BRANCH  25  26
ATOM     26  C   VAL A  2        4.618   7.155  -0.556  0.00  0.00    +0.234 C 
ATOM     27  N   ASP A  3        5.761   7.760  -0.934  0.00  0.00    -0.300 N 
ATOM     28  H   ASP A  3        6.351   7.327  -1.571  0.00  0.00    +0.150 HD
ATOM     29  O   VAL A  2        3.880   7.697   0.239  0.00  0.00    -0.274 OA
BRANCH  27  30
ATOM     30  CA  ASP A  3        6.113   9.072  -0.385  0.00  0.00    +0.192 C 
BRANCH  30  31
ATOM     31  C   ASP A  3        5.443  10.152  -1.195  0.00  0.00    +0.326 C 
ATOM     32  O   ASP A  3        4.744   9.856  -2.135  0.00  0.00    -0.249 OA
BRANCH  31  33
ATOM     33  OXT ASP A  3        5.623  11.442  -0.872  0.00  0.00    -0.479 OA
ATOM     34  HXT ASP A  3        6.165  11.672  -0.143  0.00  0.00    +0.295 HD
ENDBRANCH  31  33
ENDBRANCH  30  31
BRANCH  30  35
ATOM     35  CB  ASP A  3        7.630   9.259  -0.441  0.00  0.00    +0.154 C 
BRANCH  35  36
ATOM     36  CG  ASP A  3        8.294   8.255   0.466  0.00  0.00    +0.307 C 
ATOM     37  OD1 ASP A  3        7.622   7.471   1.094  0.00  0.00    -0.251 OA
BRANCH  36  38
ATOM     38  OD2 ASP A  3        9.632   8.232   0.577  0.00  0.00    -0.481 OA
ATOM     39  HD2 ASP A  3       10.152   8.841   0.090  0.00  0.00    +0.295 HD
ENDBRANCH  36  38
ENDBRANCH  35  36
ENDBRANCH  30  35
ENDBRANCH  27  30
ENDBRANCH  25  26
BRANCH  25  40
ATOM     40  CB  VAL A  2        4.135   5.907  -2.643  0.00  0.00    +0.012 C 
ATOM     41  CG2 VAL A  2        3.045   6.919  -3.002  0.00  0.00    +0.009 C 
ATOM     42  CG1 VAL A  2        3.768   4.537  -3.217  0.00  0.00    +0.009 C 
ENDBRANCH  25  40
ENDBRANCH   2  25
TORSDOF 18
