REMARK  Name = ZINC03826241
REMARK                            x       y       z     vdW  Elec       q    Type
REMARK                         _______ _______ _______ _____ _____    ______ ____
ROOT
ATOM      1  CA  LEU A  1       -5.570  -2.277   2.863  0.00  0.00    +0.159 C 
ENDROOT
BRANCH   1   4
ATOM      2  N   LEU A  1       -3.422  -2.281   1.637  0.00  0.00    -0.304 N 
ATOM      3  H   LEU A  1       -3.002  -1.921   2.434  0.00  0.00    +0.149 HD
ATOM      4  C   LEU A  1       -4.750  -2.512   1.621  0.00  0.00    +0.234 C 
ATOM      5  O   LEU A  1       -5.284  -2.909   0.608  0.00  0.00    -0.274 OA
BRANCH   2   6
ATOM      6  CA  LEU A  1       -2.614  -2.574   0.451  0.00  0.00    +0.136 C 
BRANCH   6   7
ATOM      7  C   LEU A  1       -2.215  -4.027   0.461  0.00  0.00    +0.245 C 
ATOM      8  O   LEU A  1       -2.569  -4.744   1.365  0.00  0.00    -0.299 OA
ENDBRANCH   6   7
BRANCH   6   9
ATOM      9  C   LEU A  1       -1.358  -1.700   0.462  0.00  0.00    +0.030 C 
BRANCH   9  10
ATOM     10  C   LEU A  1       -1.758  -0.230   0.326  0.00  0.00    +0.002 C 
BRANCH  10  12
ATOM     11  C   LEU A  1       -0.902   2.114   0.202  0.00  0.00    +0.004 C 
ATOM     12  C   LEU A  1       -0.502   0.644   0.337  0.00  0.00    -0.003 C 
ENDBRANCH  10  12
ENDBRANCH   9  10
ENDBRANCH   6   9
ENDBRANCH   2   6
ENDBRANCH   1   4
BRANCH   1  13
ATOM     13  N   LEU A  1       -6.995  -2.310   2.521  0.00  0.00    -0.302 N 
ATOM     14  H   LEU A  1       -7.290  -2.761   1.715  0.00  0.00    +0.150 HD
ATOM     15  C   LEU A  1       -7.895  -1.712   3.327  0.00  0.00    +0.234 C 
ATOM     16  O   LEU A  1       -7.520  -1.073   4.287  0.00  0.00    -0.274 OA
BRANCH  15  17
ATOM     17  CA  LEU A  1       -9.368  -1.839   3.035  0.00  0.00    +0.159 C 
BRANCH  17  18
ATOM     18  N   LEU A  1      -10.133  -1.543   4.249  0.00  0.00    -0.304 N 
ATOM     19  H   LEU A  1      -10.721  -2.215   4.628  0.00  0.00    +0.149 HD
ATOM     20  C   UNK A  0      -10.021  -0.336   4.838  0.00  0.00    +0.211 C 
ATOM     21  C   UNK A  0      -10.808  -0.031   6.087  0.00  0.00    +0.109 C 
ATOM     22  O   UNK A  0       -9.286   0.504   4.364  0.00  0.00    -0.276 OA
ENDBRANCH  17  18
BRANCH  17  23
ATOM     23  CB  LEU A  1       -9.757  -0.852   1.933  0.00  0.00    +0.034 C 
BRANCH  23  24
ATOM     24  CG  LEU A  1      -11.234  -1.035   1.582  0.00  0.00    -0.015 C 
ATOM     25  CD2 LEU A  1      -11.443  -2.417   0.959  0.00  0.00    +0.007 C 
ATOM     26  CD1 LEU A  1      -11.659   0.043   0.583  0.00  0.00    +0.007 C 
ENDBRANCH  23  24
ENDBRANCH  17  23
ENDBRANCH  15  17
ENDBRANCH   1  13
BRANCH   1  27
ATOM     27  CB  LEU A  1       -5.268  -3.372   3.889  0.00  0.00    +0.034 C 
BRANCH  27  28
ATOM     28  CG  LEU A  1       -3.790  -3.308   4.281  0.00  0.00    -0.015 C 
ATOM     29  CD2 LEU A  1       -3.451  -4.495   5.185  0.00  0.00    +0.007 C 
ATOM     30  CD1 LEU A  1       -3.516  -2.002   5.030  0.00  0.00    +0.007 C 
ENDBRANCH  27  28
ENDBRANCH   1  27
TORSDOF 13
