REMARK  Name = ZINC03830579
REMARK                            x       y       z     vdW  Elec       q    Type
REMARK                         _______ _______ _______ _____ _____    ______ ____
ROOT
ATOM      1  C   LIG    1        0.177  -3.066  -4.826  0.00  0.00    +0.213 C 
ENDROOT
BRANCH   1   2
ATOM      2  C   LIG    1        1.455  -3.494  -5.500  0.00  0.00    -0.001 A 
ATOM      3  C   LIG    1        1.542  -4.742  -6.088  0.00  0.00    +0.007 A 
ATOM      4  C   LIG    1        2.714  -5.134  -6.706  0.00  0.00    +0.000 A 
ATOM      5  C   LIG    1        3.800  -4.279  -6.737  0.00  0.00    +0.000 A 
ATOM      6  C   LIG    1        3.713  -3.031  -6.149  0.00  0.00    +0.000 A 
ATOM      7  C   LIG    1        2.539  -2.636  -5.535  0.00  0.00    +0.007 A 
ENDBRANCH   1   2
BRANCH   1   8
ATOM      8  C   LIG    1       -0.284  -1.756  -5.410  0.00  0.00    -0.001 A 
ATOM      9  C   LIG    1        0.295  -0.571  -4.996  0.00  0.00    +0.007 A 
ATOM     10  C   LIG    1       -0.128   0.630  -5.532  0.00  0.00    +0.000 A 
ATOM     11  C   LIG    1       -1.131   0.648  -6.483  0.00  0.00    +0.000 A 
ATOM     12  C   LIG    1       -1.710  -0.537  -6.899  0.00  0.00    +0.000 A 
ATOM     13  C   LIG    1       -1.284  -1.739  -6.365  0.00  0.00    +0.007 A 
ENDBRANCH   1   8
BRANCH   1  14
ATOM     14  C   LIG    1        0.420  -2.898  -3.348  0.00  0.00    +0.349 C 
ATOM     15  O   LIG    1        1.532  -2.656  -2.942  0.00  0.00    -0.247 OA
BRANCH  14  16
ATOM     16  O   LIG    1       -0.599  -3.019  -2.483  0.00  0.00    -0.460 OA
BRANCH  16  22
ATOM     17  C   LIG    1       -1.613   0.175   0.673  0.00  0.00    -0.092 C 
ATOM     18  N   LIG    1       -1.485  -1.249   0.336  0.00  0.00    +0.381 N 
ATOM     19  C   LIG    1       -2.782  -1.730  -0.145  0.00  0.00    -0.075 C 
ATOM     20  C   LIG    1       -2.688  -3.212  -0.514  0.00  0.00    -0.011 C 
ATOM     21  C   LIG    1       -1.256  -3.697  -0.252  0.00  0.00    +0.025 C 
ATOM     22  C   LIG    1       -0.296  -2.848  -1.097  0.00  0.00    +0.164 C 
ATOM     23  C   LIG    1       -0.930  -3.466   1.229  0.00  0.00    -0.011 C 
ATOM     24  C   LIG    1       -0.473  -1.388  -0.713  0.00  0.00    -0.030 C 
ATOM     25  C   LIG    1       -1.081  -1.976   1.542  0.00  0.00    -0.075 C 
ENDBRANCH  16  22
ENDBRANCH  14  16
ENDBRANCH   1  14
BRANCH   1  26
ATOM     26  O   LIG    1       -0.827  -4.060  -5.034  0.00  0.00    -0.370 OA
ATOM     27  H   LIG    1       -0.597  -4.931  -4.682  0.00  0.00    +0.212 HD
ENDBRANCH   1  26
TORSDOF 6
