REMARK  Name = ZINC03844703
REMARK                            x       y       z     vdW  Elec       q    Type
REMARK                         _______ _______ _______ _____ _____    ______ ____
ROOT
ATOM      1  C   LIG    1        1.756   4.096   1.295  0.00  0.00    +0.216 C 
ATOM      2  O   LIG    1        2.925   4.399   1.333  0.00  0.00    -0.287 OA
ENDROOT
BRANCH   1   3
ATOM      3  C   LIG    1        0.915   4.221   2.514  0.00  0.00    +0.204 C 
ATOM      4  O   LIG    1       -0.253   3.918   2.475  0.00  0.00    -0.289 OA
BRANCH   3   5
ATOM      5  C   LIG    1        1.521   4.724   3.799  0.00  0.00    +0.118 C 
BRANCH   5   9
ATOM      6  C   LIG    1       -1.471   4.812   6.846  0.00  0.00    +0.000 A 
ATOM      7  C   LIG    1       -0.706   3.675   6.661  0.00  0.00    +0.000 A 
ATOM      8  C   LIG    1        0.262   3.647   5.675  0.00  0.00    +0.004 A 
ATOM      9  C   LIG    1        0.465   4.755   4.874  0.00  0.00    -0.040 A 
ATOM     10  C   LIG    1       -0.296   5.894   5.062  0.00  0.00    +0.004 A 
ATOM     11  C   LIG    1       -1.268   5.920   6.045  0.00  0.00    +0.000 A 
ENDBRANCH   5   9
ENDBRANCH   3   5
ENDBRANCH   1   3
BRANCH   1  12
ATOM     12  C   LIG    1        1.151   3.592   0.010  0.00  0.00    +0.160 C 
ATOM     13 BR   LIG    1        2.190   4.270  -1.515  0.00  0.00    -0.074 Br
BRANCH  12  14
ATOM     14  C   LIG    1        1.171   2.086   0.002  0.00  0.00    -0.026 A 
ATOM     15  C   LIG    1       -0.017   1.378   0.010  0.00  0.00    +0.005 A 
ATOM     16  C   LIG    1        0.002  -0.004   0.002  0.00  0.00    +0.000 A 
ATOM     17  C   LIG    1        1.208  -0.679  -0.014  0.00  0.00    +0.000 A 
ATOM     18  C   LIG    1        2.396   0.029  -0.021  0.00  0.00    +0.000 A 
ATOM     19  C   LIG    1        2.377   1.411  -0.014  0.00  0.00    +0.005 A 
ENDBRANCH  12  14
ENDBRANCH   1  12
TORSDOF 5
