REMARK  Name = ZINC03815799
REMARK                            x       y       z     vdW  Elec       q    Type
REMARK                         _______ _______ _______ _____ _____    ______ ____
ROOT
ATOM      1  C   LIG    1        5.151   5.237  -2.231  0.00  0.00    +0.061 A 
ATOM      2  C   LIG    1        3.858   4.824  -2.582  0.00  0.00    +0.017 A 
ATOM      3  C   LIG    1        3.253   3.802  -1.910  0.00  0.00    +0.029 A 
ATOM      4  C   LIG    1        3.918   3.157  -0.873  0.00  0.00    +0.073 A 
ATOM      5  C   LIG    1        5.214   3.562  -0.504  0.00  0.00    +0.090 A 
ATOM      6  N   LIG    1        5.600   2.766   0.527  0.00  0.00    -0.235 NA
ATOM      7  C   LIG    1        4.648   1.926   0.810  0.00  0.00    +0.205 A 
ATOM      8  N   LIG    1        3.586   2.125  -0.020  0.00  0.00    -0.299 N 
ATOM      9  C   LIG    1        5.830   4.606  -1.192  0.00  0.00    +0.044 A 
ENDROOT
BRANCH   8  10
ATOM     10  C   LIG    1        2.381   1.409  -0.013  0.00  0.00    +0.048 A 
ATOM     11  C   LIG    1        1.169   2.087   0.002  0.00  0.00    +0.026 A 
ATOM     12  C   LIG    1       -0.017   1.379   0.010  0.00  0.00    +0.002 A 
ATOM     13  C   LIG    1        0.002  -0.004   0.002  0.00  0.00    +0.000 A 
ATOM     14  C   LIG    1        1.207  -0.682  -0.013  0.00  0.00    +0.002 A 
ATOM     15  C   LIG    1        2.396   0.021  -0.020  0.00  0.00    +0.026 A 
ENDBRANCH   8  10
BRANCH   1  16
ATOM     16  C   LIG    1        5.795   6.343  -2.966  0.00  0.00    +0.339 C 
ATOM     17  O   LIG    1        6.916   6.701  -2.664  0.00  0.00    -0.245 OA
BRANCH  16  19
ATOM     18  C   LIG    1        5.834   8.034  -4.651  0.00  0.00    +0.280 C 
ATOM     19  O   LIG    1        5.140   6.954  -3.972  0.00  0.00    -0.464 OA
ENDBRANCH  16  19
ENDBRANCH   1  16
TORSDOF 3
