REMARK  Name = ZINC03814291
REMARK                            x       y       z     vdW  Elec       q    Type
REMARK                         _______ _______ _______ _____ _____    ______ ____
ROOT
ATOM      1  C   LIG    1       -2.687   1.570   2.473  0.00  0.00    +0.162 A 
ATOM      2  C   LIG    1       -4.006   1.179   2.631  0.00  0.00    +0.053 A 
ATOM      3  C   LIG    1       -4.614   0.377   1.680  0.00  0.00    -0.038 A 
ATOM      4  C   LIG    1       -3.906  -0.032   0.565  0.00  0.00    -0.012 A 
ATOM      5  C   LIG    1       -4.788  -0.893  -0.313  0.00  0.00    +0.148 C 
ATOM      6  C   LIG    1       -5.961  -1.326   0.592  0.00  0.00    +0.027 C 
ATOM      7  C   LIG    1       -2.588   0.361   0.400  0.00  0.00    +0.055 A 
ATOM      8  C   LIG    1       -6.021  -0.182   1.626  0.00  0.00    +0.042 C 
ATOM      9  C   LIG    1       -1.976   1.163   1.348  0.00  0.00    +0.162 A 
ENDROOT
BRANCH   1  11
ATOM     10  C   LIG    1       -2.882   2.732   4.539  0.00  0.00    +0.277 C 
ATOM     11  O   LIG    1       -2.090   2.353   3.411  0.00  0.00    -0.491 OA
ENDBRANCH   1  11
BRANCH   5  12
ATOM     12  O   LIG    1       -4.066  -2.039  -0.770  0.00  0.00    -0.387 OA
ATOM     13  H   LIG    1       -3.291  -1.826  -1.308  0.00  0.00    +0.210 HD
ENDBRANCH   5  12
BRANCH   9  14
ATOM     14  O   LIG    1       -0.682   1.547   1.184  0.00  0.00    -0.491 OA
ATOM     15  C   LIG    1       -0.013   1.086   0.008  0.00  0.00    +0.277 C 
ENDBRANCH   9  14
BRANCH   6  16
ATOM     16  C   LIG    1       -7.264  -1.405  -0.207  0.00  0.00    +0.010 C 
BRANCH  16  17
ATOM     17  C   LIG    1       -8.406  -1.822   0.722  0.00  0.00    -0.014 C 
ATOM     18  C   LIG    1       -8.162  -3.247   1.226  0.00  0.00    -0.015 C 
ATOM     19  C   LIG    1       -9.338  -3.680   2.105  0.00  0.00    -0.078 C 
ATOM     20  N   LIG    1      -10.577  -3.642   1.301  0.00  0.00    +0.382 N 
ATOM     21  H   LIG    1      -10.453  -4.231   0.469  0.00  0.00    -0.081 HD
ATOM     22  C   LIG    1      -10.861  -2.257   0.869  0.00  0.00    -0.078 C 
ATOM     23  C   LIG    1       -9.730  -1.781  -0.046  0.00  0.00    -0.015 C 
BRANCH  20  24
ATOM     24  C   LIG    1      -11.709  -4.165   2.093  0.00  0.00    -0.043 C 
BRANCH  24  25
ATOM     25  C   LIG    1      -11.298  -5.459   2.748  0.00  0.00    -0.064 A 
ATOM     26  C   LIG    1      -11.482  -6.658   2.085  0.00  0.00    +0.002 A 
ATOM     27  C   LIG    1      -11.100  -7.844   2.683  0.00  0.00    +0.000 A 
ATOM     28  C   LIG    1      -10.543  -7.832   3.949  0.00  0.00    +0.000 A 
ATOM     29  C   LIG    1      -10.364  -6.633   4.614  0.00  0.00    +0.000 A 
ATOM     30  C   LIG    1      -10.742  -5.447   4.013  0.00  0.00    +0.002 A 
ENDBRANCH  24  25
ENDBRANCH  20  24
ENDBRANCH  16  17
ENDBRANCH   6  16
TORSDOF 7
