REMARK  Name = ZINC03814360
REMARK                            x       y       z     vdW  Elec       q    Type
REMARK                         _______ _______ _______ _____ _____    ______ ____
ROOT
ATOM      1  C   LIG    1       -0.079   1.527  -0.024  0.00  0.00    +0.012 C 
ATOM      2  C   LIG    1       -0.062  -0.003  -0.034  0.00  0.00    -0.025 C 
ATOM      3  C   LIG    1       -1.500  -0.531  -0.061  0.00  0.00    +0.015 C 
ATOM      4  C   LIG    1       -2.273   0.018   1.142  0.00  0.00    +0.075 C 
ATOM      5  C   LIG    1       -1.511  -0.337   2.400  0.00  0.00    +0.134 C 
ATOM      6  C   LIG    1       -0.044   0.022   2.468  0.00  0.00    +0.078 C 
ATOM      7  O   LIG    1       -2.058  -0.891   3.322  0.00  0.00    -0.297 OA
ATOM      8  C   LIG    1        0.668  -0.498  -1.284  0.00  0.00    -0.001 C 
ATOM      9  C   LIG    1       -0.076  -0.042  -2.535  0.00  0.00    +0.005 C 
ATOM     10  C   LIG    1        0.675  -0.451  -3.814  0.00  0.00    +0.010 C 
ATOM     11  C   LIG    1        2.063   0.152  -3.735  0.00  0.00    -0.003 C 
ATOM     12  C   LIG    1        1.959   1.663  -3.514  0.00  0.00    +0.014 C 
ATOM     13  C   LIG    1        2.796  -0.491  -2.531  0.00  0.00    +0.001 C 
ATOM     14  C   LIG    1        4.239  -0.022  -2.747  0.00  0.00    +0.007 C 
ATOM     15  C   LIG    1        4.427  -0.174  -4.281  0.00  0.00    +0.032 C 
ATOM     16  C   LIG    1        2.999  -0.135  -4.905  0.00  0.00    +0.121 C 
ATOM     17  C   LIG    1        2.115   0.016  -1.273  0.00  0.00    -0.004 C 
ATOM     18  C   LIG    1        2.825  -0.527  -0.031  0.00  0.00    +0.004 C 
ATOM     19  C   LIG    1        2.105  -0.023   1.220  0.00  0.00    +0.005 C 
ATOM     20  C   LIG    1        0.655  -0.514   1.217  0.00  0.00    +0.002 C 
ENDROOT
BRANCH  16  21
ATOM     21  O   LIG    1        2.934   0.924  -5.862  0.00  0.00    -0.391 OA
ATOM     22  H   LIG    1        3.509   0.796  -6.629  0.00  0.00    +0.210 HD
ENDBRANCH  16  21
TORSDOF 1
