REMARK  Name = ZINC03841689
REMARK                            x       y       z     vdW  Elec       q    Type
REMARK                         _______ _______ _______ _____ _____    ______ ____
ROOT
ATOM      1  C   LIG    1       -4.733  12.176   0.697  0.00  0.00    +0.044 C 
ATOM      2  C   LIG    1       -3.812  11.356  -0.169  0.00  0.00    -0.044 A 
ATOM      3  C   LIG    1       -2.936  11.988  -1.026  0.00  0.00    +0.049 A 
ATOM      4  C   LIG    1       -2.088  11.233  -1.822  0.00  0.00    +0.124 A 
ATOM      5  C   LIG    1       -2.131   9.851  -1.751  0.00  0.00    -0.005 A 
ATOM      6  C   LIG    1       -1.211   9.029  -2.616  0.00  0.00    +0.048 C 
ATOM      7  C   LIG    1       -3.015   9.217  -0.890  0.00  0.00    -0.037 A 
ATOM      8  C   LIG    1       -3.018   7.711  -0.873  0.00  0.00    +0.040 C 
ATOM      9  C   LIG    1       -3.700   7.189   0.390  0.00  0.00    +0.005 C 
ATOM     10  C   LIG    1       -5.064   7.878   0.522  0.00  0.00    +0.009 C 
ATOM     11  C   LIG    1       -4.831   9.347   0.867  0.00  0.00    +0.036 C 
ATOM     12  C   LIG    1       -3.853   9.969  -0.096  0.00  0.00    -0.041 A 
ENDROOT
BRANCH   4  13
ATOM     13  O   LIG    1       -1.219  11.847  -2.668  0.00  0.00    -0.495 OA
ATOM     14  C   LIG    1       -1.232  13.276  -2.687  0.00  0.00    +0.277 C 
ENDBRANCH   4  13
BRANCH   9  15
ATOM     15  C   LIG    1       -3.896   5.676   0.283  0.00  0.00    +0.076 C 
ATOM     16  C   LIG    1       -4.604   5.163   1.538  0.00  0.00    +0.017 C 
BRANCH  15  17
ATOM     17  C   LIG    1       -2.553   5.004   0.153  0.00  0.00    +0.221 C 
ATOM     18  N   LIG    1       -2.478   3.663   0.044  0.00  0.00    -0.270 N 
ATOM     19  H   LIG    1       -3.289   3.136  -0.025  0.00  0.00    +0.156 HD
ATOM     20  O   LIG    1       -1.540   5.671   0.147  0.00  0.00    -0.275 OA
BRANCH  18  21
ATOM     21  C   LIG    1       -1.234   3.033   0.031  0.00  0.00    +0.125 A 
ATOM     22  C   LIG    1       -1.166   1.644   0.025  0.00  0.00    +0.044 A 
ATOM     23  C   LIG    1        0.075   1.032   0.012  0.00  0.00    +0.005 A 
ATOM     24  C   LIG    1        1.209   1.833   0.006  0.00  0.00    +0.020 A 
ATOM     25  C   LIG    1        1.067   3.206   0.013  0.00  0.00    +0.113 A 
ATOM     26  N   LIG    1       -0.130   3.762   0.030  0.00  0.00    -0.240 NA
ENDBRANCH  18  21
ENDBRANCH  15  17
ENDBRANCH   9  15
TORSDOF 4
