REMARK  Name = ZINC03869963
REMARK                            x       y       z     vdW  Elec       q    Type
REMARK                         _______ _______ _______ _____ _____    ______ ____
ROOT
ATOM      1  C   LIG    1       -1.168  -0.886   0.008  0.00  0.00    +0.253 C 
ATOM      2  C   LIG    1       -1.558  -1.272  -1.435  0.00  0.00    +0.195 C 
ATOM      3  C   LIG    1       -3.104  -1.297  -1.411  0.00  0.00    +0.178 C 
ATOM      4  C   LIG    1       -3.463  -0.927   0.046  0.00  0.00    +0.178 C 
ATOM      5  O   LIG    1       -2.320  -0.189   0.531  0.00  0.00    -0.346 OA
ENDROOT
BRANCH   1  16
ATOM      6  C   LIG    1       -0.016   1.360   0.009  0.00  0.00    +0.203 A 
ATOM      7  N   LIG    1        1.205   1.812   0.000  0.00  0.00    -0.229 NA
ATOM      8  C   LIG    1        2.065   0.767  -0.013  0.00  0.00    +0.172 A 
ATOM      9  C   LIG    1        3.525   0.639  -0.028  0.00  0.00    +0.280 A 
ATOM     10  O   LIG    1        4.238   1.631  -0.029  0.00  0.00    -0.265 OA
ATOM     11  N   LIG    1        4.062  -0.591  -0.040  0.00  0.00    -0.293 N 
ATOM     12  C   LIG    1        3.306  -1.668  -0.038  0.00  0.00    +0.195 A 
ATOM     13  N   LIG    1        1.949  -1.607  -0.025  0.00  0.00    -0.196 NA
ATOM     14  H   LIG    1        5.057  -0.691  -0.050  0.00  0.00    +0.172 HD
ATOM     15  C   LIG    1        1.305  -0.396  -0.013  0.00  0.00    +0.171 A 
ATOM     16  N   LIG    1        0.002  -0.004   0.002  0.00  0.00    -0.285 N 
BRANCH  12  17
ATOM     17  N   LIG    1        3.910  -2.896  -0.051  0.00  0.00    -0.329 N 
ATOM     18  H   LIG    1        4.472  -2.983  -0.873  0.00  0.00    +0.145 HD
ATOM     19  H   LIG    1        3.370  -3.702  -0.050  0.00  0.00    +0.145 HD
ENDBRANCH  12  17
ENDBRANCH   1  16
BRANCH   2  20
ATOM     20  O   LIG    1       -1.089  -0.290  -2.361  0.00  0.00    -0.385 OA
ATOM     21  H   LIG    1       -1.306  -0.482  -3.283  0.00  0.00    +0.210 HD
ENDBRANCH   2  20
BRANCH   3  22
ATOM     22  O   LIG    1       -3.640  -0.333  -2.319  0.00  0.00    -0.386 OA
ATOM     23  H   LIG    1       -3.445  -0.516  -3.248  0.00  0.00    +0.210 HD
ENDBRANCH   3  22
BRANCH   4  24
ATOM     24  C   LIG    1       -4.716  -0.050   0.079  0.00  0.00    +0.206 C 
BRANCH  24  25
ATOM     25  O   LIG    1       -5.054   0.245   1.436  0.00  0.00    -0.284 OA
BRANCH  25  26
ATOM     26  P   LIG    1       -6.322   1.149   1.847  0.00  0.00    +0.472 P 
ATOM     27  O   LIG    1       -6.240   2.457   1.158  0.00  0.00    -0.228 OA
BRANCH  26  28
ATOM     28  O   LIG    1       -6.323   1.380   3.440  0.00  0.00    -0.303 OA
ATOM     29  H   LIG    1       -5.505   1.832   3.701  0.00  0.00    +0.222 HD
ENDBRANCH  26  28
BRANCH  26  30
ATOM     30  O   LIG    1       -7.679   0.399   1.413  0.00  0.00    -0.303 OA
ATOM     31  H   LIG    1       -7.679   0.259   0.453  0.00  0.00    +0.222 HD
ENDBRANCH  26  30
ENDBRANCH  25  26
ENDBRANCH  24  25
ENDBRANCH   4  24
TORSDOF 9
