REMARK  Name = ZINC03870145
REMARK                            x       y       z     vdW  Elec       q    Type
REMARK                         _______ _______ _______ _____ _____    ______ ____
ROOT
ATOM      1  O   LIG    1        1.189  -0.668  -0.013  0.00  0.00    -0.397 OA
ENDROOT
BRANCH   1   3
ATOM      2  C   LIG    1       -0.016   1.331   0.009  0.00  0.00    +0.066 C 
ATOM      3  C   LIG    1        0.002  -0.004   0.002  0.00  0.00    +0.208 C 
BRANCH   3   4
ATOM      4  C   LIG    1       -1.262  -0.757   0.010  0.00  0.00    +0.372 C 
ATOM      5  O   LIG    1       -2.330  -0.160   0.023  0.00  0.00    -0.242 OA
BRANCH   4   6
ATOM      6  O   LIG    1       -1.245  -1.980   0.003  0.00  0.00    -0.475 OA
ATOM      7  H   LIG    1       -0.428  -2.438  -0.007  0.00  0.00    +0.296 HD
ENDBRANCH   4   6
ENDBRANCH   3   4
ENDBRANCH   1   3
BRANCH   1   8
ATOM      8  P   LIG    1        2.458   0.250   0.361  0.00  0.00    +0.528 P 
ATOM      9  O   LIG    1        2.219   0.927   1.729  0.00  0.00    -0.216 OA
BRANCH   8  10
ATOM     10  O   LIG    1        2.646   1.334  -0.724  0.00  0.00    -0.293 OA
ATOM     11  H   LIG    1        1.850   1.886  -0.771  0.00  0.00    +0.223 HD
ENDBRANCH   8  10
BRANCH   8  12
ATOM     12  O   LIG    1        3.779  -0.666   0.439  0.00  0.00    -0.293 OA
ATOM     13  H   LIG    1        4.584  -0.178   0.660  0.00  0.00    +0.223 HD
ENDBRANCH   8  12
ENDBRANCH   1   8
TORSDOF 6
