REMARK  Name = ZINC03816583
REMARK                            x       y       z     vdW  Elec       q    Type
REMARK                         _______ _______ _______ _____ _____    ______ ____
ROOT
ATOM      1  N   LIG    1        2.848   0.515  -7.494  0.00  0.00    -0.322 N 
ATOM      2  H   LIG    1        2.304   1.317  -7.470  0.00  0.00    +0.148 HD
ENDROOT
BRANCH   1   3
ATOM      3  C   LIG    1        3.012  -0.222  -6.377  0.00  0.00    +0.131 C 
ATOM      4  S   LIG    1        3.972  -1.639  -6.420  0.00  0.00    -0.019 S 
BRANCH   3   5
ATOM      5  N   LIG    1        2.420   0.156  -5.227  0.00  0.00    -0.322 N 
ATOM      6  H   LIG    1        1.875   0.959  -5.203  0.00  0.00    +0.148 HD
BRANCH   5   7
ATOM      7  C   LIG    1        2.598  -0.644  -4.013  0.00  0.00    +0.138 C 
BRANCH   7  11
ATOM      8  C   LIG    1        0.446   1.153  -0.791  0.00  0.00    -0.042 A 
ATOM      9  C   LIG    1       -0.173   0.216  -1.597  0.00  0.00    +0.004 A 
ATOM     10  C   LIG    1        0.523  -0.365  -2.640  0.00  0.00    +0.005 A 
ATOM     11  C   LIG    1        1.838  -0.010  -2.877  0.00  0.00    -0.030 A 
ATOM     12  C   LIG    1        2.457   0.927  -2.071  0.00  0.00    +0.005 A 
ATOM     13  C   LIG    1        1.759   1.512  -1.030  0.00  0.00    +0.004 A 
BRANCH   8  15
ATOM     14  C   LIG    1       -0.377   3.301   0.136  0.00  0.00    +0.015 C 
ATOM     15  C   LIG    1       -0.313   1.787   0.346  0.00  0.00    -0.013 C 
ATOM     16  C   LIG    1       -1.733   1.218   0.392  0.00  0.00    +0.015 C 
ATOM     17  C   LIG    1        0.399   1.485   1.666  0.00  0.00    +0.015 C 
ENDBRANCH   8  15
ENDBRANCH   7  11
ENDBRANCH   5   7
ENDBRANCH   3   5
ENDBRANCH   1   3
BRANCH   1  18
ATOM     18  C   LIG    1        3.491   0.103  -8.744  0.00  0.00    +0.138 C 
BRANCH  18  19
ATOM     19  C   LIG    1        3.152   1.089  -9.832  0.00  0.00    -0.027 A 
ATOM     20  C   LIG    1        2.027   0.896 -10.611  0.00  0.00    +0.007 A 
ATOM     21  C   LIG    1        1.711   1.798 -11.610  0.00  0.00    +0.028 A 
ATOM     22  C   LIG    1        2.525   2.899 -11.833  0.00  0.00    +0.089 A 
ATOM     23  C   LIG    1        3.659   3.093 -11.047  0.00  0.00    +0.143 A 
ATOM     24  C   LIG    1        3.965   2.188 -10.044  0.00  0.00    +0.052 A 
BRANCH  22  25
ATOM     25  N   LIG    1        2.208   3.812 -12.845  0.00  0.00    -0.217 N 
ATOM     26  H   LIG    1        2.916   4.238 -13.353  0.00  0.00    +0.173 HD
BRANCH  25  27
ATOM     27  S   LIG    1        0.624   4.166 -13.174  0.00  0.00    +0.040 S 
ATOM     28  C   LIG    1       -0.033   4.850 -11.628  0.00  0.00    +0.218 C 
ATOM     29  O   LIG    1        0.021   2.909 -13.448  0.00  0.00    -0.155 OA
ATOM     30  O   LIG    1        0.678   5.176 -14.172  0.00  0.00    -0.155 OA
ENDBRANCH  25  27
ENDBRANCH  22  25
BRANCH  23  31
ATOM     31  O   LIG    1        4.460   4.170 -11.261  0.00  0.00    -0.493 OA
ATOM     32  C   LIG    1        5.606   4.305 -10.417  0.00  0.00    +0.277 C 
ENDBRANCH  23  31
ENDBRANCH  18  19
ENDBRANCH   1  18
TORSDOF 10
