REMARK  Name = ZINC03872285
REMARK                            x       y       z     vdW  Elec       q    Type
REMARK                         _______ _______ _______ _____ _____    ______ ____
ROOT
ATOM      1  N   LIG    1        2.085   0.759  -0.014  0.00  0.00    -0.288 N 
ATOM      2  C   LIG    1        1.205   1.800   0.000  0.00  0.00    +0.203 A 
ATOM      3  N   LIG    1       -0.016   1.351   0.009  0.00  0.00    -0.231 NA
ATOM      4  C   LIG    1        0.002  -0.004   0.002  0.00  0.00    +0.147 A 
ATOM      5  C   LIG    1       -0.983  -1.006   0.006  0.00  0.00    +0.147 A 
ATOM      6  N   LIG    1       -0.594  -2.277  -0.004  0.00  0.00    -0.219 NA
ATOM      7  C   LIG    1        0.686  -2.600  -0.018  0.00  0.00    +0.225 A 
ATOM      8  N   LIG    1        1.643  -1.696  -0.023  0.00  0.00    -0.216 NA
ATOM      9  C   LIG    1        1.350  -0.400  -0.013  0.00  0.00    +0.167 A 
ENDROOT
BRANCH   1  14
ATOM     10  C   LIG    1        5.680   3.814   0.076  0.00  0.00    +0.040 C 
ATOM     11  C   LIG    1        5.307   2.332   0.016  0.00  0.00    +0.146 C 
ATOM     12  C   LIG    1        5.258   1.848  -1.450  0.00  0.00    +0.147 C 
ATOM     13  C   LIG    1        4.072   0.857  -1.479  0.00  0.00    +0.088 C 
ATOM     14  C   LIG    1        3.546   0.859  -0.027  0.00  0.00    +0.225 C 
ATOM     15  O   LIG    1        3.968   2.129   0.517  0.00  0.00    -0.351 OA
BRANCH  12  16
ATOM     16  O   LIG    1        5.014   2.946  -2.332  0.00  0.00    -0.389 OA
ATOM     17  H   LIG    1        4.973   2.700  -3.266  0.00  0.00    +0.210 HD
ENDBRANCH  12  16
ENDBRANCH   1  14
BRANCH   5  18
ATOM     18  N   LIG    1       -2.327  -0.677   0.021  0.00  0.00    -0.341 N 
ATOM     19  H   LIG    1       -2.998  -1.377   0.024  0.00  0.00    +0.144 HD
ATOM     20  H   LIG    1       -2.531  -0.144   0.843  0.00  0.00    +0.144 HD
ENDBRANCH   5  18
TORSDOF 3
