REMARK  Name = ZINC03807804
REMARK                            x       y       z     vdW  Elec       q    Type
REMARK                         _______ _______ _______ _____ _____    ______ ____
ROOT
ATOM      1  C   LIG    1        3.711  -0.707  -0.038  0.00  0.00    +0.123 C 
ENDROOT
BRANCH   1   2
ATOM      2  C   LIG    1        4.906  -0.640   0.878  0.00  0.00    +0.006 A 
ATOM      3  C   LIG    1        6.095  -0.098   0.425  0.00  0.00    +0.008 A 
ATOM      4  C   LIG    1        7.191  -0.037   1.265  0.00  0.00    +0.000 A 
ATOM      5  C   LIG    1        7.099  -0.517   2.559  0.00  0.00    +0.001 A 
ATOM      6  C   LIG    1        5.911  -1.058   3.013  0.00  0.00    +0.020 A 
ATOM      7  C   LIG    1        4.812  -1.115   2.174  0.00  0.00    +0.047 A 
ATOM      8 CL   LIG    1        3.318  -1.789   2.745  0.00  0.00    -0.083 Cl
ENDBRANCH   1   2
BRANCH   1  12
ATOM      9  C   LIG    1        0.599   1.783   1.498  0.00  0.00    +0.000 A 
ATOM     10  C   LIG    1        0.374   1.009   0.375  0.00  0.00    +0.000 A 
ATOM     11  C   LIG    1        1.381   0.203  -0.122  0.00  0.00    +0.006 A 
ATOM     12  C   LIG    1        2.613   0.172   0.504  0.00  0.00    -0.013 A 
ATOM     13  C   LIG    1        2.838   0.947   1.626  0.00  0.00    +0.006 A 
ATOM     14  C   LIG    1        1.831   1.752   2.124  0.00  0.00    +0.000 A 
ENDBRANCH   1  12
BRANCH   1  15
ATOM     15  N   LIG    1        3.235  -2.090  -0.118  0.00  0.00    -0.320 N 
ATOM     16  C   LIG    1        1.954  -2.522   0.102  0.00  0.00    +0.106 A 
ATOM     17  C   LIG    1        1.957  -3.857  -0.077  0.00  0.00    +0.101 A 
ATOM     18  N   LIG    1        3.205  -4.230  -0.397  0.00  0.00    -0.352 N 
ATOM     19  H   LIG    1        3.490  -5.139  -0.579  0.00  0.00    +0.166 HD
ATOM     20  C   LIG    1        3.975  -3.176  -0.428  0.00  0.00    +0.175 A 
ENDBRANCH   1  15
BRANCH   1  21
ATOM     21  C   LIG    1        4.104  -0.231  -1.412  0.00  0.00    -0.013 A 
ATOM     22  C   LIG    1        4.139  -1.122  -2.469  0.00  0.00    +0.006 A 
ATOM     23  C   LIG    1        4.500  -0.685  -3.730  0.00  0.00    +0.000 A 
ATOM     24  C   LIG    1        4.825   0.643  -3.934  0.00  0.00    +0.000 A 
ATOM     25  C   LIG    1        4.790   1.534  -2.878  0.00  0.00    +0.000 A 
ATOM     26  C   LIG    1        4.425   1.098  -1.618  0.00  0.00    +0.006 A 
ENDBRANCH   1  21
TORSDOF 4
