REMARK  Name = ZINC03789766
REMARK                            x       y       z     vdW  Elec       q    Type
REMARK                         _______ _______ _______ _____ _____    ______ ____
ROOT
ATOM      1  C   LIG    1       -0.017   1.380   0.010  0.00  0.00    +0.042 A 
ATOM      2  C   LIG    1        1.170   2.085   0.002  0.00  0.00    +0.049 A 
ATOM      3  C   LIG    1        2.385   1.410  -0.013  0.00  0.00    +0.127 A 
ATOM      4  C   LIG    1        2.403   0.025  -0.017  0.00  0.00    +0.029 A 
ATOM      5  C   LIG    1        3.699  -0.736  -0.024  0.00  0.00    +0.142 C 
ATOM      6  C   LIG    1        3.962  -1.345   1.333  0.00  0.00    +0.210 C 
ATOM      7  N   LIG    1        4.000  -2.638   1.145  0.00  0.00    -0.130 NA
ATOM      8  C   LIG    1        3.801  -2.976  -0.136  0.00  0.00    +0.327 C 
ATOM      9  O   LIG    1        3.793  -4.123  -0.543  0.00  0.00    -0.251 OA
ATOM     10  C   LIG    1        4.856   0.169  -0.436  0.00  0.00    +0.094 C 
ATOM     11  C   LIG    1        4.746   1.483   0.351  0.00  0.00    +0.261 C 
ATOM     12  N   LIG    1        3.610  -1.896  -0.920  0.00  0.00    -0.280 N 
ATOM     13  H   LIG    1        3.447  -1.887  -1.877  0.00  0.00    +0.152 HD
ATOM     14  C   LIG    1        1.210  -0.678  -0.011  0.00  0.00    +0.048 A 
ATOM     15  O   LIG    1        3.534   2.136  -0.026  0.00  0.00    -0.479 OA
ATOM     16  C   LIG    1        0.002  -0.004   0.002  0.00  0.00    +0.124 A 
ATOM     17  F   LIG    1       -1.158  -0.696   0.008  0.00  0.00    -0.205 F 
ENDROOT
BRANCH  11  18
ATOM     18  C   LIG    1        5.924   2.366   0.029  0.00  0.00    +0.251 C 
ATOM     19  N   LIG    1        7.169   1.983   0.376  0.00  0.00    -0.326 N 
ATOM     20  H   LIG    1        7.927   2.551   0.169  0.00  0.00    +0.145 HD
ATOM     21  H   LIG    1        7.306   1.139   0.834  0.00  0.00    +0.145 HD
ATOM     22  O   LIG    1        5.752   3.421  -0.544  0.00  0.00    -0.272 OA
ENDBRANCH  11  18
BRANCH   6  23
ATOM     23  O   LIG    1        4.123  -0.692   2.495  0.00  0.00    -0.495 OA
ATOM     24  H   LIG    1        4.077   0.243   2.517  0.00  0.00    +0.293 HD
ENDBRANCH   6  23
TORSDOF 2
