REMARK  Name = ZINC03839141
REMARK                            x       y       z     vdW  Elec       q    Type
REMARK                         _______ _______ _______ _____ _____    ______ ____
ROOT
ATOM      1  C   LIG    1        1.628  -4.092   1.395  0.00  0.00    +0.155 C 
ATOM      2  N   LIG    1        0.900  -2.888   1.803  0.00  0.00    -0.281 N 
ATOM      3  C   LIG    1        0.443  -1.998   0.845  0.00  0.00    +0.147 A 
ATOM      4  N   LIG    1        0.510  -1.966  -0.489  0.00  0.00    -0.313 N 
ATOM      5  H   LIG    1        0.966  -2.676  -1.074  0.00  0.00    +0.170 HD
ATOM      6  C   LIG    1       -0.098  -0.886  -0.941  0.00  0.00    +0.178 A 
ATOM      7  N   LIG    1       -0.579  -0.165   0.106  0.00  0.00    -0.303 N 
ATOM      8  C   LIG    1       -0.246  -0.862   1.260  0.00  0.00    +0.151 A 
ATOM      9  C   LIG    1       -0.457  -0.651   2.634  0.00  0.00    +0.282 A 
ATOM     10  N   LIG    1        0.013  -1.553   3.520  0.00  0.00    -0.262 N 
ATOM     11  C   LIG    1       -0.204  -1.337   4.953  0.00  0.00    +0.157 C 
ATOM     12  O   LIG    1       -1.057   0.337   3.019  0.00  0.00    -0.265 OA
ATOM     13  C   LIG    1        0.677  -2.647   3.109  0.00  0.00    +0.333 A 
ATOM     14  O   LIG    1        1.085  -3.439   3.937  0.00  0.00    -0.246 OA
ENDROOT
BRANCH   6  15
ATOM     15  N   LIG    1       -0.222  -0.542  -2.267  0.00  0.00    -0.306 N 
ATOM     16  C   LIG    1        0.942   0.232  -2.721  0.00  0.00    +0.089 C 
ATOM     17  C   LIG    1        0.729   0.662  -4.175  0.00  0.00    -0.063 C 
ATOM     18  N   LIG    1        0.540  -0.532  -5.019  0.00  0.00    +0.381 N 
ATOM     19  H   LIG    1        0.390  -0.239  -5.992  0.00  0.00    -0.086 HD
ATOM     20  H   LIG    1        1.379  -1.122  -4.965  0.00  0.00    -0.086 HD
ATOM     21  C   LIG    1       -0.629  -1.305  -4.558  0.00  0.00    -0.063 C 
ATOM     22  C   LIG    1       -0.417  -1.734  -3.104  0.00  0.00    +0.089 C 
ENDBRANCH   6  15
BRANCH   7  23
ATOM     23  C   LIG    1       -1.312   1.101   0.032  0.00  0.00    +0.160 C 
BRANCH  23  24
ATOM     24  C   LIG    1       -2.775   0.822  -0.197  0.00  0.00    -0.028 A 
ATOM     25  C   LIG    1       -3.265   0.710  -1.484  0.00  0.00    +0.005 A 
ATOM     26  C   LIG    1       -4.606   0.448  -1.694  0.00  0.00    +0.000 A 
ATOM     27  C   LIG    1       -5.460   0.309  -0.615  0.00  0.00    +0.000 A 
ATOM     28  C   LIG    1       -4.971   0.427   0.673  0.00  0.00    +0.000 A 
ATOM     29  C   LIG    1       -3.629   0.683   0.882  0.00  0.00    +0.005 A 
ENDBRANCH  23  24
ENDBRANCH   7  23
TORSDOF 3
