REMARK  Name = ZINC03781952
REMARK                            x       y       z     vdW  Elec       q    Type
REMARK                         _______ _______ _______ _____ _____    ______ ____
ROOT
ATOM      1  N   LIG    1        6.515  -2.308  -7.806  0.00  0.00    +0.380 N 
ATOM      2  H   LIG    1        6.362  -3.305  -7.782  0.00  0.00    -0.082 HD
ATOM      3  C   LIG    1        5.754  -1.727  -8.919  0.00  0.00    -0.076 C 
ATOM      4  C   LIG    1        6.165  -2.401 -10.230  0.00  0.00    +0.013 C 
ATOM      5  C   LIG    1        7.663  -2.180 -10.463  0.00  0.00    +0.116 C 
ATOM      6  C   LIG    1        8.442  -2.724  -9.262  0.00  0.00    +0.013 C 
ATOM      7  C   LIG    1        7.946  -2.038  -7.987  0.00  0.00    -0.076 C 
ENDROOT
BRANCH   1   8
ATOM      8  C   LIG    1        6.062  -1.713  -6.542  0.00  0.00    -0.078 C 
BRANCH   8   9
ATOM      9  C   LIG    1        4.603  -2.099  -6.291  0.00  0.00    -0.011 C 
BRANCH   9  10
ATOM     10  C   LIG    1        4.130  -1.479  -4.974  0.00  0.00    +0.078 C 
BRANCH  10  11
ATOM     11  C   LIG    1        2.693  -1.859  -4.727  0.00  0.00    +0.163 C 
ATOM     12  O   LIG    1        2.105  -2.557  -5.526  0.00  0.00    -0.292 OA
BRANCH  11  16
ATOM     13  C   LIG    1        0.707  -0.490  -1.238  0.00  0.00    -0.042 A 
ATOM     14  C   LIG    1        0.032  -1.285  -2.147  0.00  0.00    +0.005 A 
ATOM     15  C   LIG    1        0.670  -1.734  -3.284  0.00  0.00    +0.011 A 
ATOM     16  C   LIG    1        2.004  -1.384  -3.517  0.00  0.00    +0.017 A 
ATOM     17  C   LIG    1        2.680  -0.580  -2.593  0.00  0.00    +0.011 A 
ATOM     18  C   LIG    1        2.026  -0.134  -1.464  0.00  0.00    +0.005 A 
BRANCH  13  20
ATOM     19  C   LIG    1       -0.019   1.526   0.010  0.00  0.00    +0.015 C 
ATOM     20  C   LIG    1        0.002  -0.004   0.002  0.00  0.00    -0.013 C 
ATOM     21  C   LIG    1       -1.433  -0.534   0.013  0.00  0.00    +0.015 C 
ATOM     22  C   LIG    1        0.742  -0.511   1.242  0.00  0.00    +0.015 C 
ENDBRANCH  13  20
ENDBRANCH  11  16
ENDBRANCH  10  11
ENDBRANCH   9  10
ENDBRANCH   8   9
ENDBRANCH   1   8
BRANCH   5  23
ATOM     23  O   LIG    1        8.068  -2.870 -11.647  0.00  0.00    -0.364 OA
BRANCH  23  24
ATOM     24  C   LIG    1        9.159  -2.253 -12.334  0.00  0.00    +0.179 C 
BRANCH  24  25
ATOM     25  C   LIG    1        8.625  -1.264 -13.339  0.00  0.00    -0.014 A 
ATOM     26  C   LIG    1        7.441  -1.525 -14.003  0.00  0.00    +0.006 A 
ATOM     27  C   LIG    1        6.951  -0.619 -14.924  0.00  0.00    +0.000 A 
ATOM     28  C   LIG    1        7.646   0.549 -15.182  0.00  0.00    +0.000 A 
ATOM     29  C   LIG    1        8.829   0.809 -14.518  0.00  0.00    +0.000 A 
ATOM     30  C   LIG    1        9.317  -0.095 -13.593  0.00  0.00    +0.006 A 
ENDBRANCH  24  25
BRANCH  24  31
ATOM     31  C   LIG    1        9.965  -3.308 -13.047  0.00  0.00    -0.014 A 
ATOM     32  C   LIG    1        9.325  -4.351 -13.689  0.00  0.00    +0.006 A 
ATOM     33  C   LIG    1       10.064  -5.319 -14.343  0.00  0.00    +0.000 A 
ATOM     34  C   LIG    1       11.444  -5.243 -14.355  0.00  0.00    +0.000 A 
ATOM     35  C   LIG    1       12.085  -4.199 -13.713  0.00  0.00    +0.000 A 
ATOM     36  C   LIG    1       11.345  -3.229 -13.063  0.00  0.00    +0.006 A 
ENDBRANCH  24  31
ENDBRANCH  23  24
ENDBRANCH   5  23
TORSDOF 10
