REMARK  Name = ZINC03872568
REMARK                            x       y       z     vdW  Elec       q    Type
REMARK                         _______ _______ _______ _____ _____    ______ ____
ROOT
ATOM      1  N   LIG    1        1.240  -2.082  -0.008  0.00  0.00    -0.214 N 
ATOM      2  C   LIG    1        0.154  -2.900   0.074  0.00  0.00    +0.137 A 
ATOM      3  C   LIG    1        0.596  -4.183   0.013  0.00  0.00    +0.124 A 
ATOM      4  C   LIG    1        2.001  -4.149  -0.111  0.00  0.00    +0.180 A 
ATOM      5  N   LIG    1        2.381  -2.885  -0.129  0.00  0.00    -0.153 NA
ENDROOT
BRANCH   1  11
ATOM      6  C   LIG    1        0.625   1.369   1.116  0.00  0.00    +0.034 A 
ATOM      7  C   LIG    1        1.175   2.087   0.070  0.00  0.00    +0.058 A 
ATOM      8  C   LIG    1        1.747   1.425  -1.001  0.00  0.00    +0.034 A 
ATOM      9  C   LIG    1        1.771   0.044  -1.030  0.00  0.00    +0.068 A 
ATOM     10 CL   LIG    1        2.488  -0.785  -2.376  0.00  0.00    -0.081 Cl
ATOM     11  C   LIG    1        1.218  -0.681   0.019  0.00  0.00    +0.104 A 
ATOM     12  C   LIG    1        0.645  -0.013   1.093  0.00  0.00    +0.068 A 
ATOM     13 CL   LIG    1       -0.047  -0.913   2.407  0.00  0.00    -0.081 Cl
BRANCH   7  14
ATOM     14  C   LIG    1        1.151   3.593   0.097  0.00  0.00    +0.418 C 
ATOM     15  F   LIG    1        0.026   4.029   0.805  0.00  0.00    -0.166 F 
ATOM     16  F   LIG    1        1.096   4.083  -1.212  0.00  0.00    -0.166 F 
ATOM     17  F   LIG    1        2.308   4.067   0.724  0.00  0.00    -0.166 F 
ENDBRANCH   7  14
ENDBRANCH   1  11
BRANCH   2  18
ATOM     18  N   LIG    1       -1.172  -2.495   0.199  0.00  0.00    -0.342 N 
ATOM     19  H   LIG    1       -1.871  -3.154   0.334  0.00  0.00    +0.144 HD
ATOM     20  H   LIG    1       -1.398  -1.552   0.151  0.00  0.00    +0.144 HD
ENDBRANCH   2  18
BRANCH   3  21
ATOM     21  S   LIG    1       -0.406  -5.631   0.076  0.00  0.00    +0.163 S 
ATOM     22  O   LIG    1       -1.576  -5.210   0.764  0.00  0.00    -0.243 OA
BRANCH  21  23
ATOM     23  C   LIG    1       -0.811  -5.961  -1.661  0.00  0.00    +0.477 C 
ATOM     24  F   LIG    1       -1.499  -4.867  -2.195  0.00  0.00    -0.158 F 
ATOM     25  F   LIG    1       -1.614  -7.104  -1.743  0.00  0.00    -0.158 F 
ATOM     26  F   LIG    1        0.369  -6.168  -2.383  0.00  0.00    -0.158 F 
ENDBRANCH  21  23
ENDBRANCH   3  21
BRANCH   4  27
ATOM     27  C   LIG    1        2.864  -5.287  -0.207  0.00  0.00    +0.122 C 
ATOM     28  N   LIG    1        3.549  -6.191  -0.283  0.00  0.00    -0.189 NA
ENDBRANCH   4  27
TORSDOF 6
