REMARK  Name = ZINC03805768
REMARK                            x       y       z     vdW  Elec       q    Type
REMARK                         _______ _______ _______ _____ _____    ______ ____
ROOT
ATOM      1  C   LIG    1       -0.071  -0.103   2.448  0.00  0.00    +0.000 C 
ENDROOT
BRANCH   1   2
ATOM      2  C   LIG    1        0.713  -0.491   1.192  0.00  0.00    -0.078 C 
BRANCH   2   4
ATOM      3  C   LIG    1       -0.018   1.465   0.010  0.00  0.00    -0.096 C 
ATOM      4  N   LIG    1        0.002  -0.004   0.002  0.00  0.00    +0.378 N 
ATOM      5  H   LIG    1       -0.945  -0.353   0.009  0.00  0.00    -0.082 HD
BRANCH   4   6
ATOM      6  C   LIG    1        0.690  -0.478  -1.207  0.00  0.00    -0.071 C 
BRANCH   6   7
ATOM      7  C   LIG    1       -0.118  -0.077  -2.443  0.00  0.00    +0.007 C 
ATOM      8  C   LIG    1        0.179   1.344  -2.920  0.00  0.00    +0.042 C 
ATOM      9  C   LIG    1        0.724   0.665  -4.160  0.00  0.00    -0.040 A 
ATOM     10  C   LIG    1        1.315   0.857  -5.403  0.00  0.00    +0.053 A 
ATOM     11  C   LIG    1        1.630  -0.233  -6.201  0.00  0.00    +0.162 A 
ATOM     12  C   LIG    1        1.356  -1.524  -5.759  0.00  0.00    +0.162 A 
ATOM     13  C   LIG    1        0.767  -1.712  -4.519  0.00  0.00    +0.053 A 
ATOM     14  C   LIG    1        0.454  -0.623  -3.727  0.00  0.00    -0.039 A 
BRANCH  11  15
ATOM     15  O   LIG    1        2.208  -0.039  -7.416  0.00  0.00    -0.491 OA
ATOM     16  C   LIG    1        2.462   1.312  -7.806  0.00  0.00    +0.277 C 
ENDBRANCH  11  15
BRANCH  12  17
ATOM     17  O   LIG    1        1.665  -2.594  -6.539  0.00  0.00    -0.491 OA
ATOM     18  C   LIG    1        1.354  -3.888  -6.018  0.00  0.00    +0.277 C 
ENDBRANCH  12  17
ENDBRANCH   6   7
ENDBRANCH   4   6
ENDBRANCH   2   4
ENDBRANCH   1   2
BRANCH   1  19
ATOM     19  C   LIG    1        0.669  -0.610   3.687  0.00  0.00    +0.106 C 
BRANCH  19  20
ATOM     20  N   LIG    1       -0.082  -0.239   4.890  0.00  0.00    -0.301 N 
ATOM     21  C   LIG    1        0.286   1.053   5.432  0.00  0.00    +0.112 C 
ATOM     22  C   LIG    1       -0.257   1.280   6.830  0.00  0.00    +0.054 C 
ATOM     23  C   LIG    1       -1.756   1.333   6.834  0.00  0.00    -0.039 A 
ATOM     24  C   LIG    1       -2.377   2.558   7.059  0.00  0.00    +0.053 A 
ATOM     25  C   LIG    1       -3.758   2.646   7.041  0.00  0.00    +0.162 A 
ATOM     26  C   LIG    1       -4.526   1.511   6.794  0.00  0.00    +0.162 A 
ATOM     27  C   LIG    1       -3.898   0.293   6.582  0.00  0.00    +0.053 A 
ATOM     28  C   LIG    1       -2.517   0.223   6.621  0.00  0.00    -0.032 A 
ATOM     29  C   LIG    1       -1.833  -1.113   6.470  0.00  0.00    +0.131 C 
ATOM     30  C   LIG    1       -0.958  -1.138   5.263  0.00  0.00    +0.220 C 
ATOM     31  O   LIG    1       -1.069  -2.108   4.543  0.00  0.00    -0.275 OA
BRANCH  25  32
ATOM     32  O   LIG    1       -4.365   3.842   7.264  0.00  0.00    -0.491 OA
ATOM     33  C   LIG    1       -3.517   4.965   7.510  0.00  0.00    +0.277 C 
ENDBRANCH  25  32
BRANCH  26  34
ATOM     34  O   LIG    1       -5.883   1.597   6.763  0.00  0.00    -0.491 OA
ATOM     35  C   LIG    1       -6.603   0.390   6.504  0.00  0.00    +0.277 C 
ENDBRANCH  26  34
ENDBRANCH  19  20
ENDBRANCH   1  19
TORSDOF 10
