REMARK  Name = ZINC03794739
REMARK                            x       y       z     vdW  Elec       q    Type
REMARK                         _______ _______ _______ _____ _____    ______ ____
ROOT
ATOM      1  C   LIG    1       -2.500   6.957  -6.801  0.00  0.00    +0.005 C 
ATOM      2  C   LIG    1       -2.622   6.976  -5.449  0.00  0.00    +0.067 C 
ENDROOT
BRANCH   2   3
ATOM      3  C   LIG    1       -3.569   6.139  -4.811  0.00  0.00    +0.237 C 
ATOM      4  N   LIG    1       -3.689   6.157  -3.469  0.00  0.00    -0.309 N 
ATOM      5  H   LIG    1       -3.126   6.744  -2.940  0.00  0.00    +0.149 HD
ATOM      6  O   LIG    1       -4.275   5.402  -5.476  0.00  0.00    -0.271 OA
BRANCH   4   7
ATOM      7  C   LIG    1       -4.669   5.291  -2.809  0.00  0.00    +0.070 C 
ATOM      8  C   LIG    1       -6.033   5.984  -2.794  0.00  0.00    +0.028 C 
BRANCH   7   9
ATOM      9  C   LIG    1       -4.221   5.016  -1.373  0.00  0.00    +0.022 C 
BRANCH   9  10
ATOM     10  C   LIG    1       -2.919   4.213  -1.389  0.00  0.00    +0.006 C 
BRANCH  10  11
ATOM     11  C   LIG    1       -2.471   3.938   0.047  0.00  0.00    +0.037 C 
BRANCH  11  12
ATOM     12  C   LIG    1       -1.188   3.148   0.031  0.00  0.00    -0.029 A 
ATOM     13  C   LIG    1       -1.217   1.761   0.017  0.00  0.00    +0.006 A 
ATOM     14  C   LIG    1       -0.013   1.076   0.008  0.00  0.00    +0.020 A 
ATOM     15  C   LIG    1        1.170   1.792   0.001  0.00  0.00    +0.111 A 
ATOM     16  N   LIG    1        1.160   3.110   0.008  0.00  0.00    -0.263 NA
ATOM     17  C   LIG    1        0.033   3.795   0.023  0.00  0.00    +0.114 A 
ENDBRANCH  11  12
ENDBRANCH  10  11
ENDBRANCH   9  10
ENDBRANCH   7   9
ENDBRANCH   4   7
ENDBRANCH   2   3
BRANCH   1  19
ATOM     18  C   LIG    1       -1.436   7.772  -8.785  0.00  0.00    -0.040 C 
ATOM     19  C   LIG    1       -1.556   7.790  -7.436  0.00  0.00    +0.004 C 
BRANCH  18  20
ATOM     20  C   LIG    1       -0.453   8.640  -9.446  0.00  0.00    -0.022 A 
ATOM     21  C   LIG    1       -0.882   9.663 -10.301  0.00  0.00    +0.012 A 
ATOM     22  C   LIG    1        0.044  10.478 -10.914  0.00  0.00    +0.046 A 
ATOM     23  C   LIG    1        1.402  10.279 -10.694  0.00  0.00    +0.120 A 
ATOM     24  C   LIG    1        1.833   9.261  -9.851  0.00  0.00    +0.046 A 
ATOM     25  C   LIG    1        0.916   8.444  -9.229  0.00  0.00    +0.012 A 
BRANCH  23  26
ATOM     26  O   LIG    1        2.310  11.081 -11.306  0.00  0.00    -0.495 OA
ATOM     27  C   LIG    1        1.799  12.107 -12.159  0.00  0.00    +0.277 C 
ENDBRANCH  23  26
ENDBRANCH  18  20
BRANCH  18  28
ATOM     28  C   LIG    1       -2.310   6.860  -9.607  0.00  0.00    +0.036 C 
BRANCH  28  29
ATOM     29  C   LIG    1       -3.538   7.633 -10.093  0.00  0.00    +0.005 C 
BRANCH  29  30
ATOM     30  C   LIG    1       -4.425   6.707 -10.928  0.00  0.00    +0.000 C 
BRANCH  30  32
ATOM     31  C   LIG    1       -6.540   6.554 -12.248  0.00  0.00    +0.004 C 
ATOM     32  C   LIG    1       -5.653   7.480 -11.414  0.00  0.00    -0.003 C 
ENDBRANCH  30  32
ENDBRANCH  29  30
ENDBRANCH  28  29
ENDBRANCH  18  28
ENDBRANCH   1  19
TORSDOF 13
