REMARK  Name = ZINC03804565
REMARK                            x       y       z     vdW  Elec       q    Type
REMARK                         _______ _______ _______ _____ _____    ______ ____
ROOT
ATOM      1  C   LIG    1        9.653   1.661  -0.670  0.00  0.00    +0.034 A 
ATOM      2  C   LIG    1        9.941   0.366  -0.252  0.00  0.00    +0.024 A 
ATOM      3  C   LIG    1        9.031  -0.645  -0.462  0.00  0.00    +0.015 A 
ATOM      4  C   LIG    1        7.820  -0.371  -1.105  0.00  0.00    +0.037 A 
ATOM      5  C   LIG    1        7.537   0.930  -1.528  0.00  0.00    +0.015 A 
ATOM      6  C   LIG    1        8.450   1.938  -1.311  0.00  0.00    +0.024 A 
ENDROOT
BRANCH   4   7
ATOM      7  C   LIG    1        6.844  -1.453  -1.336  0.00  0.00    +0.251 C 
ATOM      8  N   LIG    1        7.257  -2.735  -1.380  0.00  0.00    -0.267 N 
ATOM      9  C   LIG    1        8.624  -3.082  -0.979  0.00  0.00    +0.114 C 
ATOM     10  C   LIG    1        8.633  -3.269   0.540  0.00  0.00    +0.018 C 
ATOM     11  C   LIG    1        7.254  -3.815   0.951  0.00  0.00    -0.009 C 
ATOM     12  C   LIG    1        6.990  -5.134   0.226  0.00  0.00    -0.037 C 
ATOM     13  C   LIG    1        6.251  -4.902  -1.068  0.00  0.00    -0.040 A 
ATOM     14  C   LIG    1        5.403  -5.899  -1.526  0.00  0.00    +0.004 A 
ATOM     15  C   LIG    1        4.689  -5.728  -2.695  0.00  0.00    +0.000 A 
ATOM     16  C   LIG    1        4.811  -4.557  -3.420  0.00  0.00    +0.002 A 
ATOM     17  C   LIG    1        5.659  -3.562  -2.977  0.00  0.00    +0.024 A 
ATOM     18  C   LIG    1        6.384  -3.738  -1.800  0.00  0.00    +0.038 A 
ATOM     19  O   LIG    1        5.667  -1.188  -1.487  0.00  0.00    -0.270 OA
BRANCH  12  20
ATOM     20  N   LIG    1        6.176  -6.029   1.075  0.00  0.00    +0.381 N 
ATOM     21  H   LIG    1        5.881  -6.840   0.518  0.00  0.00    -0.082 HD
ATOM     22  C   LIG    1        4.974  -5.315   1.555  0.00  0.00    -0.096 C 
ATOM     23  C   LIG    1        6.976  -6.501   2.224  0.00  0.00    -0.096 C 
ENDBRANCH  12  20
ENDBRANCH   4   7
BRANCH   1  25
ATOM     24  C   LIG    1       11.351   2.667   0.651  0.00  0.00    +0.249 C 
ATOM     25  N   LIG    1       10.575   2.683  -0.452  0.00  0.00    -0.281 N 
ATOM     26  H   LIG    1       10.659   3.406  -1.093  0.00  0.00    +0.155 HD
ATOM     27  O   LIG    1       11.194   1.803   1.491  0.00  0.00    -0.270 OA
BRANCH  24  34
ATOM     28  C   LIG    1       13.015   2.609   3.016  0.00  0.00    +0.044 C 
ATOM     29  C   LIG    1       13.196   3.686   1.978  0.00  0.00    -0.038 A 
ATOM     30  C   LIG    1       14.162   4.657   2.149  0.00  0.00    +0.004 A 
ATOM     31  C   LIG    1       14.329   5.645   1.196  0.00  0.00    +0.000 A 
ATOM     32  C   LIG    1       13.531   5.669   0.066  0.00  0.00    +0.001 A 
ATOM     33  C   LIG    1       12.565   4.702  -0.119  0.00  0.00    +0.013 A 
ATOM     34  C   LIG    1       12.387   3.704   0.841  0.00  0.00    +0.040 A 
ENDBRANCH  24  34
ENDBRANCH   1  25
TORSDOF 4
