REMARK  Name = ZINC03775575
REMARK                            x       y       z     vdW  Elec       q    Type
REMARK                         _______ _______ _______ _____ _____    ______ ____
ROOT
ATOM      1  C   LIG    1       -0.133   0.987  -0.093  0.00  0.00    +0.044 C 
ATOM      2  C   LIG    1       -0.153  -0.503   0.130  0.00  0.00    -0.039 A 
ATOM      3  C   LIG    1       -0.246  -1.340  -0.937  0.00  0.00    +0.013 A 
ATOM      4  C   LIG    1       -0.266  -2.733  -0.742  0.00  0.00    -0.006 A 
ATOM      5  C   LIG    1       -0.187  -3.255   0.572  0.00  0.00    +0.038 A 
ATOM      6  C   LIG    1       -0.091  -2.381   1.662  0.00  0.00    +0.133 A 
ATOM      7  C   LIG    1       -0.209  -4.708   0.762  0.00  0.00    +0.070 A 
ATOM      8  C   LIG    1       -0.306  -5.529  -0.366  0.00  0.00    +0.170 A 
ATOM      9  C   LIG    1       -0.381  -4.964  -1.644  0.00  0.00    +0.163 A 
ATOM     10  C   LIG    1       -0.363  -3.615  -1.833  0.00  0.00    +0.008 A 
ATOM     11  C   LIG    1       -0.069  -1.008   1.436  0.00  0.00    +0.031 A 
ENDROOT
BRANCH  11  12
ATOM     12  C   LIG    1        0.039  -0.075   2.581  0.00  0.00    +0.031 A 
ATOM     13  C   LIG    1        1.303   0.340   3.027  0.00  0.00    -0.039 A 
ATOM     14  C   LIG    1        2.540  -0.172   2.335  0.00  0.00    +0.044 C 
ATOM     15  C   LIG    1        1.426   1.196   4.075  0.00  0.00    +0.013 A 
ATOM     16  C   LIG    1        0.280   1.680   4.730  0.00  0.00    -0.006 A 
ATOM     17  C   LIG    1       -1.001   1.269   4.290  0.00  0.00    +0.038 A 
ATOM     18  C   LIG    1       -2.188   1.781   4.980  0.00  0.00    +0.070 A 
ATOM     19  C   LIG    1       -2.011   2.660   6.054  0.00  0.00    +0.170 A 
ATOM     20  C   LIG    1       -0.722   3.036   6.451  0.00  0.00    +0.163 A 
ATOM     21  C   LIG    1        0.388   2.567   5.816  0.00  0.00    +0.008 A 
ATOM     22  C   LIG    1       -1.115   0.391   3.205  0.00  0.00    +0.133 A 
BRANCH  21  23
ATOM     23  C   LIG    1        1.752   3.004   6.285  0.00  0.00    +0.017 C 
ATOM     24  C   LIG    1        1.966   2.546   7.729  0.00  0.00    +0.012 C 
ATOM     25  C   LIG    1        1.852   4.529   6.214  0.00  0.00    +0.012 C 
ENDBRANCH  21  23
BRANCH  18  26
ATOM     26  C   LIG    1       -3.529   1.382   4.556  0.00  0.00    +0.263 C 
ATOM     27  O   LIG    1       -4.504   1.886   5.074  0.00  0.00    -0.296 OA
ENDBRANCH  18  26
BRANCH  19  28
ATOM     28  O   LIG    1       -3.090   3.149   6.711  0.00  0.00    -0.503 OA
ATOM     29  H   LIG    1       -3.375   2.606   7.459  0.00  0.00    +0.292 HD
ENDBRANCH  19  28
BRANCH  20  30
ATOM     30  O   LIG    1       -0.575   3.892   7.497  0.00  0.00    -0.503 OA
ATOM     31  H   LIG    1       -0.504   3.454   8.356  0.00  0.00    +0.292 HD
ENDBRANCH  20  30
BRANCH  22  32
ATOM     32  O   LIG    1       -2.338  -0.006   2.769  0.00  0.00    -0.506 OA
ATOM     33  H   LIG    1       -2.668  -0.807   3.200  0.00  0.00    +0.292 HD
ENDBRANCH  22  32
ENDBRANCH  11  12
BRANCH  10  34
ATOM     34  C   LIG    1       -0.447  -3.059  -3.232  0.00  0.00    +0.017 C 
ATOM     35  C   LIG    1       -1.782  -3.462  -3.861  0.00  0.00    +0.012 C 
ATOM     36  C   LIG    1        0.703  -3.618  -4.072  0.00  0.00    +0.012 C 
ENDBRANCH  10  34
BRANCH   6  37
ATOM     37  O   LIG    1       -0.015  -2.870   2.928  0.00  0.00    -0.506 OA
ATOM     38  H   LIG    1        0.888  -3.032   3.233  0.00  0.00    +0.292 HD
ENDBRANCH   6  37
BRANCH   7  39
ATOM     39  C   LIG    1       -0.129  -5.287   2.102  0.00  0.00    +0.263 C 
ATOM     40  O   LIG    1       -0.244  -6.486   2.253  0.00  0.00    -0.296 OA
ENDBRANCH   7  39
BRANCH   8  41
ATOM     41  O   LIG    1       -0.328  -6.876  -0.220  0.00  0.00    -0.503 OA
ATOM     42  H   LIG    1       -1.215  -7.246  -0.117  0.00  0.00    +0.292 HD
ENDBRANCH   8  41
BRANCH   9  43
ATOM     43  O   LIG    1       -0.475  -5.783  -2.725  0.00  0.00    -0.503 OA
ATOM     44  H   LIG    1       -1.383  -5.999  -2.977  0.00  0.00    +0.292 HD
ENDBRANCH   9  43
TORSDOF 11
