REMARK  Name = ZINC03641317
REMARK                            x       y       z     vdW  Elec       q    Type
REMARK                         _______ _______ _______ _____ _____    ______ ____
ROOT
ATOM      1  C   LIG    1       -4.325   2.326  -5.816  0.00  0.00    +0.001 C 
ENDROOT
BRANCH   1   2
ATOM      2  C   LIG    1       -2.900   2.266  -5.263  0.00  0.00    +0.015 C 
BRANCH   2   3
ATOM      3  C   LIG    1       -2.796   3.155  -4.022  0.00  0.00    +0.081 C 
BRANCH   3   4
ATOM      4  N   LIG    1       -1.428   3.097  -3.491  0.00  0.00    -0.313 NA
ATOM      5  H   LIG    1       -0.762   3.431  -4.172  0.00  0.00    +0.122 HD
BRANCH   4  18
ATOM      6  C   LIG    1       -0.789   7.268  -3.474  0.00  0.00    +0.000 C 
ATOM      7  C   LIG    1       -0.694   7.940  -2.258  0.00  0.00    +0.002 C 
ATOM      8  C   LIG    1       -0.802   7.273  -1.077  0.00  0.00    +0.019 C 
ATOM      9  C   LIG    1       -1.012   5.883  -1.077  0.00  0.00    +0.058 C 
ATOM     10  N   LIG    1       -1.117   5.242   0.138  0.00  0.00    -0.310 NA
ATOM     11  H   LIG    1       -1.045   5.750   1.027  0.00  0.00    +0.122 HD
ATOM     12  C   LIG    1       -1.321   3.893   0.093  0.00  0.00    +0.058 C 
ATOM     13  C   LIG    1       -1.412   3.246   1.454  0.00  0.00    +0.019 C 
ATOM     14  C   LIG    1       -2.063   1.869   1.352  0.00  0.00    +0.002 C 
ATOM     15  C   LIG    1       -1.332   1.065   0.270  0.00  0.00    +0.000 C 
ATOM     16  C   LIG    1       -1.666   1.675  -1.090  0.00  0.00    +0.006 C 
ATOM     17  C   LIG    1       -1.431   3.162  -1.077  0.00  0.00    +0.023 C 
ATOM     18  C   LIG    1       -1.325   3.808  -2.305  0.00  0.00    +0.063 C 
ATOM     19  C   LIG    1       -1.110   5.204  -2.315  0.00  0.00    +0.023 C 
ATOM     20  C   LIG    1       -0.993   5.921  -3.513  0.00  0.00    +0.006 C 
ENDBRANCH   4  18
ENDBRANCH   3   4
ENDBRANCH   2   3
ENDBRANCH   1   2
BRANCH   1  21
ATOM     21  C   LIG    1       -4.429   1.437  -7.057  0.00  0.00    +0.001 C 
BRANCH  21  22
ATOM     22  C   LIG    1       -5.854   1.497  -7.610  0.00  0.00    +0.015 C 
BRANCH  22  23
ATOM     23  C   LIG    1       -5.957   0.608  -8.851  0.00  0.00    +0.081 C 
BRANCH  23  24
ATOM     24  N   LIG    1       -7.326   0.665  -9.381  0.00  0.00    -0.313 NA
ATOM     25  H   LIG    1       -8.002   0.458  -8.662  0.00  0.00    +0.122 HD
BRANCH  24  26
ATOM     26  C   LIG    1       -7.475  -0.187 -10.464  0.00  0.00    +0.063 C 
ATOM     27  C   LIG    1       -7.745  -1.560 -10.271  0.00  0.00    +0.023 C 
ATOM     28  C   LIG    1       -7.881  -2.110  -8.990  0.00  0.00    +0.006 C 
ATOM     29  C   LIG    1       -8.148  -3.439  -8.852  0.00  0.00    +0.000 C 
ATOM     30  C   LIG    1       -8.293  -4.257  -9.970  0.00  0.00    +0.002 C 
ATOM     31  C   LIG    1       -8.172  -3.754 -11.228  0.00  0.00    +0.019 C 
ATOM     32  C   LIG    1       -7.897  -2.387 -11.410  0.00  0.00    +0.058 C 
ATOM     33  N   LIG    1       -7.782  -1.914 -12.698  0.00  0.00    -0.310 NA
ATOM     34  H   LIG    1       -7.894  -2.528 -13.514  0.00  0.00    +0.122 HD
ATOM     35  C   LIG    1       -7.510  -0.582 -12.831  0.00  0.00    +0.058 C 
ATOM     36  C   LIG    1       -7.384  -0.127 -14.264  0.00  0.00    +0.019 C 
ATOM     37  C   LIG    1       -7.521   1.391 -14.360  0.00  0.00    +0.002 C 
ATOM     38  C   LIG    1       -6.551   2.030 -13.360  0.00  0.00    +0.000 C 
ATOM     39  C   LIG    1       -7.066   1.755 -11.948  0.00  0.00    +0.006 C 
ATOM     40  C   LIG    1       -7.356   0.288 -11.767  0.00  0.00    +0.023 C 
ENDBRANCH  24  26
ENDBRANCH  23  24
ENDBRANCH  22  23
ENDBRANCH  21  22
ENDBRANCH   1  21
TORSDOF 9
