REMARK  Name = ZINC03806239
REMARK                            x       y       z     vdW  Elec       q    Type
REMARK                         _______ _______ _______ _____ _____    ______ ____
ROOT
ATOM      1  C   LIG    1       -0.017   1.378   0.010  0.00  0.00    +0.001 A 
ATOM      2  C   LIG    1        1.171   2.086   0.002  0.00  0.00    +0.003 A 
ATOM      3  C   LIG    1        2.377   1.411  -0.013  0.00  0.00    -0.046 A 
ATOM      4  C   LIG    1        2.396   0.029  -0.020  0.00  0.00    +0.007 A 
ATOM      5  C   LIG    1        1.208  -0.679  -0.012  0.00  0.00    -0.046 A 
ATOM      6  C   LIG    1        0.002  -0.004   0.002  0.00  0.00    +0.003 A 
ENDROOT
BRANCH   3   7
ATOM      7  C   LIG    1        3.672   2.182  -0.022  0.00  0.00    +0.046 C 
BRANCH   7   8
ATOM      8  C   LIG    1        4.124   2.436   1.417  0.00  0.00    +0.082 C 
BRANCH   8   9
ATOM      9  S   LIG    1        5.683   3.365   1.406  0.00  0.00    -0.093 S 
BRANCH   9  10
ATOM     10  C   LIG    1        6.066   3.575   3.113  0.00  0.00    +0.123 C 
ATOM     11  N   LIG    1        7.337   3.656   3.506  0.00  0.00    -0.382 N 
ATOM     12  H   LIG    1        7.548   3.772   4.445  0.00  0.00    +0.158 HD
ATOM     13  H   LIG    1        8.051   3.599   2.852  0.00  0.00    +0.158 HD
BRANCH  10  14
ATOM     14  N   LIG    1        5.085   3.652   4.012  0.00  0.00    -0.340 N 
ATOM     15  H   LIG    1        5.295   3.768   4.951  0.00  0.00    +0.144 HD
ATOM     16  H   LIG    1        4.160   3.593   3.726  0.00  0.00    +0.144 HD
ENDBRANCH  10  14
ENDBRANCH   9  10
ENDBRANCH   8   9
ENDBRANCH   7   8
ENDBRANCH   3   7
BRANCH   5  17
ATOM     17  C   LIG    1        1.229  -2.186  -0.020  0.00  0.00    +0.046 C 
BRANCH  17  18
ATOM     18  C   LIG    1        1.251  -2.703   1.420  0.00  0.00    +0.082 C 
BRANCH  18  19
ATOM     19  S   LIG    1        1.275  -4.517   1.410  0.00  0.00    -0.093 S 
BRANCH  19  20
ATOM     20  C   LIG    1        1.299  -4.952   3.117  0.00  0.00    +0.123 C 
ATOM     21  N   LIG    1        0.741  -6.094   3.522  0.00  0.00    -0.382 N 
ATOM     22  H   LIG    1        0.754  -6.333   4.461  0.00  0.00    +0.158 HD
ATOM     23  H   LIG    1        0.322  -6.684   2.876  0.00  0.00    +0.158 HD
BRANCH  20  24
ATOM     24  N   LIG    1        1.874  -4.141   4.004  0.00  0.00    -0.340 N 
ATOM     25  H   LIG    1        1.887  -4.380   4.944  0.00  0.00    +0.144 HD
ATOM     26  H   LIG    1        2.280  -3.310   3.710  0.00  0.00    +0.144 HD
ENDBRANCH  20  24
ENDBRANCH  19  20
ENDBRANCH  18  19
ENDBRANCH  17  18
ENDBRANCH   5  17
TORSDOF 10
