REMARK  Name = ZINC03658930
REMARK                            x       y       z     vdW  Elec       q    Type
REMARK                         _______ _______ _______ _____ _____    ______ ____
ROOT
ATOM      1  C   LIG    1        6.366  -4.560  -0.079  0.00  0.00    +0.086 A 
ATOM      2  C   LIG    1        7.442  -3.710  -0.084  0.00  0.00    +0.075 A 
ATOM      3  S   LIG    1        6.614  -2.125  -0.069  0.00  0.00    -0.075 S 
ATOM      4  C   LIG    1        4.939  -2.749  -0.058  0.00  0.00    +0.116 A 
ATOM      5  N   LIG    1        5.144  -4.058  -0.061  0.00  0.00    -0.239 NA
ENDROOT
BRANCH   1  12
ATOM      6  C   LIG    1        4.958 -10.575  -0.096  0.00  0.00    +0.001 A 
ATOM      7  C   LIG    1        6.266 -11.039  -0.109  0.00  0.00    +0.004 A 
ATOM      8  C   LIG    1        7.325 -10.155  -0.114  0.00  0.00    +0.047 A 
ATOM      9  C   LIG    1        7.086  -8.786  -0.105  0.00  0.00    +0.139 A 
ATOM     10  C   LIG    1        5.760  -8.320  -0.092  0.00  0.00    +0.018 A 
ATOM     11  C   LIG    1        5.500  -6.879  -0.083  0.00  0.00    +0.028 A 
ATOM     12  C   LIG    1        6.571  -6.027  -0.088  0.00  0.00    +0.086 A 
ATOM     13  C   LIG    1        7.925  -6.589  -0.108  0.00  0.00    +0.347 A 
ATOM     14  O   LIG    1        8.886  -5.842  -0.118  0.00  0.00    -0.244 OA
ATOM     15  O   LIG    1        8.119  -7.917  -0.109  0.00  0.00    -0.422 OA
ATOM     16  C   LIG    1        4.699  -9.234  -0.087  0.00  0.00    +0.011 A 
ENDBRANCH   1  12
BRANCH   4  17
ATOM     17  C   LIG    1        3.666  -2.005  -0.043  0.00  0.00    +0.092 A 
ATOM     18  C   LIG    1        3.660  -0.623  -0.036  0.00  0.00    +0.029 A 
ATOM     19  C   LIG    1        2.414   0.054  -0.021  0.00  0.00    +0.018 A 
ATOM     20  C   LIG    1        2.374   1.457  -0.013  0.00  0.00    +0.015 A 
ATOM     21  C   LIG    1        1.175   2.104   0.002  0.00  0.00    +0.046 A 
ATOM     22  C   LIG    1       -0.017   1.381   0.010  0.00  0.00    +0.120 A 
ATOM     23  C   LIG    1        0.002  -0.004   0.002  0.00  0.00    +0.092 A 
ATOM     24  C   LIG    1        1.214  -0.681  -0.013  0.00  0.00    +0.143 A 
ATOM     25  O   LIG    1        1.230  -2.031  -0.020  0.00  0.00    -0.422 OA
ATOM     26  C   LIG    1        2.384  -2.718  -0.034  0.00  0.00    +0.347 A 
ATOM     27  O   LIG    1        2.367  -3.935  -0.040  0.00  0.00    -0.244 OA
BRANCH  22  28
ATOM     28  O   LIG    1       -1.204   2.038   0.019  0.00  0.00    -0.507 OA
ATOM     29  H   LIG    1       -1.544   2.224   0.905  0.00  0.00    +0.292 HD
ENDBRANCH  22  28
ENDBRANCH   4  17
TORSDOF 3
