REMARK  Name = ZINC03820040
REMARK                            x       y       z     vdW  Elec       q    Type
REMARK                         _______ _______ _______ _____ _____    ______ ____
ROOT
ATOM      1  C   LIG    1        1.338  -2.212   0.139  0.00  0.00    +0.130 A 
ATOM      2  C   LIG    1        0.175  -2.972   0.034  0.00  0.00    +0.087 A 
ATOM      3  C   LIG    1       -1.047  -2.349   0.271  0.00  0.00    +0.127 A 
ATOM      4  N   LIG    1       -1.064  -1.056   0.589  0.00  0.00    -0.207 NA
ATOM      5  C   LIG    1        0.062  -0.365   0.679  0.00  0.00    +0.196 A 
ATOM      6  N   LIG    1        1.242  -0.923   0.456  0.00  0.00    -0.206 NA
ENDROOT
BRANCH   3   7
ATOM      7  N   LIG    1       -2.230  -3.066   0.179  0.00  0.00    -0.319 N 
ATOM      8  C   LIG    1       -2.362  -3.696  -1.142  0.00  0.00    +0.088 C 
ATOM      9  C   LIG    1       -3.638  -4.540  -1.177  0.00  0.00    -0.060 C 
ATOM     10  N   LIG    1       -4.797  -3.663  -0.905  0.00  0.00    +0.380 N 
ATOM     11  H   LIG    1       -4.823  -2.917  -1.610  0.00  0.00    -0.082 HD
ATOM     12  C   LIG    1       -6.050  -4.443  -0.984  0.00  0.00    -0.096 C 
ATOM     13  C   LIG    1       -4.664  -3.054   0.435  0.00  0.00    -0.060 C 
ATOM     14  C   LIG    1       -3.388  -2.209   0.469  0.00  0.00    +0.088 C 
ENDBRANCH   3   7
BRANCH   1  15
ATOM     15  N   LIG    1        2.578  -2.791  -0.089  0.00  0.00    -0.285 N 
ATOM     16  H   LIG    1        3.367  -2.231  -0.166  0.00  0.00    +0.155 HD
BRANCH  15  20
ATOM     17  C   LIG    1        1.804  -7.684   0.507  0.00  0.00    +0.067 C 
ATOM     18  C   LIG    1        2.369  -6.367   0.039  0.00  0.00    +0.062 A 
ATOM     19  C   LIG    1        1.933  -5.102   0.441  0.00  0.00    +0.068 A 
ATOM     20  C   LIG    1        2.690  -4.174  -0.207  0.00  0.00    +0.120 A 
ATOM     21  N   LIG    1        3.580  -4.845  -0.984  0.00  0.00    -0.264 N 
ATOM     22  H   LIG    1        4.273  -4.433  -1.575  0.00  0.00    +0.190 HD
ATOM     23  N   LIG    1        3.354  -6.216  -0.808  0.00  0.00    -0.178 NA
ENDBRANCH  15  20
ENDBRANCH   1  15
BRANCH   5  24
ATOM     24  S   LIG    1       -0.013   1.344   1.102  0.00  0.00    -0.050 S 
BRANCH  24  25
ATOM     25  C   LIG    1        1.708   1.703   1.230  0.00  0.00    +0.016 A 
ATOM     26  C   LIG    1        2.381   1.464   2.421  0.00  0.00    +0.017 A 
ATOM     27  C   LIG    1        3.729   1.741   2.520  0.00  0.00    +0.024 A 
ATOM     28  C   LIG    1        4.411   2.268   1.431  0.00  0.00    +0.033 A 
ATOM     29  C   LIG    1        3.738   2.513   0.242  0.00  0.00    +0.024 A 
ATOM     30  C   LIG    1        2.390   2.231   0.141  0.00  0.00    +0.017 A 
BRANCH  28  31
ATOM     31  N   LIG    1        5.779   2.554   1.533  0.00  0.00    -0.285 N 
ATOM     32  H   LIG    1        6.154   3.308   1.052  0.00  0.00    +0.155 HD
ATOM     33  C   LIG    1        6.574   1.781   2.300  0.00  0.00    +0.220 C 
ATOM     34  O   LIG    1        6.127   0.781   2.821  0.00  0.00    -0.275 OA
BRANCH  33  35
ATOM     35  C   LIG    1        8.018   2.158   2.509  0.00  0.00    +0.075 C 
ATOM     36  C   LIG    1        9.082   1.260   1.874  0.00  0.00    +0.013 C 
ATOM     37  C   LIG    1        8.868   1.240   3.389  0.00  0.00    +0.013 C 
ENDBRANCH  33  35
ENDBRANCH  28  31
ENDBRANCH  24  25
ENDBRANCH   5  24
TORSDOF 7
