REMARK  Name = ZINC03871633
REMARK                            x       y       z     vdW  Elec       q    Type
REMARK                         _______ _______ _______ _____ _____    ______ ____
ROOT
ATOM      1  C   LIG    1        3.695  -0.683  -0.037  0.00  0.00    +0.139 A 
ATOM      2  C   LIG    1        3.686  -2.042  -0.050  0.00  0.00    +0.098 A 
ATOM      3  C   LIG    1        4.914  -2.748  -0.067  0.00  0.00    +0.197 A 
ATOM      4  C   LIG    1        6.153  -1.952  -0.069  0.00  0.00    +0.109 A 
ATOM      5  C   LIG    1        6.049  -0.550  -0.055  0.00  0.00    +0.146 A 
ATOM      6  C   LIG    1        7.201   0.220  -0.057  0.00  0.00    +0.096 A 
ATOM      7  C   LIG    1        8.445  -0.391  -0.074  0.00  0.00    +0.166 A 
ATOM      8  C   LIG    1        8.553  -1.780  -0.088  0.00  0.00    +0.202 A 
ATOM      9  C   LIG    1        7.411  -2.566  -0.086  0.00  0.00    +0.177 A 
ATOM     10  O   LIG    1        4.944  -3.968  -0.079  0.00  0.00    -0.287 OA
ATOM     11  O   LIG    1        4.830   0.032  -0.045  0.00  0.00    -0.454 OA
ENDROOT
BRANCH   1  15
ATOM     12  C   LIG    1       -0.017   1.379   0.010  0.00  0.00    +0.000 A 
ATOM     13  C   LIG    1        1.168   2.094   0.002  0.00  0.00    +0.001 A 
ATOM     14  C   LIG    1        2.377   1.430  -0.013  0.00  0.00    +0.011 A 
ATOM     15  C   LIG    1        2.404   0.034  -0.021  0.00  0.00    +0.017 A 
ATOM     16  C   LIG    1        1.204  -0.681  -0.013  0.00  0.00    +0.011 A 
ATOM     17  C   LIG    1        0.002  -0.004   0.002  0.00  0.00    +0.001 A 
ENDBRANCH   1  15
BRANCH   7  18
ATOM     18  O   LIG    1        9.570   0.371  -0.076  0.00  0.00    -0.503 OA
ATOM     19  H   LIG    1        9.903   0.583   0.807  0.00  0.00    +0.292 HD
ENDBRANCH   7  18
BRANCH   8  20
ATOM     20  O   LIG    1        9.781  -2.367  -0.104  0.00  0.00    -0.501 OA
ATOM     21  H   LIG    1       10.144  -2.545   0.774  0.00  0.00    +0.292 HD
ENDBRANCH   8  20
BRANCH   9  22
ATOM     22  O   LIG    1        7.512  -3.920  -0.099  0.00  0.00    -0.503 OA
ATOM     23  H   LIG    1        7.533  -4.304  -0.986  0.00  0.00    +0.292 HD
ENDBRANCH   9  22
TORSDOF 4
