REMARK  Name = ZINC03871084
REMARK                            x       y       z     vdW  Elec       q    Type
REMARK                         _______ _______ _______ _____ _____    ______ ____
ROOT
ATOM      1  C   LIG    1       -3.723   2.725   1.773  0.00  0.00    +0.170 C 
ATOM      2  C   LIG    1       -3.415   1.508   1.284  0.00  0.00    +0.064 C 
ATOM      3  S   LIG    1       -3.056   1.301  -0.428  0.00  0.00    -0.083 S 
ATOM      4  C   LIG    1       -1.642   2.318  -0.693  0.00  0.00    +0.037 A 
ATOM      5  C   LIG    1       -0.460   1.729  -1.130  0.00  0.00    +0.017 A 
ATOM      6  C   LIG    1        0.652   2.509  -1.381  0.00  0.00    +0.001 A 
ATOM      7  C   LIG    1        0.592   3.877  -1.191  0.00  0.00    +0.002 A 
ATOM      8  C   LIG    1       -0.575   4.465  -0.744  0.00  0.00    +0.027 A 
ATOM      9  C   LIG    1       -1.699   3.686  -0.482  0.00  0.00    +0.060 A 
ATOM     10  N   LIG    1       -2.846   4.337   0.008  0.00  0.00    -0.312 N 
ATOM     11  C   LIG    1       -3.261   5.561  -0.489  0.00  0.00    +0.092 A 
ATOM     12  C   LIG    1       -4.378   5.932   0.165  0.00  0.00    +0.020 A 
ATOM     13  C   LIG    1       -4.686   4.924   1.089  0.00  0.00    +0.031 A 
ATOM     14  C   LIG    1       -3.726   3.945   0.966  0.00  0.00    +0.090 A 
ENDROOT
BRANCH   2  15
ATOM     15  C   LIG    1       -3.378   0.343   2.187  0.00  0.00    -0.007 A 
ATOM     16  C   LIG    1       -2.293  -0.538   2.152  0.00  0.00    +0.013 A 
ATOM     17  C   LIG    1       -2.260  -1.622   3.001  0.00  0.00    +0.046 A 
ATOM     18  C   LIG    1       -3.308  -1.847   3.885  0.00  0.00    +0.120 A 
ATOM     19  C   LIG    1       -4.391  -0.978   3.920  0.00  0.00    +0.046 A 
ATOM     20  C   LIG    1       -4.430   0.112   3.078  0.00  0.00    +0.013 A 
BRANCH  18  21
ATOM     21  O   LIG    1       -3.274  -2.921   4.717  0.00  0.00    -0.495 OA
ATOM     22  C   LIG    1       -2.131  -3.774   4.629  0.00  0.00    +0.277 C 
ENDBRANCH  18  21
ENDBRANCH   2  15
BRANCH   1  23
ATOM     23  O   LIG    1       -4.049   2.825   3.089  0.00  0.00    -0.423 OA
BRANCH  23  25
ATOM     24  C   LIG    1       -3.566   3.773   5.316  0.00  0.00    +0.136 C 
ATOM     25  C   LIG    1       -3.212   3.519   3.874  0.00  0.00    +0.309 C 
ATOM     26  O   LIG    1       -2.170   3.943   3.422  0.00  0.00    -0.251 OA
ENDBRANCH  23  25
ENDBRANCH   1  23
TORSDOF 4
