REMARK  Name = ZINC03795332
REMARK                            x       y       z     vdW  Elec       q    Type
REMARK                         _______ _______ _______ _____ _____    ______ ____
ROOT
ATOM      1  C   LIG    1        4.214   1.173  -2.174  0.00  0.00    -0.095 C 
ATOM      2  N   LIG    1        3.379   1.769  -1.111  0.00  0.00    +0.385 N 
ATOM      3  H   LIG    1        3.839   1.624  -0.204  0.00  0.00    -0.081 HD
ATOM      4  C   LIG    1        3.224   3.220  -1.344  0.00  0.00    -0.011 C 
ATOM      5  C   LIG    1        2.457   3.833  -0.170  0.00  0.00    +0.134 C 
ATOM      6  C   LIG    1        1.077   3.177  -0.071  0.00  0.00    +0.168 C 
ATOM      7  C   LIG    1        1.250   1.665   0.096  0.00  0.00    +0.129 C 
ATOM      8  C   LIG    1        2.053   1.115  -1.085  0.00  0.00    -0.044 C 
ENDROOT
BRANCH   5   9
ATOM      9  O   LIG    1        2.304   5.238  -0.381  0.00  0.00    -0.391 OA
ATOM     10  H   LIG    1        1.823   5.691   0.325  0.00  0.00    +0.210 HD
ENDBRANCH   5   9
BRANCH   6  11
ATOM     11  O   LIG    1        0.378   3.705   1.058  0.00  0.00    -0.387 OA
ATOM     12  H   LIG    1       -0.504   3.330   1.185  0.00  0.00    +0.210 HD
ENDBRANCH   6  11
BRANCH   7  13
ATOM     13  O   LIG    1       -0.034   1.039   0.134  0.00  0.00    -0.391 OA
ATOM     14  H   LIG    1        0.000   0.078   0.238  0.00  0.00    +0.210 HD
ENDBRANCH   7  13
BRANCH   4  15
ATOM     15  C   LIG    1        4.612   3.858  -1.435  0.00  0.00    +0.143 C 
BRANCH  15  16
ATOM     16  O   LIG    1        5.293   3.698  -0.188  0.00  0.00    -0.397 OA
ATOM     17  H   LIG    1        6.181   4.080  -0.173  0.00  0.00    +0.209 HD
ENDBRANCH  15  16
ENDBRANCH   4  15
TORSDOF 5
