REMARK  Name = ZINC03872170
REMARK                            x       y       z     vdW  Elec       q    Type
REMARK                         _______ _______ _______ _____ _____    ______ ____
ROOT
ATOM      1  C   LIG    1        2.937  -0.513   2.443  0.00  0.00    +0.125 C 
ENDROOT
BRANCH   1   8
ATOM      2  C   LIG    1       -0.161   1.306   0.013  0.00  0.00    +0.007 C 
ATOM      3  C   LIG    1       -0.057  -0.221   0.039  0.00  0.00    -0.013 C 
ATOM      4  C   LIG    1        0.663  -0.703  -1.222  0.00  0.00    +0.014 C 
ATOM      5  C   LIG    1        2.035  -0.027  -1.315  0.00  0.00    +0.053 C 
ATOM      6  C   LIG    1        2.814  -0.606  -2.497  0.00  0.00    +0.015 C 
ATOM      7  C   LIG    1        2.787  -0.288  -0.029  0.00  0.00    +0.142 C 
ATOM      8  C   LIG    1        2.097   0.021   1.282  0.00  0.00    +0.084 C 
ATOM      9  O   LIG    1        3.910  -0.732  -0.047  0.00  0.00    -0.297 OA
ATOM     10  C   LIG    1        0.725  -0.656   1.279  0.00  0.00    +0.017 C 
ENDBRANCH   1   8
BRANCH   1  11
ATOM     11  O   LIG    1        2.989  -1.940   2.377  0.00  0.00    -0.391 OA
ATOM     12  H   LIG    1        2.123  -2.367   2.430  0.00  0.00    +0.210 HD
ENDBRANCH   1  11
BRANCH   1  13
ATOM     13  C   LIG    1        2.303  -0.087   3.769  0.00  0.00    +0.036 C 
BRANCH  13  14
ATOM     14  C   LIG    1        3.226  -0.478   4.925  0.00  0.00    +0.009 C 
ATOM     15  C   LIG    1        3.317  -2.005   5.016  0.00  0.00    +0.100 C 
ATOM     16  C   LIG    1        4.134  -2.381   6.224  0.00  0.00    +0.219 C 
ATOM     17  N   LIG    1        4.175  -1.593   7.310  0.00  0.00    -0.256 N 
ATOM     18  H   LIG    1        4.707  -1.875   8.070  0.00  0.00    +0.157 HD
ATOM     19  C   LIG    1        3.509  -0.431   7.384  0.00  0.00    +0.219 C 
ATOM     20  O   LIG    1        3.595   0.240   8.390  0.00  0.00    -0.275 OA
ATOM     21  O   LIG    1        4.767  -3.414   6.216  0.00  0.00    -0.275 OA
ATOM     22  C   LIG    1        2.656   0.056   6.243  0.00  0.00    +0.100 C 
ENDBRANCH  13  14
ENDBRANCH   1  13
TORSDOF 4
