REMARK  Name = ZINC03834070
REMARK                            x       y       z     vdW  Elec       q    Type
REMARK                         _______ _______ _______ _____ _____    ______ ____
ROOT
ATOM      1  C   LIG    1        0.954  -2.541   0.001  0.00  0.00    +0.044 C 
ATOM      2  C   LIG    1        1.162  -1.050   0.073  0.00  0.00    -0.039 A 
ATOM      3  C   LIG    1        2.409  -0.537   0.349  0.00  0.00    +0.008 A 
ATOM      4  C   LIG    1        2.615   0.836   0.419  0.00  0.00    -0.038 A 
ATOM      5  C   LIG    1        1.562   1.701   0.203  0.00  0.00    -0.037 A 
ATOM      6  C   LIG    1        1.722   3.199   0.247  0.00  0.00    -0.010 C 
ATOM      7  C   LIG    1        0.527   3.812   0.980  0.00  0.00    +0.016 C 
ATOM      8  C   LIG    1        1.769   3.743  -1.182  0.00  0.00    +0.016 C 
ATOM      9  C   LIG    1        3.009   3.580   0.975  0.00  0.00    +0.012 C 
ATOM     10  C   LIG    1        4.167   2.788   0.357  0.00  0.00    +0.012 C 
ATOM     11  C   LIG    1        0.301   1.197  -0.074  0.00  0.00    +0.016 A 
ATOM     12  C   LIG    1        4.005   1.319   0.742  0.00  0.00    -0.010 C 
ATOM     13  C   LIG    1        5.023   0.480  -0.034  0.00  0.00    +0.016 C 
ATOM     14  C   LIG    1        4.259   1.159   2.242  0.00  0.00    +0.016 C 
ATOM     15  C   LIG    1        0.090  -0.180  -0.141  0.00  0.00    +0.025 A 
ENDROOT
BRANCH  15  16
ATOM     16  C   LIG    1       -1.255  -0.714  -0.435  0.00  0.00    +0.193 C 
ATOM     17  O   LIG    1       -2.112  -0.709   0.426  0.00  0.00    -0.287 OA
BRANCH  16  18
ATOM     18  C   LIG    1       -1.559  -1.254  -1.778  0.00  0.00    +0.022 A 
ATOM     19  C   LIG    1       -0.614  -1.153  -2.802  0.00  0.00    +0.012 A 
ATOM     20  C   LIG    1       -0.895  -1.662  -4.051  0.00  0.00    +0.015 A 
ATOM     21  C   LIG    1       -2.128  -2.268  -4.297  0.00  0.00    +0.059 A 
ATOM     22  C   LIG    1       -3.075  -2.364  -3.276  0.00  0.00    +0.015 A 
ATOM     23  C   LIG    1       -2.792  -1.861  -2.025  0.00  0.00    +0.012 A 
BRANCH  21  24
ATOM     24  C   LIG    1       -2.432  -2.808  -5.640  0.00  0.00    +0.337 C 
ATOM     25  O   LIG    1       -3.505  -3.336  -5.854  0.00  0.00    -0.245 OA
BRANCH  24  26
ATOM     26  O   LIG    1       -1.519  -2.716  -6.626  0.00  0.00    -0.477 OA
ATOM     27  H   LIG    1       -0.691  -2.309  -6.461  0.00  0.00    +0.295 HD
ENDBRANCH  24  26
ENDBRANCH  21  24
ENDBRANCH  16  18
ENDBRANCH  15  16
TORSDOF 4
