REMARK  Name = ZINC03870514
REMARK                            x       y       z     vdW  Elec       q    Type
REMARK                         _______ _______ _______ _____ _____    ______ ____
ROOT
ATOM      1  C   UNK A  0       -0.018   1.464   0.010  0.00  0.00    -0.048 C 
ATOM      2  C   UNK A  1        1.416   1.997  -0.001  0.00  0.00    +0.128 C 
ATOM      3  C   UNK A  1        2.154   1.488   1.241  0.00  0.00    +0.168 C 
ATOM      4  C   UNK A  1        2.104  -0.042   1.261  0.00  0.00    +0.134 C 
ATOM      5  C   UNK A  1        0.644  -0.500   1.225  0.00  0.00    -0.014 C 
ATOM      6  N   UNK A  1        0.002  -0.004   0.002  0.00  0.00    +0.386 N 
ATOM      7  H   UNK A  1        0.518  -0.328  -0.802  0.00  0.00    -0.085 HD
ATOM      8  H   UNK A  1       -0.944  -0.352  -0.045  0.00  0.00    -0.085 HD
ENDROOT
BRANCH   2   9
ATOM      9  O   UNK A  1        2.087   1.539  -1.176  0.00  0.00    -0.391 OA
ATOM     10  H   UNK A  1        1.671   1.822  -2.002  0.00  0.00    +0.210 HD
ENDBRANCH   2   9
BRANCH   3  11
ATOM     11  O   UNK A  1        1.524   2.003   2.416  0.00  0.00    -0.387 OA
ATOM     12  H   UNK A  1        1.515   2.969   2.466  0.00  0.00    +0.210 HD
ENDBRANCH   3  11
BRANCH   4  13
ATOM     13  O   UNK A  1        2.795  -0.557   0.121  0.00  0.00    -0.391 OA
ATOM     14  H   UNK A  1        3.727  -0.303   0.078  0.00  0.00    +0.210 HD
ENDBRANCH   4  13
BRANCH   5  15
ATOM     15  C   UNK A  1        0.589  -2.029   1.244  0.00  0.00    +0.143 C 
BRANCH  15  16
ATOM     16  O   UNK A  1       -0.772  -2.456   1.328  0.00  0.00    -0.397 OA
ATOM     17  H   UNK A  1       -0.883  -3.416   1.345  0.00  0.00    +0.209 HD
ENDBRANCH  15  16
ENDBRANCH   5  15
TORSDOF 5
