REMARK  Name = ZINC03838320
REMARK                            x       y       z     vdW  Elec       q    Type
REMARK                         _______ _______ _______ _____ _____    ______ ____
ROOT
ATOM      1  C   LIG    1       -0.018   1.461   0.010  0.00  0.00    +0.151 C 
ATOM      2  N   LIG    1        0.002  -0.004   0.002  0.00  0.00    -0.322 N 
ATOM      3  C   LIG    1        0.009  -0.813  -1.098  0.00  0.00    +0.136 A 
ATOM      4  N   LIG    1        0.027  -2.076  -0.709  0.00  0.00    -0.210 NA
ATOM      5  C   LIG    1        0.034  -2.140   0.621  0.00  0.00    +0.169 A 
ATOM      6  N   LIG    1        0.051  -3.189   1.527  0.00  0.00    -0.276 N 
ATOM      7  C   LIG    1        0.069  -2.938   2.850  0.00  0.00    +0.334 A 
ATOM      8  O   LIG    1        0.090  -3.871   3.629  0.00  0.00    -0.246 OA
ATOM      9  N   LIG    1        0.056  -1.683   3.331  0.00  0.00    -0.247 N 
ATOM     10  C   LIG    1        0.034  -0.620   2.501  0.00  0.00    +0.283 A 
ATOM     11  O   LIG    1        0.023   0.512   2.950  0.00  0.00    -0.265 OA
ATOM     12  C   LIG    1        0.024  -0.835   1.107  0.00  0.00    +0.152 A 
ENDROOT
BRANCH   3  13
ATOM     13  C   LIG    1       -0.003  -0.353  -2.489  0.00  0.00    +0.047 C 
ATOM     14  C   LIG    1        0.005  -1.250  -3.495  0.00  0.00    +0.011 C 
BRANCH  14  15
ATOM     15  C   LIG    1       -0.007  -0.788  -4.893  0.00  0.00    -0.021 A 
ATOM     16  C   LIG    1       -0.021   0.581  -5.181  0.00  0.00    +0.008 A 
ATOM     17  C   LIG    1       -0.032   1.008  -6.492  0.00  0.00    +0.004 A 
ATOM     18  C   LIG    1       -0.029   0.088  -7.524  0.00  0.00    +0.045 A 
ATOM     19  C   LIG    1       -0.016  -1.273  -7.250  0.00  0.00    +0.121 A 
ATOM     20  C   LIG    1        0.001  -1.715  -5.938  0.00  0.00    +0.053 A 
BRANCH  19  21
ATOM     21  O   LIG    1       -0.015  -2.171  -8.270  0.00  0.00    -0.495 OA
ATOM     22  C   LIG    1       -0.027  -1.645  -9.598  0.00  0.00    +0.277 C 
ENDBRANCH  19  21
ENDBRANCH  14  15
ENDBRANCH   3  13
BRANCH   6  23
ATOM     23  C   LIG    1        0.068  -4.572   1.045  0.00  0.00    +0.130 C 
BRANCH  23  24
ATOM     24  C   LIG    1        1.516  -5.034   0.871  0.00  0.00    +0.050 C 
BRANCH  24  25
ATOM     25  C   LIG    1        1.534  -6.479   0.367  0.00  0.00    +0.174 C 
BRANCH  25  26
ATOM     26  O   LIG    1        2.887  -6.910   0.205  0.00  0.00    -0.287 OA
BRANCH  26  27
ATOM     27  P   LIG    1        3.281  -8.383  -0.312  0.00  0.00    +0.472 P 
ATOM     28  O   LIG    1        2.598  -9.457   0.600  0.00  0.00    -0.228 OA
BRANCH  27  29
ATOM     29  O   LIG    1        4.837  -8.558  -0.251  0.00  0.00    -0.303 OA
ATOM     30  H   LIG    1        5.139  -8.445   0.664  0.00  0.00    +0.222 HD
ENDBRANCH  27  29
BRANCH  27  31
ATOM     31  O   LIG    1        2.793  -8.566  -1.790  0.00  0.00    -0.303 OA
ATOM     32  H   LIG    1        1.830  -8.457  -1.828  0.00  0.00    +0.222 HD
ENDBRANCH  27  31
ENDBRANCH  26  27
ENDBRANCH  25  26
ENDBRANCH  24  25
ENDBRANCH  23  24
ENDBRANCH   6  23
BRANCH   9  33
ATOM     33  C   LIG    1        0.067  -1.466   4.780  0.00  0.00    +0.218 C 
BRANCH  33  34
ATOM     34  C   LIG    1       -1.317  -1.413   5.278  0.00  0.00    -0.084 C 
ATOM     35  C   LIG    1       -2.421  -1.370   5.676  0.00  0.00    +0.005 C 
ENDBRANCH  33  34
ENDBRANCH   9  33
TORSDOF 12
