REMARK  Name = ZINC03828421
REMARK                            x       y       z     vdW  Elec       q    Type
REMARK                         _______ _______ _______ _____ _____    ______ ____
ROOT
ATOM      1  C   LIG    1       -0.718   3.128   1.252  0.00  0.00    -0.036 C 
ATOM      2  N   LIG    1        0.033   3.825   0.186  0.00  0.00    +0.384 N 
ATOM      3  H   LIG    1        0.018   4.835   0.373  0.00  0.00    -0.081 HD
ATOM      4  C   LIG    1        1.437   3.361   0.170  0.00  0.00    -0.078 C 
ATOM      5  C   LIG    1        1.499   1.856  -0.107  0.00  0.00    -0.015 C 
ATOM      6  C   LIG    1        0.070   1.324  -0.278  0.00  0.00    -0.016 C 
ATOM      7  C   LIG    1       -0.588   2.058  -1.453  0.00  0.00    -0.015 C 
ATOM      8  C   LIG    1       -0.599   3.571  -1.126  0.00  0.00    -0.078 C 
ATOM      9  C   LIG    1       -0.717   1.617   1.006  0.00  0.00    -0.007 C 
ENDROOT
BRANCH   1  12
ATOM     10  C   LIG    1       -4.461   3.327   1.685  0.00  0.00    +0.020 A 
ATOM     11  C   LIG    1       -3.171   2.818   1.692  0.00  0.00    +0.005 A 
ATOM     12  C   LIG    1       -2.137   3.635   1.261  0.00  0.00    -0.043 A 
ATOM     13  C   LIG    1       -2.424   4.922   0.846  0.00  0.00    +0.112 A 
ATOM     14  N   LIG    1       -3.664   5.370   0.847  0.00  0.00    -0.263 NA
ATOM     15  C   LIG    1       -4.672   4.622   1.250  0.00  0.00    +0.111 A 
ENDBRANCH   1  12
TORSDOF 1
