REMARK  Name = ZINC03802924
REMARK                            x       y       z     vdW  Elec       q    Type
REMARK                         _______ _______ _______ _____ _____    ______ ____
ROOT
ATOM      1  C   LIG    1        3.759  -0.421  -0.107  0.00  0.00    +0.133 C 
ATOM      2  C   LIG    1        3.397  -1.549  -1.091  0.00  0.00    +0.145 C 
ATOM      3  N   LIG    1        3.563  -2.784  -0.312  0.00  0.00    -0.196 N 
ATOM      4  C   LIG    1        3.352  -4.032  -0.775  0.00  0.00    +0.323 C 
ATOM      5  N   LIG    1        3.539  -5.092   0.036  0.00  0.00    -0.268 N 
ATOM      6  H   LIG    1        3.755  -4.954   0.972  0.00  0.00    +0.156 HD
ATOM      7  O   LIG    1        2.993  -4.202  -1.924  0.00  0.00    -0.251 OA
ATOM      8  N   LIG    1        3.974  -2.462   0.980  0.00  0.00    -0.229 N 
ATOM      9  H   LIG    1        4.145  -3.124   1.667  0.00  0.00    +0.173 HD
ATOM     10  C   LIG    1        4.110  -1.140   1.176  0.00  0.00    +0.239 C 
ATOM     11  O   LIG    1        4.455  -0.609   2.210  0.00  0.00    -0.274 OA
ENDROOT
BRANCH   5  12
ATOM     12  C   LIG    1        3.421  -6.391  -0.471  0.00  0.00    +0.035 A 
ATOM     13  C   LIG    1        2.922  -7.408   0.331  0.00  0.00    +0.024 A 
ATOM     14  C   LIG    1        2.807  -8.689  -0.172  0.00  0.00    +0.017 A 
ATOM     15  C   LIG    1        3.188  -8.959  -1.474  0.00  0.00    +0.018 A 
ATOM     16 BR   LIG    1        3.030 -10.714  -2.160  0.00  0.00    -0.050 Br
ATOM     17  C   LIG    1        3.686  -7.947  -2.276  0.00  0.00    +0.017 A 
ATOM     18  C   LIG    1        3.798  -6.663  -1.780  0.00  0.00    +0.024 A 
ENDBRANCH   5  12
BRANCH   1  22
ATOM     19  C   LIG    1        0.416   2.168   0.497  0.00  0.00    +0.000 A 
ATOM     20  C   LIG    1        0.480   0.956   1.159  0.00  0.00    +0.000 A 
ATOM     21  C   LIG    1        1.562   0.118   0.963  0.00  0.00    +0.004 A 
ATOM     22  C   LIG    1        2.579   0.492   0.105  0.00  0.00    -0.033 A 
ATOM     23  C   LIG    1        2.514   1.704  -0.557  0.00  0.00    +0.004 A 
ATOM     24  C   LIG    1        1.433   2.542  -0.360  0.00  0.00    +0.000 A 
ENDBRANCH   1  22
BRANCH   2  25
ATOM     25  C   LIG    1        1.970  -1.405  -1.555  0.00  0.00    -0.024 A 
ATOM     26  C   LIG    1        0.944  -1.968  -0.819  0.00  0.00    +0.005 A 
ATOM     27  C   LIG    1       -0.365  -1.836  -1.244  0.00  0.00    +0.000 A 
ATOM     28  C   LIG    1       -0.648  -1.140  -2.404  0.00  0.00    +0.000 A 
ATOM     29  C   LIG    1        0.378  -0.576  -3.139  0.00  0.00    +0.000 A 
ATOM     30  C   LIG    1        1.686  -0.704  -2.712  0.00  0.00    +0.005 A 
ENDBRANCH   2  25
TORSDOF 3
