REMARK  Name = ZINC03825731
REMARK                            x       y       z     vdW  Elec       q    Type
REMARK                         _______ _______ _______ _____ _____    ______ ____
ROOT
ATOM      1  C   LIG    1       -4.384  -4.528  -0.028  0.00  0.00    +0.021 C 
ATOM      2  C   LIG    1       -4.276  -6.060   0.123  0.00  0.00    +0.013 C 
ATOM      3  C   LIG    1       -5.426  -6.564  -0.774  0.00  0.00    +0.036 C 
ATOM      4  C   LIG    1       -5.626  -5.478  -1.810  0.00  0.00    -0.044 A 
ATOM      5  C   LIG    1       -6.280  -5.512  -3.030  0.00  0.00    +0.007 A 
ATOM      6  C   LIG    1       -6.337  -4.383  -3.822  0.00  0.00    +0.046 A 
ATOM      7  C   LIG    1       -5.737  -3.208  -3.394  0.00  0.00    +0.120 A 
ATOM      8  C   LIG    1       -5.082  -3.174  -2.172  0.00  0.00    +0.049 A 
ATOM      9  C   LIG    1       -5.027  -4.305  -1.380  0.00  0.00    -0.038 A 
ENDROOT
BRANCH   7  10
ATOM     10  O   LIG    1       -5.790  -2.093  -4.170  0.00  0.00    -0.495 OA
ATOM     11  C   LIG    1       -6.482  -2.203  -5.415  0.00  0.00    +0.277 C 
ENDBRANCH   7  10
BRANCH   1  12
ATOM     12  C   LIG    1       -2.994  -3.891   0.010  0.00  0.00    +0.027 C 
BRANCH  12  13
ATOM     13  C   LIG    1       -2.376  -4.097   1.394  0.00  0.00    +0.105 C 
BRANCH  13  15
ATOM     14  C   LIG    1       -0.371  -3.423   2.604  0.00  0.00    +0.213 C 
ATOM     15  N   LIG    1       -1.098  -3.384   1.470  0.00  0.00    -0.315 N 
ATOM     16  H   LIG    1       -0.776  -2.883   0.704  0.00  0.00    +0.149 HD
ATOM     17  O   LIG    1       -0.773  -4.049   3.561  0.00  0.00    -0.276 OA
BRANCH  14  19
ATOM     18  C   LIG    1        1.561  -2.895   4.066  0.00  0.00    +0.013 C 
ATOM     19  C   LIG    1        0.943  -2.689   2.681  0.00  0.00    +0.092 C 
ENDBRANCH  14  19
ENDBRANCH  13  15
ENDBRANCH  12  13
ENDBRANCH   1  12
TORSDOF 5
