REMARK  Name = ZINC03872695
REMARK                            x       y       z     vdW  Elec       q    Type
REMARK                         _______ _______ _______ _____ _____    ______ ____
ROOT
ATOM      1  C   LIG    1        0.002  -0.004   0.002  0.00  0.00    +0.178 C 
ATOM      2  C   LIG    1       -1.427  -0.535   0.138  0.00  0.00    +0.177 C 
ATOM      3  C   LIG    1       -1.404  -2.066   0.080  0.00  0.00    +0.179 C 
ATOM      4  C   LIG    1       -0.754  -2.505  -1.236  0.00  0.00    +0.205 C 
ATOM      5  C   LIG    1        0.636  -1.883  -1.343  0.00  0.00    +0.242 C 
ATOM      6  C   LIG    1        1.550  -2.456  -0.284  0.00  0.00    +0.272 C 
ATOM      7  N   LIG    1        2.546  -3.066  -0.960  0.00  0.00    -0.264 N 
ATOM      8  H   LIG    1        3.288  -3.528  -0.538  0.00  0.00    +0.157 HD
ATOM      9  C   LIG    1        2.383  -2.956  -2.284  0.00  0.00    +0.139 C 
ATOM     10  S   LIG    1        3.465  -3.617  -3.434  0.00  0.00    -0.018 S 
ATOM     11  O   LIG    1        1.417  -2.383   0.919  0.00  0.00    -0.270 OA
ATOM     12  N   LIG    1        1.272  -2.268  -2.609  0.00  0.00    -0.289 N 
ATOM     13  H   LIG    1        0.956  -2.066  -3.503  0.00  0.00    +0.151 HD
ATOM     14  O   LIG    1        0.566  -0.467  -1.228  0.00  0.00    -0.338 OA
ENDROOT
BRANCH   2  15
ATOM     15  O   LIG    1       -1.977  -0.112   1.387  0.00  0.00    -0.386 OA
ATOM     16  H   LIG    1       -2.019   0.849   1.493  0.00  0.00    +0.210 HD
ENDBRANCH   2  15
BRANCH   3  17
ATOM     17  O   LIG    1       -0.650  -2.574   1.182  0.00  0.00    -0.386 OA
ATOM     18  H   LIG    1       -1.002  -2.327   2.048  0.00  0.00    +0.210 HD
ENDBRANCH   3  17
BRANCH   4  19
ATOM     19  O   LIG    1       -0.644  -3.929  -1.262  0.00  0.00    -0.384 OA
ATOM     20  H   LIG    1       -1.491  -4.391  -1.195  0.00  0.00    +0.210 HD
ENDBRANCH   4  19
BRANCH   1  21
ATOM     21  C   LIG    1       -0.019   1.526   0.010  0.00  0.00    +0.190 C 
BRANCH  21  22
ATOM     22  O   LIG    1        1.322   2.020   0.000  0.00  0.00    -0.392 OA
ATOM     23  H   LIG    1        1.385   2.985   0.005  0.00  0.00    +0.210 HD
ENDBRANCH  21  22
ENDBRANCH   1  21
TORSDOF 5
