REMARK  Name = ZINC03776592
REMARK                            x       y       z     vdW  Elec       q    Type
REMARK                         _______ _______ _______ _____ _____    ______ ____
ROOT
ATOM      1  C   LIG    1        6.514   7.487  -3.203  0.00  0.00    +0.051 C 
ATOM      2  C   LIG    1        5.676   7.385  -4.484  0.00  0.00    +0.126 C 
ATOM      3  C   LIG    1        5.347   5.899  -4.696  0.00  0.00    +0.077 C 
ATOM      4  C   LIG    1        5.583   5.212  -3.342  0.00  0.00    +0.184 C 
ATOM      5  O   LIG    1        4.445   5.407  -2.489  0.00  0.00    -0.488 OA
ATOM      6  C   LIG    1        4.877   5.636  -1.217  0.00  0.00    +0.128 A 
ATOM      7  C   LIG    1        4.195   5.524  -0.008  0.00  0.00    -0.005 A 
ATOM      8  C   LIG    1        4.830   5.826   1.178  0.00  0.00    +0.007 A 
ATOM      9  C   LIG    1        6.152   6.232   1.179  0.00  0.00    +0.001 A 
ATOM     10  C   LIG    1        6.837   6.344  -0.017  0.00  0.00    +0.007 A 
ATOM     11  C   LIG    1        6.204   6.046  -1.203  0.00  0.00    +0.002 A 
ATOM     12  C   LIG    1        6.680   6.065  -2.644  0.00  0.00    +0.073 C 
ENDROOT
BRANCH   1  14
ATOM     13  C   LIG    1        8.261   9.169  -2.924  0.00  0.00    +0.000 C 
ATOM     14  C   LIG    1        7.866   8.072  -3.521  0.00  0.00    -0.022 C 
BRANCH  13  15
ATOM     15  C   LIG    1        9.613   9.755  -3.242  0.00  0.00    +0.141 C 
BRANCH  15  16
ATOM     16  C   LIG    1        9.447  11.212  -3.679  0.00  0.00    +0.030 C 
ATOM     17  C   LIG    1        8.559  11.274  -4.924  0.00  0.00    +0.011 C 
BRANCH  16  18
ATOM     18  C   LIG    1       10.820  11.806  -4.002  0.00  0.00    +0.095 C 
BRANCH  18  21
ATOM     19  C   LIG    1       10.414  15.815  -4.853  0.00  0.00    +0.106 C 
ATOM     20  C   LIG    1       10.559  14.382  -4.549  0.00  0.00    -0.106 C 
ATOM     21  C   LIG    1       10.675  13.239  -4.306  0.00  0.00    -0.102 C 
ENDBRANCH  18  21
ENDBRANCH  16  18
ENDBRANCH  15  16
BRANCH  15  22
ATOM     22  O   LIG    1       10.219   9.007  -4.298  0.00  0.00    -0.387 OA
ATOM     23  H   LIG    1        9.710   9.002  -5.120  0.00  0.00    +0.210 HD
ENDBRANCH  15  22
ENDBRANCH  13  15
ENDBRANCH   1  14
BRANCH   2  24
ATOM     24  O   LIG    1        4.468   8.134  -4.337  0.00  0.00    -0.391 OA
ATOM     25  H   LIG    1        3.893   8.110  -5.113  0.00  0.00    +0.210 HD
ENDBRANCH   2  24
BRANCH   7  26
ATOM     26  C   LIG    1        2.755   5.077   0.003  0.00  0.00    +0.039 C 
BRANCH  26  27
ATOM     27  C   LIG    1        2.696   3.548  -0.005  0.00  0.00    +0.016 C 
BRANCH  27  28
ATOM     28  C   LIG    1        1.235   3.094   0.007  0.00  0.00    +0.121 C 
BRANCH  28  29
ATOM     29  C   LIG    1        1.177   1.588  -0.001  0.00  0.00    +0.305 C 
ATOM     30  O   LIG    1        2.199   0.944  -0.014  0.00  0.00    -0.251 OA
BRANCH  29  31
ATOM     31  O   LIG    1       -0.011   0.963   0.007  0.00  0.00    -0.481 OA
ATOM     32  H   LIG    1       -0.804   1.462   0.018  0.00  0.00    +0.295 HD
ENDBRANCH  29  31
ENDBRANCH  28  29
ENDBRANCH  27  28
ENDBRANCH  26  27
ENDBRANCH   7  26
TORSDOF 12
