REMARK  Name = ZINC03812975
REMARK                            x       y       z     vdW  Elec       q    Type
REMARK                         _______ _______ _______ _____ _____    ______ ____
ROOT
ATOM      1  C   LIG    1       -0.018   1.461   0.010  0.00  0.00    +0.149 C 
ATOM      2  N   LIG    1        0.002  -0.004   0.002  0.00  0.00    -0.349 N 
ATOM      3  C   LIG    1        0.008  -0.789  -1.141  0.00  0.00    +0.090 A 
ATOM      4  C   LIG    1        0.028  -2.073  -0.816  0.00  0.00    -0.023 A 
ATOM      5  C   LIG    1        0.040  -2.106   0.647  0.00  0.00    +0.006 A 
ATOM      6  C   LIG    1        0.070  -3.259   1.435  0.00  0.00    -0.036 A 
ATOM      7  C   LIG    1        0.108  -4.567   0.706  0.00  0.00    +0.007 C 
ATOM      8  C   LIG    1       -0.598  -5.639   1.542  0.00  0.00    +0.010 C 
ATOM      9  C   LIG    1       -0.592  -6.963   0.775  0.00  0.00    -0.010 C 
ATOM     10  C   LIG    1       -1.262  -6.758  -0.586  0.00  0.00    -0.074 C 
ATOM     11  N   LIG    1       -0.519  -5.749  -1.349  0.00  0.00    +0.381 N 
ATOM     12  H   LIG    1        0.443  -6.039  -1.440  0.00  0.00    -0.082 HD
ATOM     13  C   LIG    1       -1.114  -5.614  -2.686  0.00  0.00    -0.096 C 
ATOM     14  C   LIG    1       -0.594  -4.460  -0.649  0.00  0.00    -0.057 C 
ATOM     15  C   LIG    1        0.080  -3.044   2.777  0.00  0.00    +0.004 A 
ATOM     16  C   LIG    1        0.056  -1.745   3.284  0.00  0.00    +0.002 A 
ATOM     17  C   LIG    1        0.028  -0.601   2.497  0.00  0.00    +0.026 A 
ATOM     18  C   LIG    1        0.039  -3.380  -1.567  0.00  0.00    +0.022 C 
ATOM     19  C   LIG    1        0.023  -0.788   1.116  0.00  0.00    +0.049 A 
ENDROOT
BRANCH   9  20
ATOM     20  C   LIG    1       -1.361  -8.019   1.571  0.00  0.00    +0.109 C 
BRANCH  20  21
ATOM     21  N   LIG    1       -1.253  -9.315   0.896  0.00  0.00    -0.281 N 
ATOM     22  H   LIG    1       -0.748  -9.391   0.071  0.00  0.00    +0.152 HD
ATOM     23  C   LIG    1       -1.856 -10.400   1.420  0.00  0.00    +0.401 C 
ATOM     24  O   LIG    1       -2.489 -10.305   2.453  0.00  0.00    -0.226 OA
BRANCH  23  25
ATOM     25  O   LIG    1       -1.757 -11.591   0.799  0.00  0.00    -0.446 OA
BRANCH  25  26
ATOM     26  C   LIG    1       -2.421 -12.699   1.410  0.00  0.00    +0.269 C 
BRANCH  26  27
ATOM     27  C   LIG    1       -2.201 -13.937   0.580  0.00  0.00    -0.010 A 
ATOM     28  C   LIG    1       -3.086 -14.256  -0.433  0.00  0.00    +0.007 A 
ATOM     29  C   LIG    1       -2.884 -15.392  -1.195  0.00  0.00    +0.000 A 
ATOM     30  C   LIG    1       -1.797 -16.208  -0.944  0.00  0.00    +0.000 A 
ATOM     31  C   LIG    1       -0.912 -15.889   0.069  0.00  0.00    +0.000 A 
ATOM     32  C   LIG    1       -1.111 -14.751   0.828  0.00  0.00    +0.007 A 
ENDBRANCH  26  27
ENDBRANCH  25  26
ENDBRANCH  23  25
ENDBRANCH  20  21
ENDBRANCH   9  20
TORSDOF 5
