REMARK  Name = ZINC03817467
REMARK                            x       y       z     vdW  Elec       q    Type
REMARK                         _______ _______ _______ _____ _____    ______ ____
ROOT
ATOM      1  C   LIG    1        1.131   5.963   0.067  0.00  0.00    +0.164 A 
ATOM      2  C   LIG    1        1.103   7.296   0.489  0.00  0.00    +0.181 A 
ATOM      3  F   LIG    1       -0.067   7.966   0.588  0.00  0.00    -0.200 F 
ATOM      4  C   LIG    1        2.300   7.913   0.802  0.00  0.00    +0.156 A 
ATOM      5  N   LIG    1        3.429   7.229   0.694  0.00  0.00    -0.220 NA
ATOM      6  C   LIG    1        3.425   5.967   0.291  0.00  0.00    +0.221 A 
ATOM      7  N   LIG    1        2.300   5.337  -0.013  0.00  0.00    -0.196 NA
ENDROOT
BRANCH   1   8
ATOM      8  N   LIG    1       -0.046   5.303  -0.257  0.00  0.00    -0.297 N 
ATOM      9  H   LIG    1       -0.900   5.744  -0.132  0.00  0.00    +0.154 HD
BRANCH   8  12
ATOM     10  C   LIG    1       -0.944   1.802  -0.931  0.00  0.00    +0.005 A 
ATOM     11  C   LIG    1       -0.990   3.088  -0.429  0.00  0.00    +0.023 A 
ATOM     12  C   LIG    1        0.001   4.001  -0.765  0.00  0.00    +0.036 A 
ATOM     13  C   LIG    1        1.038   3.620  -1.606  0.00  0.00    +0.068 A 
ATOM     14  C   LIG    1        1.083   2.327  -2.103  0.00  0.00    +0.119 A 
ATOM     15  C   LIG    1        0.087   1.421  -1.769  0.00  0.00    +0.045 A 
BRANCH  14  16
ATOM     16  O   LIG    1        2.100   1.949  -2.922  0.00  0.00    -0.507 OA
ATOM     17  H   LIG    1        1.924   2.097  -3.861  0.00  0.00    +0.292 HD
ENDBRANCH  14  16
ENDBRANCH   8  12
ENDBRANCH   1   8
BRANCH   6  18
ATOM     18  N   LIG    1        4.628   5.286   0.192  0.00  0.00    -0.283 N 
ATOM     19  H   LIG    1        4.634   4.339  -0.018  0.00  0.00    +0.155 HD
BRANCH  18  20
ATOM     20  C   LIG    1        5.834   5.963   0.394  0.00  0.00    +0.037 A 
ATOM     21  C   LIG    1        5.997   7.255  -0.093  0.00  0.00    +0.023 A 
ATOM     22  C   LIG    1        7.186   7.926   0.112  0.00  0.00    +0.005 A 
ATOM     23  C   LIG    1        8.221   7.312   0.791  0.00  0.00    +0.045 A 
ATOM     24  C   LIG    1        8.067   6.021   1.275  0.00  0.00    +0.119 A 
ATOM     25  C   LIG    1        6.873   5.346   1.077  0.00  0.00    +0.068 A 
BRANCH  24  26
ATOM     26  O   LIG    1        9.086   5.419   1.943  0.00  0.00    -0.507 OA
ATOM     27  H   LIG    1        9.690   4.922   1.374  0.00  0.00    +0.292 HD
ENDBRANCH  24  26
ENDBRANCH  18  20
ENDBRANCH   6  18
TORSDOF 6
