REMARK  Name = ZINC03798924
REMARK                            x       y       z     vdW  Elec       q    Type
REMARK                         _______ _______ _______ _____ _____    ______ ____
ROOT
ATOM      1  C   LIG    1        5.938  -4.633  -0.037  0.00  0.00    +0.279 C 
ATOM      2  C   LIG    1        7.055  -4.406   0.943  0.00  0.00    +0.263 C 
ATOM      3  N   LIG    1        7.840  -3.325   0.855  0.00  0.00    -0.267 N 
ATOM      4  C   LIG    1        8.817  -2.869   1.856  0.00  0.00    +0.118 C 
ATOM      5  C   LIG    1        8.912  -1.350   1.594  0.00  0.00    +0.056 C 
ATOM      6  C   LIG    1        8.396  -1.205   0.177  0.00  0.00    -0.024 A 
ATOM      7  C   LIG    1        8.385  -0.128  -0.685  0.00  0.00    +0.005 A 
ATOM      8  C   LIG    1        7.875  -0.265  -1.966  0.00  0.00    +0.001 A 
ATOM      9  C   LIG    1        7.407  -1.487  -2.397  0.00  0.00    +0.012 A 
ATOM     10  C   LIG    1        7.420  -2.586  -1.537  0.00  0.00    +0.022 A 
ATOM     11  C   LIG    1        7.076  -3.921  -2.047  0.00  0.00    +0.080 C 
ATOM     12  C   LIG    1        7.841  -2.416  -0.206  0.00  0.00    +0.049 A 
ATOM     13  O   LIG    1        7.248  -5.215   1.826  0.00  0.00    -0.271 OA
ATOM     14  N   LIG    1        6.457  -4.840  -1.382  0.00  0.00    -0.251 NA
ENDROOT
BRANCH  11  15
ATOM     15  C   LIG    1        7.473  -4.240  -3.437  0.00  0.00    +0.036 A 
ATOM     16  C   LIG    1        6.499  -4.462  -4.410  0.00  0.00    +0.013 A 
ATOM     17  C   LIG    1        6.874  -4.759  -5.704  0.00  0.00    +0.001 A 
ATOM     18  C   LIG    1        8.215  -4.837  -6.039  0.00  0.00    +0.003 A 
ATOM     19  C   LIG    1        9.187  -4.618  -5.081  0.00  0.00    +0.039 A 
ATOM     20  C   LIG    1        8.825  -4.313  -3.781  0.00  0.00    +0.133 A 
ATOM     21  F   LIG    1        9.775  -4.093  -2.847  0.00  0.00    -0.205 F 
ENDBRANCH  11  15
BRANCH   1  23
ATOM     22  C   LIG    1        3.718  -3.631   0.006  0.00  0.00    +0.262 C 
ATOM     23  N   LIG    1        5.054  -3.464  -0.037  0.00  0.00    -0.281 N 
ATOM     24  H   LIG    1        5.431  -2.571  -0.068  0.00  0.00    +0.152 HD
ATOM     25  O   LIG    1        3.245  -4.751   0.045  0.00  0.00    -0.269 OA
BRANCH  22  32
ATOM     26  C   LIG    1       -0.417   0.765   0.032  0.00  0.00    +0.001 A 
ATOM     27  C   LIG    1        0.700   1.590  -0.019  0.00  0.00    +0.002 A 
ATOM     28  C   LIG    1        1.968   1.054  -0.045  0.00  0.00    +0.026 A 
ATOM     29  C   LIG    1        2.136  -0.327  -0.020  0.00  0.00    +0.047 A 
ATOM     30  C   LIG    1        1.002  -1.162   0.032  0.00  0.00    +0.000 A 
ATOM     31  C   LIG    1        1.473  -2.497   0.047  0.00  0.00    +0.040 A 
ATOM     32  C   LIG    1        2.830  -2.458   0.006  0.00  0.00    +0.103 A 
ATOM     33  N   LIG    1        3.244  -1.141  -0.035  0.00  0.00    -0.351 N 
ATOM     34  H   LIG    1        4.165  -0.839  -0.069  0.00  0.00    +0.166 HD
ATOM     35  C   LIG    1       -0.278  -0.592   0.057  0.00  0.00    +0.010 A 
ENDBRANCH  22  32
ENDBRANCH   1  23
TORSDOF 3
