REMARK  Name = ZINC03872327
REMARK                            x       y       z     vdW  Elec       q    Type
REMARK                         _______ _______ _______ _____ _____    ______ ____
ROOT
ATOM      1  C   LIG    1       -5.537  -9.539  -0.768  0.00  0.00    +0.265 C 
ATOM      2  N   LIG    1       -5.720 -10.873  -0.805  0.00  0.00    -0.279 N 
ATOM      3  H   LIG    1       -6.618 -11.239  -0.820  0.00  0.00    +0.155 HD
ATOM      4  O   LIG    1       -4.413  -9.076  -0.845  0.00  0.00    -0.268 OA
ENDROOT
BRANCH   1   7
ATOM      5  C   LIG    1       -8.778  -7.852  -0.485  0.00  0.00    +0.052 A 
ATOM      6  C   LIG    1       -8.017  -9.020  -0.637  0.00  0.00    +0.055 A 
ATOM      7  C   LIG    1       -6.691  -8.644  -0.634  0.00  0.00    +0.106 A 
ATOM      8  N   LIG    1       -6.645  -7.277  -0.484  0.00  0.00    -0.344 N 
ATOM      9  C   LIG    1       -5.427  -6.464  -0.430  0.00  0.00    +0.149 C 
ATOM     10  C   LIG    1       -7.916  -6.804  -0.399  0.00  0.00    +0.109 A 
BRANCH   5  12
ATOM     11  C   LIG    1      -10.921  -8.899  -0.539  0.00  0.00    +0.265 C 
ATOM     12  N   LIG    1      -10.182  -7.777  -0.436  0.00  0.00    -0.279 N 
ATOM     13  H   LIG    1      -10.618  -6.917  -0.328  0.00  0.00    +0.155 HD
ATOM     14  O   LIG    1      -10.374  -9.986  -0.577  0.00  0.00    -0.268 OA
BRANCH  11  20
ATOM     15  C   LIG    1      -12.890 -11.287  -0.566  0.00  0.00    +0.149 C 
ATOM     16  N   LIG    1      -13.261  -9.871  -0.617  0.00  0.00    -0.344 N 
ATOM     17  C   LIG    1      -14.528  -9.386  -0.684  0.00  0.00    +0.109 A 
ATOM     18  C   LIG    1      -14.476  -8.029  -0.715  0.00  0.00    +0.052 A 
ATOM     19  C   LIG    1      -13.126  -7.652  -0.672  0.00  0.00    +0.055 A 
ATOM     20  C   LIG    1      -12.383  -8.811  -0.605  0.00  0.00    +0.106 A 
BRANCH  18  21
ATOM     21  N   LIG    1      -15.579  -7.158  -0.785  0.00  0.00    -0.287 N 
ATOM     22  H   LIG    1      -16.479  -7.517  -0.816  0.00  0.00    +0.155 HD
ATOM     23  C   LIG    1      -15.384  -5.824  -0.810  0.00  0.00    +0.330 C 
ATOM     24  O   LIG    1      -14.258  -5.375  -0.771  0.00  0.00    -0.279 OA
ENDBRANCH  18  21
ENDBRANCH  11  20
ENDBRANCH   5  12
ENDBRANCH   1   7
BRANCH   2  25
ATOM     25  C   LIG    1       -4.609 -11.736  -0.821  0.00  0.00    +0.052 A 
ATOM     26  C   LIG    1       -3.261 -11.348  -0.808  0.00  0.00    +0.055 A 
ATOM     27  C   LIG    1       -2.507 -12.502  -0.829  0.00  0.00    +0.106 A 
ATOM     28  N   LIG    1       -3.376 -13.569  -0.863  0.00  0.00    -0.344 N 
ATOM     29  C   LIG    1       -2.992 -14.982  -0.898  0.00  0.00    +0.149 C 
ATOM     30  C   LIG    1       -4.649 -13.094  -0.857  0.00  0.00    +0.109 A 
BRANCH  27  31
ATOM     31  C   LIG    1       -1.042 -12.579  -0.822  0.00  0.00    +0.261 C 
ATOM     32  N   LIG    1       -0.309 -11.456  -0.690  0.00  0.00    -0.310 N 
ATOM     33  H   LIG    1       -0.748 -10.607  -0.525  0.00  0.00    +0.149 HD
ATOM     34  O   LIG    1       -0.489 -13.657  -0.937  0.00  0.00    -0.269 OA
BRANCH  32  35
ATOM     35  C   LIG    1        1.151 -11.518  -0.794  0.00  0.00    +0.116 C 
BRANCH  35  36
ATOM     36  C   LIG    1        1.735 -10.117  -0.607  0.00  0.00    +0.142 C 
BRANCH  36  37
ATOM     37  C   LIG    1        3.237 -10.180  -0.714  0.00  0.00    +0.235 C 
ATOM     38  N   LIG    1        3.771 -11.361  -0.937  0.00  0.00    -0.293 N 
ATOM     39  H   LIG    1        3.169 -12.187  -1.031  0.00  0.00    +0.301 HD
ATOM     40  H   LIG    1        4.784 -11.456  -1.017  0.00  0.00    +0.301 HD
BRANCH  37  41
ATOM     41  N   LIG    1        3.982  -9.039  -0.579  0.00  0.00    -0.254 N 
ATOM     42  H   LIG    1        4.949  -9.079  -0.647  0.00  0.00    +0.288 HD
ATOM     43  H   LIG    1        3.544  -8.189  -0.414  0.00  0.00    +0.288 HD
ENDBRANCH  37  41
ENDBRANCH  36  37
ENDBRANCH  35  36
ENDBRANCH  32  35
ENDBRANCH  27  31
ENDBRANCH   2  25
TORSDOF 10
