REMARK  Name = ZINC03816587
REMARK                            x       y       z     vdW  Elec       q    Type
REMARK                         _______ _______ _______ _____ _____    ______ ____
ROOT
ATOM      1  C   LIG    1       -4.954  -2.609   0.037  0.00  0.00    +0.017 C 
ATOM      2  C   LIG    1       -6.076  -1.835  -0.041  0.00  0.00    -0.009 C 
ATOM      3  C   LIG    1       -5.986  -0.364  -0.149  0.00  0.00    -0.006 A 
ATOM      4  C   LIG    1       -4.875   0.332   0.319  0.00  0.00    +0.009 A 
ATOM      5  C   LIG    1       -4.832   1.706   0.198  0.00  0.00    +0.001 A 
ATOM      6  C   LIG    1       -5.883   2.399  -0.384  0.00  0.00    +0.001 A 
ATOM      7  C   LIG    1       -6.992   1.729  -0.855  0.00  0.00    +0.012 A 
ATOM      8  C   LIG    1       -7.057   0.341  -0.742  0.00  0.00    +0.030 A 
ATOM      9  C   LIG    1       -8.224  -0.417  -1.230  0.00  0.00    +0.194 C 
ATOM     10  C   LIG    1       -8.495  -1.730  -0.614  0.00  0.00    +0.030 A 
ATOM     11  C   LIG    1       -9.776  -2.279  -0.606  0.00  0.00    +0.012 A 
ATOM     12  C   LIG    1       -9.985  -3.509  -0.035  0.00  0.00    +0.001 A 
ATOM     13  C   LIG    1       -8.935  -4.206   0.546  0.00  0.00    +0.001 A 
ATOM     14  C   LIG    1       -7.660  -3.680   0.555  0.00  0.00    +0.009 A 
ATOM     15  O   LIG    1       -8.938   0.024  -2.112  0.00  0.00    -0.287 OA
ATOM     16  C   LIG    1       -7.426  -2.438  -0.027  0.00  0.00    -0.006 A 
ENDROOT
BRANCH   1  20
ATOM     17  C   LIG    1       -5.245  -6.819  -0.388  0.00  0.00    +0.161 A 
ATOM     18  C   LIG    1       -4.400  -6.275   0.571  0.00  0.00    +0.050 A 
ATOM     19  C   LIG    1       -4.302  -4.909   0.713  0.00  0.00    +0.012 A 
ATOM     20  C   LIG    1       -5.056  -4.064  -0.112  0.00  0.00    -0.021 A 
ATOM     21  C   LIG    1       -5.907  -4.614  -1.080  0.00  0.00    +0.057 A 
ATOM     22  C   LIG    1       -5.994  -5.985  -1.218  0.00  0.00    +0.159 A 
BRANCH  17  24
ATOM     23  C   LIG    1       -4.542  -8.963   0.358  0.00  0.00    +0.277 C 
ATOM     24  O   LIG    1       -5.337  -8.167  -0.523  0.00  0.00    -0.491 OA
ENDBRANCH  17  24
BRANCH  22  25
ATOM     25  O   LIG    1       -6.816  -6.522  -2.159  0.00  0.00    -0.503 OA
ATOM     26  H   LIG    1       -7.715  -6.691  -1.846  0.00  0.00    +0.292 HD
ENDBRANCH  22  25
ENDBRANCH   1  20
TORSDOF 3
