REMARK  Name = ZINC03817763
REMARK                            x       y       z     vdW  Elec       q    Type
REMARK                         _______ _______ _______ _____ _____    ______ ____
ROOT
ATOM      1  C   LIG    1        1.291  -0.725  -0.014  0.00  0.00    +0.022 A 
ATOM      2  C   LIG    1        2.490  -0.016  -0.016  0.00  0.00    +0.057 A 
ATOM      3  C   LIG    1        3.703  -0.691  -0.031  0.00  0.00    +0.120 A 
ATOM      4  C   LIG    1        3.736  -2.073  -0.045  0.00  0.00    +0.077 A 
ATOM      5  C   LIG    1        2.542  -2.800  -0.043  0.00  0.00    +0.114 A 
ATOM      6  N   LIG    1        2.256  -4.128  -0.054  0.00  0.00    -0.209 NA
ATOM      7  C   LIG    1        0.955  -4.278  -0.030  0.00  0.00    +0.229 A 
ATOM      8  O   LIG    1        0.353  -3.074  -0.018  0.00  0.00    -0.435 OA
ATOM      9  C   LIG    1        1.314  -2.123  -0.022  0.00  0.00    +0.163 A 
ENDROOT
BRANCH   7  10
ATOM     10  C   LIG    1        0.251  -5.577  -0.030  0.00  0.00    +0.040 A 
ATOM     11  C   LIG    1       -1.145  -5.617  -0.023  0.00  0.00    +0.017 A 
ATOM     12  C   LIG    1       -1.798  -6.830  -0.024  0.00  0.00    +0.049 A 
ATOM     13  C   LIG    1       -1.071  -8.013  -0.031  0.00  0.00    +0.152 A 
ATOM     14  C   LIG    1        0.319  -7.979  -0.038  0.00  0.00    +0.165 A 
ATOM     15  F   LIG    1        1.023  -9.132  -0.045  0.00  0.00    -0.202 F 
ATOM     16  C   LIG    1        0.981  -6.768  -0.044  0.00  0.00    +0.055 A 
BRANCH  13  17
ATOM     17  O   LIG    1       -1.720  -9.207  -0.031  0.00  0.00    -0.504 OA
ATOM     18  H   LIG    1       -1.912  -9.550  -0.914  0.00  0.00    +0.292 HD
ENDBRANCH  13  17
ENDBRANCH   7  10
BRANCH   1  20
ATOM     19  C   LIG    1       -0.016   1.322   0.009  0.00  0.00    +0.009 C 
ATOM     20  C   LIG    1        0.002  -0.004   0.002  0.00  0.00    +0.004 C 
ENDBRANCH   1  20
BRANCH   3  21
ATOM     21  O   LIG    1        4.867   0.012  -0.033  0.00  0.00    -0.507 OA
ATOM     22  H   LIG    1        5.210   0.207   0.850  0.00  0.00    +0.292 HD
ENDBRANCH   3  21
TORSDOF 4
