REMARK  Name = ZINC03775140
REMARK                            x       y       z     vdW  Elec       q    Type
REMARK                         _______ _______ _______ _____ _____    ______ ____
ROOT
ATOM      1  C   LIG    1       -0.468  -4.990   0.926  0.00  0.00    +0.098 C 
ATOM      2  C   LIG    1        0.544  -5.162   2.063  0.00  0.00    +0.006 C 
ATOM      3  C   LIG    1        1.767  -5.918   1.540  0.00  0.00    -0.077 C 
ATOM      4  N   LIG    1        1.357  -7.238   1.045  0.00  0.00    +0.382 N 
ATOM      5  H   LIG    1        0.890  -7.743   1.784  0.00  0.00    -0.082 HD
ATOM      6  C   LIG    1        0.442  -7.081  -0.092  0.00  0.00    -0.045 C 
ATOM      7  C   LIG    1       -0.834  -6.369   0.367  0.00  0.00    +0.121 C 
ENDROOT
BRANCH   1   9
ATOM      8  C   LIG    1        0.068  -2.828  -0.062  0.00  0.00    +0.248 C 
ATOM      9  N   LIG    1        0.124  -4.173  -0.136  0.00  0.00    -0.306 N 
ATOM     10  H   LIG    1        0.556  -4.599  -0.893  0.00  0.00    +0.149 HD
ATOM     11  O   LIG    1       -0.474  -2.294   0.887  0.00  0.00    -0.270 OA
BRANCH   8  18
ATOM     12  C   LIG    1        0.605  -0.606  -1.054  0.00  0.00    +0.134 A 
ATOM     13  C   LIG    1        1.171   0.158  -2.059  0.00  0.00    +0.070 A 
ATOM     14  C   LIG    1        1.788  -0.464  -3.138  0.00  0.00    +0.047 A 
ATOM     15  C   LIG    1        1.837  -1.856  -3.211  0.00  0.00    +0.062 A 
ATOM     16 CL   LIG    1        2.609  -2.623  -4.564  0.00  0.00    -0.082 Cl
ATOM     17  C   LIG    1        1.280  -2.619  -2.225  0.00  0.00    +0.038 A 
ATOM     18  C   LIG    1        0.662  -2.006  -1.129  0.00  0.00    +0.080 A 
BRANCH  14  19
ATOM     19  N   LIG    1        2.357   0.304  -4.149  0.00  0.00    -0.357 N 
ATOM     20  H   LIG    1        2.788  -0.129  -4.902  0.00  0.00    +0.142 HD
ATOM     21  H   LIG    1        2.323   1.272  -4.099  0.00  0.00    +0.142 HD
ENDBRANCH  14  19
BRANCH  12  23
ATOM     22  C   LIG    1       -0.017   1.425   0.010  0.00  0.00    +0.277 C 
ATOM     23  O   LIG    1        0.002  -0.004   0.002  0.00  0.00    -0.494 OA
ENDBRANCH  12  23
ENDBRANCH   8  18
ENDBRANCH   1   9
BRANCH   7  24
ATOM     24  O   LIG    1       -1.722  -6.213  -0.742  0.00  0.00    -0.380 OA
ATOM     25  C   LIG    1       -2.632  -7.301  -0.914  0.00  0.00    +0.194 C 
ENDBRANCH   7  24
BRANCH   4  26
ATOM     26  C   LIG    1        2.544  -7.989   0.617  0.00  0.00    -0.075 C 
BRANCH  26  27
ATOM     27  C   LIG    1        3.434  -8.270   1.829  0.00  0.00    +0.022 C 
BRANCH  27  28
ATOM     28  C   LIG    1        4.671  -9.053   1.383  0.00  0.00    +0.227 C 
BRANCH  28  29
ATOM     29  O   LIG    1        5.502  -9.316   2.515  0.00  0.00    -0.492 OA
BRANCH  29  30
ATOM     30  C   LIG    1        6.651 -10.008   2.290  0.00  0.00    +0.121 A 
ATOM     31  C   LIG    1        6.972 -10.420   1.006  0.00  0.00    +0.048 A 
ATOM     32  C   LIG    1        8.139 -11.124   0.779  0.00  0.00    +0.042 A 
ATOM     33  C   LIG    1        8.988 -11.417   1.833  0.00  0.00    +0.124 A 
ATOM     34  F   LIG    1       10.129 -12.105   1.609  0.00  0.00    -0.205 F 
ATOM     35  C   LIG    1        8.668 -11.006   3.116  0.00  0.00    +0.042 A 
ATOM     36  C   LIG    1        7.505 -10.297   3.345  0.00  0.00    +0.048 A 
ENDBRANCH  29  30
ENDBRANCH  28  29
ENDBRANCH  27  28
ENDBRANCH  26  27
ENDBRANCH   4  26
TORSDOF 10
