REMARK  Name = ZINC03815417
REMARK                            x       y       z     vdW  Elec       q    Type
REMARK                         _______ _______ _______ _____ _____    ______ ____
ROOT
ATOM      1  C   LIG    1       -0.098   3.484  -0.786  0.00  0.00    +0.015 C 
ATOM      2  C   LIG    1        1.167   3.081  -0.025  0.00  0.00    +0.013 C 
ATOM      3  C   LIG    1        1.309   3.939   1.214  0.00  0.00    +0.043 C 
ATOM      4  C   LIG    1        1.261   5.413   0.769  0.00  0.00    +0.126 C 
ATOM      5  C   LIG    1        2.367   5.692  -0.239  0.00  0.00    +0.051 C 
ATOM      6  C   LIG    1        2.355   7.121  -0.700  0.00  0.00    -0.038 A 
ATOM      7  C   LIG    1        1.976   8.102   0.208  0.00  0.00    +0.008 A 
ATOM      8  C   LIG    1        1.956   9.430  -0.161  0.00  0.00    +0.046 A 
ATOM      9  C   LIG    1        2.321   9.790  -1.450  0.00  0.00    +0.117 A 
ATOM     10  C   LIG    1        2.696   8.813  -2.355  0.00  0.00    +0.049 A 
ATOM     11  C   LIG    1        2.709   7.474  -1.985  0.00  0.00    -0.040 A 
ATOM     12  C   LIG    1        3.102   6.465  -3.031  0.00  0.00    +0.036 C 
ATOM     13  C   LIG    1        3.416   5.108  -2.403  0.00  0.00    +0.009 C 
ATOM     14  C   LIG    1        2.280   4.750  -1.446  0.00  0.00    +0.003 C 
ATOM     15  C   LIG    1        1.182   1.570   0.176  0.00  0.00    +0.132 C 
ATOM     16  C   LIG    1        1.853   0.993  -1.095  0.00  0.00    +0.049 C 
ATOM     17  C   LIG    1        2.284   2.216  -1.954  0.00  0.00    +0.008 C 
ATOM     18  C   LIG    1        2.414   3.337  -0.917  0.00  0.00    +0.003 C 
ENDROOT
BRANCH   4  19
ATOM     19  O   LIG    1       -0.005   5.695   0.169  0.00  0.00    -0.379 OA
ATOM     20  C   LIG    1       -1.003   6.129   1.096  0.00  0.00    +0.194 C 
ENDBRANCH   4  19
BRANCH   9  21
ATOM     21  O   LIG    1        2.310  11.097  -1.822  0.00  0.00    -0.507 OA
ATOM     22  H   LIG    1        1.466  11.394  -2.190  0.00  0.00    +0.292 HD
ENDBRANCH   9  21
BRANCH  15  23
ATOM     23  O   LIG    1       -0.152   1.074   0.301  0.00  0.00    -0.376 OA
ATOM     24  H   LIG    1       -0.206   0.115   0.411  0.00  0.00    +0.211 HD
ENDBRANCH  15  23
BRANCH  15  25
ATOM     25  C   LIG    1        1.968   1.223   1.371  0.00  0.00    -0.070 C 
ATOM     26  C   LIG    1        2.596   0.946   2.324  0.00  0.00    +0.007 C 
ENDBRANCH  15  25
TORSDOF 4
