REMARK  Name = ZINC03860715
REMARK                            x       y       z     vdW  Elec       q    Type
REMARK                         _______ _______ _______ _____ _____    ______ ____
ROOT
ATOM      1  C   LIG    1       -1.293  -0.775   0.010  0.00  0.00    +0.203 C 
ATOM      2  C   LIG    1       -2.092  -0.490   1.307  0.00  0.00    +0.091 C 
ATOM      3  C   LIG    1       -3.508  -0.474   0.800  0.00  0.00    +0.040 A 
ATOM      4  C   LIG    1       -3.448  -0.372  -0.596  0.00  0.00    +0.128 A 
ATOM      5  C   LIG    1       -4.624  -0.342  -1.358  0.00  0.00    +0.047 A 
ATOM      6  C   LIG    1       -5.821  -0.408  -0.694  0.00  0.00    +0.018 A 
ATOM      7  C   LIG    1       -5.883  -0.504   0.697  0.00  0.00    +0.060 A 
ATOM      8  C   LIG    1       -7.178  -0.559   1.391  0.00  0.00    +0.178 C 
ATOM      9  O   LIG    1       -8.215  -0.306   0.814  0.00  0.00    -0.291 OA
ATOM     10  C   LIG    1       -7.167  -0.932   2.843  0.00  0.00    +0.138 C 
ATOM     11  C   LIG    1       -7.082  -2.439   2.997  0.00  0.00    +0.012 A 
ATOM     12  C   LIG    1       -7.814  -3.240   2.135  0.00  0.00    +0.057 A 
ATOM     13  C   LIG    1       -7.763  -4.618   2.248  0.00  0.00    +0.162 A 
ATOM     14  C   LIG    1       -6.972  -5.202   3.233  0.00  0.00    +0.165 A 
ATOM     15  C   LIG    1       -6.241  -4.402   4.093  0.00  0.00    +0.095 A 
ATOM     16  C   LIG    1       -6.292  -3.017   3.977  0.00  0.00    +0.128 A 
ATOM     17  O   LIG    1       -5.555  -2.267   4.838  0.00  0.00    -0.488 OA
ATOM     18  C   LIG    1       -5.851  -0.874   4.945  0.00  0.00    +0.274 C 
ATOM     19  C   LIG    1       -5.945  -0.296   3.521  0.00  0.00    +0.226 C 
ATOM     20  O   LIG    1       -4.758  -0.670   2.817  0.00  0.00    -0.483 OA
ATOM     21  C   LIG    1       -4.707  -0.548   1.479  0.00  0.00    +0.138 A 
ATOM     22  O   LIG    1       -2.172  -0.305  -1.030  0.00  0.00    -0.484 OA
ENDROOT
BRANCH   1  24
ATOM     23  C   LIG    1       -0.018   1.503   0.010  0.00  0.00    +0.042 C 
ATOM     24  C   LIG    1        0.002  -0.004   0.002  0.00  0.00    -0.040 C 
ATOM     25  C   LIG    1        1.145  -0.644  -0.012  0.00  0.00    +0.011 C 
ENDBRANCH   1  24
BRANCH  13  26
ATOM     26  O   LIG    1       -8.483  -5.400   1.399  0.00  0.00    -0.491 OA
ATOM     27  C   LIG    1       -9.272  -4.731   0.413  0.00  0.00    +0.277 C 
ENDBRANCH  13  26
BRANCH  14  28
ATOM     28  O   LIG    1       -6.919  -6.556   3.351  0.00  0.00    -0.491 OA
ATOM     29  C   LIG    1       -6.086  -7.085   4.385  0.00  0.00    +0.277 C 
ENDBRANCH  14  28
TORSDOF 3
