REMARK  Name = ZINC03792789
REMARK                            x       y       z     vdW  Elec       q    Type
REMARK                         _______ _______ _______ _____ _____    ______ ____
ROOT
ATOM      1  C   LIG    1       -4.657   0.528  -0.183  0.00  0.00    -0.050 C 
ATOM      2  C   LIG    1       -4.453   2.020  -0.118  0.00  0.00    +0.044 C 
ATOM      3  C   LIG    1       -5.905   0.002  -0.013  0.00  0.00    +0.003 C 
ENDROOT
BRANCH   1   5
ATOM      4  C   LIG    1       -2.320   0.203  -0.590  0.00  0.00    +0.004 C 
ATOM      5  C   LIG    1       -3.562  -0.321  -0.420  0.00  0.00    +0.003 C 
BRANCH   4   8
ATOM      6  C   LIG    1       -2.420  -1.553  -2.643  0.00  0.00    +0.039 C 
ATOM      7  C   LIG    1       -1.219  -1.531  -1.733  0.00  0.00    -0.069 C 
ATOM      8  C   LIG    1       -1.203  -0.656  -0.742  0.00  0.00    -0.043 C 
ATOM      9  C   LIG    1       -0.068  -0.521   0.232  0.00  0.00    -0.010 C 
ATOM     10  C   LIG    1       -0.629  -0.351   1.645  0.00  0.00    +0.016 C 
ATOM     11  C   LIG    1        0.767   0.708  -0.131  0.00  0.00    +0.016 C 
ATOM     12  C   LIG    1        0.817  -1.768   0.184  0.00  0.00    +0.011 C 
ATOM     13  C   LIG    1        1.165  -2.064  -1.280  0.00  0.00    +0.005 C 
ATOM     14  C   LIG    1       -0.111  -2.509  -2.000  0.00  0.00    +0.031 C 
ENDBRANCH   4   8
ENDBRANCH   1   5
BRANCH   3  15
ATOM     15  C   LIG    1       -6.997   0.849   0.223  0.00  0.00    +0.001 C 
ATOM     16  C   LIG    1       -8.255   0.318   0.396  0.00  0.00    +0.003 C 
BRANCH  16  17
ATOM     17  C   LIG    1       -9.346   1.164   0.631  0.00  0.00    -0.044 C 
ATOM     18  C   LIG    1       -9.170   2.659   0.558  0.00  0.00    +0.044 C 
ATOM     19  C   LIG    1      -10.579   0.630   0.930  0.00  0.00    +0.094 C 
BRANCH  19  20
ATOM     20  C   LIG    1      -10.701  -0.738   1.220  0.00  0.00    +0.330 C 
ATOM     21  O   LIG    1       -9.608  -1.494   1.339  0.00  0.00    -0.246 OA
BRANCH  20  22
ATOM     22  O   LIG    1      -11.908  -1.282   1.377  0.00  0.00    -0.478 OA
ATOM     23  H   LIG    1      -12.676  -0.751   1.293  0.00  0.00    +0.295 HD
ENDBRANCH  20  22
ENDBRANCH  19  20
ENDBRANCH  16  17
ENDBRANCH   3  15
TORSDOF 6
