REMARK  Name = ZINC03817750
REMARK                            x       y       z     vdW  Elec       q    Type
REMARK                         _______ _______ _______ _____ _____    ______ ____
ROOT
ATOM      1  C   LIG    1       -2.775   2.800   5.270  0.00  0.00    +0.105 C 
ENDROOT
BRANCH   1   5
ATOM      2  C   LIG    1       -1.527   2.013   1.261  0.00  0.00    +0.088 A 
ATOM      3  C   LIG    1       -1.111   3.165   1.901  0.00  0.00    +0.027 A 
ATOM      4  C   LIG    1       -1.519   3.422   3.196  0.00  0.00    +0.006 A 
ATOM      5  C   LIG    1       -2.334   2.522   3.856  0.00  0.00    -0.035 A 
ATOM      6  C   LIG    1       -2.747   1.367   3.218  0.00  0.00    +0.006 A 
ATOM      7  C   LIG    1       -2.343   1.112   1.920  0.00  0.00    +0.027 A 
BRANCH   2   9
ATOM      8  C   LIG    1       -2.292   2.440  -1.435  0.00  0.00    +0.200 C 
ATOM      9  S   LIG    1       -1.012   1.688  -0.393  0.00  0.00    -0.006 S 
ATOM     10  O   LIG    1        0.213   2.393  -0.536  0.00  0.00    -0.170 OA
ATOM     11  O   LIG    1       -1.052   0.273  -0.513  0.00  0.00    -0.170 OA
ENDBRANCH   2   9
ENDBRANCH   1   5
BRANCH   1  12
ATOM     12  C   LIG    1       -3.550   4.091   5.310  0.00  0.00    +0.226 C 
ATOM     13  N   LIG    1       -4.152   4.481   6.451  0.00  0.00    -0.264 N 
ATOM     14  H   LIG    1       -4.025   3.970   7.266  0.00  0.00    +0.157 HD
ATOM     15  O   LIG    1       -3.633   4.780   4.315  0.00  0.00    -0.275 OA
BRANCH  13  16
ATOM     16  C   LIG    1       -4.955   5.616   6.462  0.00  0.00    +0.164 A 
ATOM     17  N   LIG    1       -5.242   6.437   5.470  0.00  0.00    -0.233 NA
ATOM     18  C   LIG    1       -6.033   7.476   5.651  0.00  0.00    +0.120 A 
ATOM     19  C   LIG    1       -6.541   7.694   6.888  0.00  0.00    +0.068 A 
ATOM     20  S   LIG    1       -5.830   6.321   7.785  0.00  0.00    -0.061 S 
ENDBRANCH  13  16
ENDBRANCH   1  12
BRANCH   1  21
ATOM     21  C   LIG    1       -1.546   2.915   6.174  0.00  0.00    +0.021 C 
BRANCH  21  22
ATOM     22  C   LIG    1       -0.839   1.560   6.248  0.00  0.00    -0.010 C 
ATOM     23  C   LIG    1       -1.723   0.543   7.000  0.00  0.00    +0.003 C 
ATOM     24  C   LIG    1       -0.716  -0.303   7.818  0.00  0.00    +0.000 C 
ATOM     25  C   LIG    1        0.329   0.748   8.268  0.00  0.00    +0.000 C 
ATOM     26  C   LIG    1        0.466   1.689   7.053  0.00  0.00    +0.003 C 
ENDBRANCH  21  22
ENDBRANCH   1  21
TORSDOF 6
