REMARK  Name = ZINC03816330
REMARK                            x       y       z     vdW  Elec       q    Type
REMARK                         _______ _______ _______ _____ _____    ______ ____
ROOT
ATOM      1  C   LIG    1       -4.530   0.663  -0.319  0.00  0.00    +0.020 A 
ATOM      2  C   LIG    1       -3.169   0.476  -0.480  0.00  0.00    +0.012 A 
ATOM      3  C   LIG    1       -2.522  -0.495   0.270  0.00  0.00    +0.004 A 
ATOM      4  C   LIG    1       -3.226  -1.245   1.219  0.00  0.00    -0.037 A 
ATOM      5  C   LIG    1       -2.458  -2.139   2.144  0.00  0.00    +0.036 C 
ATOM      6  C   LIG    1       -2.083  -3.493   1.532  0.00  0.00    +0.009 C 
ATOM      7  C   LIG    1       -1.563  -3.283   0.103  0.00  0.00    +0.040 C 
ATOM      8  C   LIG    1       -0.652  -2.096   0.043  0.00  0.00    +0.011 A 
ATOM      9  C   LIG    1        0.741  -2.021  -0.085  0.00  0.00    +0.152 A 
ATOM     10  N   LIG    1        1.060  -0.735  -0.110  0.00  0.00    -0.161 NA
ATOM     11  N   LIG    1        0.002  -0.004   0.002  0.00  0.00    -0.230 N 
ATOM     12  C   LIG    1       -4.586  -1.074   1.346  0.00  0.00    +0.024 A 
ATOM     13  C   LIG    1       -1.084  -0.800   0.104  0.00  0.00    +0.079 A 
ATOM     14  C   LIG    1       -5.236  -0.120   0.578  0.00  0.00    +0.041 A 
ATOM     15 CL   LIG    1       -6.951   0.094   0.743  0.00  0.00    -0.084 Cl
ENDROOT
BRANCH  11  16
ATOM     16  C   LIG    1       -0.017   1.396   0.010  0.00  0.00    +0.084 A 
ATOM     17  C   LIG    1       -0.737   2.077   0.982  0.00  0.00    +0.031 A 
ATOM     18  C   LIG    1       -0.750   3.458   0.991  0.00  0.00    +0.022 A 
ATOM     19  C   LIG    1       -0.054   4.164   0.025  0.00  0.00    +0.042 A 
ATOM     20 CL   LIG    1       -0.078   5.900   0.036  0.00  0.00    -0.083 Cl
ATOM     21  C   LIG    1        0.660   3.490  -0.949  0.00  0.00    +0.042 A 
ATOM     22  C   LIG    1        0.680   2.107  -0.959  0.00  0.00    +0.068 A 
ATOM     23 CL   LIG    1        1.576   1.261  -2.182  0.00  0.00    -0.081 Cl
ENDBRANCH  11  16
BRANCH   9  24
ATOM     24  C   LIG    1        1.677  -3.159  -0.182  0.00  0.00    +0.278 C 
ATOM     25  N   LIG    1        3.001  -2.936  -0.302  0.00  0.00    -0.243 N 
ATOM     26  H   LIG    1        3.339  -2.027  -0.325  0.00  0.00    +0.170 HD
ATOM     27  O   LIG    1        1.253  -4.298  -0.152  0.00  0.00    -0.267 OA
BRANCH  25  28
ATOM     28  N   LIG    1        3.866  -3.989  -0.391  0.00  0.00    -0.227 NA
ATOM     29  C   LIG    1        4.771  -4.025   0.765  0.00  0.00    +0.105 C 
ATOM     30  C   LIG    1        5.625  -5.294   0.706  0.00  0.00    +0.017 C 
ATOM     31  C   LIG    1        6.429  -5.302  -0.597  0.00  0.00    +0.003 C 
ATOM     32  C   LIG    1        5.466  -5.215  -1.783  0.00  0.00    +0.017 C 
ATOM     33  C   LIG    1        4.617  -3.948  -1.652  0.00  0.00    +0.105 C 
ENDBRANCH  25  28
ENDBRANCH   9  24
TORSDOF 3
