REMARK  Name = ZINC03782203
REMARK                            x       y       z     vdW  Elec       q    Type
REMARK                         _______ _______ _______ _____ _____    ______ ____
ROOT
ATOM      1  C   LIG    1        0.728   2.028  -0.348  0.00  0.00    +0.000 A 
ATOM      2  C   LIG    1        2.038   2.469  -0.372  0.00  0.00    +0.000 A 
ATOM      3  C   LIG    1        3.062   1.546  -0.321  0.00  0.00    +0.007 A 
ATOM      4  C   LIG    1        2.787   0.189  -0.231  0.00  0.00    -0.012 A 
ATOM      5  C   LIG    1        1.487  -0.257  -0.164  0.00  0.00    -0.041 A 
ATOM      6  C   LIG    1        1.044  -1.683   0.059  0.00  0.00    +0.036 C 
ATOM      7  C   LIG    1        2.006  -2.714  -0.522  0.00  0.00    +0.009 C 
ATOM      8  C   LIG    1        3.078  -3.046   0.535  0.00  0.00    +0.034 C 
ATOM      9  C   LIG    1        3.804  -1.780   0.860  0.00  0.00    -0.030 C 
ATOM     10  C   LIG    1        4.304  -1.558   2.075  0.00  0.00    +0.093 C 
ATOM     11  C   LIG    1        3.945  -0.767  -0.246  0.00  0.00    +0.171 C 
ATOM     12  C   LIG    1        0.457   0.682  -0.250  0.00  0.00    +0.004 A 
ENDROOT
BRANCH  10  13
ATOM     13  C   LIG    1        4.295  -2.627   3.079  0.00  0.00    +0.330 C 
ATOM     14  O   LIG    1        3.929  -3.754   2.770  0.00  0.00    -0.246 OA
BRANCH  13  15
ATOM     15  O   LIG    1        4.652  -2.393   4.226  0.00  0.00    -0.478 OA
ATOM     16  H   LIG    1        4.932  -1.531   4.462  0.00  0.00    +0.295 HD
ENDBRANCH  13  15
ENDBRANCH  10  13
BRANCH  11  17
ATOM     17  O   LIG    1        3.983  -1.443  -1.505  0.00  0.00    -0.383 OA
ATOM     18  H   LIG    1        4.708  -2.078  -1.588  0.00  0.00    +0.211 HD
ENDBRANCH  11  17
TORSDOF 3
