REMARK  Name = ZINC03644203
REMARK                            x       y       z     vdW  Elec       q    Type
REMARK                         _______ _______ _______ _____ _____    ______ ____
ROOT
ATOM      1  C   LIG    1        0.739  -2.729   4.588  0.00  0.00    +0.166 C 
ENDROOT
BRANCH   1   2
ATOM      2  C   LIG    1        0.530  -2.071   5.927  0.00  0.00    -0.007 A 
ATOM      3  C   LIG    1        0.552  -0.692   6.030  0.00  0.00    +0.007 A 
ATOM      4  C   LIG    1        0.360  -0.088   7.259  0.00  0.00    +0.000 A 
ATOM      5  C   LIG    1        0.145  -0.862   8.384  0.00  0.00    +0.000 A 
ATOM      6  C   LIG    1        0.123  -2.241   8.280  0.00  0.00    +0.000 A 
ATOM      7  C   LIG    1        0.310  -2.845   7.051  0.00  0.00    +0.007 A 
ENDBRANCH   1   2
BRANCH   1   8
ATOM      8  C   LIG    1        2.208  -2.995   4.383  0.00  0.00    -0.007 A 
ATOM      9  C   LIG    1        3.007  -2.039   3.784  0.00  0.00    +0.007 A 
ATOM     10  C   LIG    1        4.354  -2.283   3.596  0.00  0.00    +0.000 A 
ATOM     11  C   LIG    1        4.904  -3.482   4.007  0.00  0.00    +0.000 A 
ATOM     12  C   LIG    1        4.105  -4.439   4.607  0.00  0.00    +0.000 A 
ATOM     13  C   LIG    1        2.759  -4.193   4.799  0.00  0.00    +0.007 A 
ENDBRANCH   1   8
BRANCH   1  14
ATOM     14  O   LIG    1        0.021  -3.964   4.547  0.00  0.00    -0.363 OA
ATOM     15  C   LIG    1        0.246  -4.728   3.361  0.00  0.00    +0.195 C 
ENDBRANCH   1  14
BRANCH   1  16
ATOM     16  C   LIG    1        0.228  -1.806   3.480  0.00  0.00    +0.325 C 
BRANCH  16  17
ATOM     17  C   LIG    1       -1.269  -1.672   3.588  0.00  0.00    +0.350 C 
ATOM     18  O   LIG    1       -1.987  -2.130   2.716  0.00  0.00    -0.247 OA
BRANCH  17  19
ATOM     19  O   LIG    1       -1.762  -1.105   4.548  0.00  0.00    -0.478 OA
ATOM     20  H   LIG    1       -1.211  -0.752   5.219  0.00  0.00    +0.295 HD
ENDBRANCH  17  19
ENDBRANCH  16  17
BRANCH  16  21
ATOM     21  O   LIG    1        0.566  -2.358   2.206  0.00  0.00    -0.444 OA
BRANCH  21  28
ATOM     22  C   LIG    1        0.731   2.171   0.734  0.00  0.00    +0.066 C 
ATOM     23  C   LIG    1        0.863   0.695   0.460  0.00  0.00    +0.045 A 
ATOM     24  C   LIG    1        1.195   0.244  -0.808  0.00  0.00    +0.046 A 
ATOM     25  C   LIG    1        1.306  -1.122  -1.016  0.00  0.00    +0.045 A 
ATOM     26  C   LIG    1        1.664  -1.659  -2.378  0.00  0.00    +0.066 C 
ATOM     27  N   LIG    1        1.093  -1.948  -0.005  0.00  0.00    -0.200 NA
ATOM     28  C   LIG    1        0.778  -1.484   1.193  0.00  0.00    +0.319 A 
ATOM     29  N   LIG    1        0.668  -0.186   1.428  0.00  0.00    -0.200 NA
ENDBRANCH  21  28
ENDBRANCH  16  21
ENDBRANCH   1  16
TORSDOF 8
