REMARK  Name = ZINC03831502
REMARK                            x       y       z     vdW  Elec       q    Type
REMARK                         _______ _______ _______ _____ _____    ______ ____
ROOT
ATOM      1  C   LIG    1       -2.149   1.152   1.156  0.00  0.00    +0.040 C 
ATOM      2  C   LIG    1       -0.675   1.554   1.229  0.00  0.00    +0.135 C 
ATOM      3  C   LIG    1       -0.017   1.087   2.563  0.00  0.00    +0.215 C 
ATOM      4  N   LIG    1       -0.410   1.976   3.656  0.00  0.00    -0.263 N 
ATOM      5  C   LIG    1       -0.575   3.396   3.298  0.00  0.00    +0.229 C 
ATOM      6  C   LIG    1       -2.012   3.372   3.817  0.00  0.00    +0.142 C 
ATOM      7  C   LIG    1       -1.668   1.941   4.134  0.00  0.00    +0.221 C 
ATOM      8  O   LIG    1       -2.311   1.052   4.651  0.00  0.00    -0.275 OA
ATOM      9  S   LIG    1       -0.476   3.378   1.458  0.00  0.00    -0.002 S 
ATOM     10  O   LIG    1       -1.608   4.046   0.917  0.00  0.00    -0.172 OA
ATOM     11  O   LIG    1        0.830   3.764   1.053  0.00  0.00    -0.172 OA
ENDROOT
BRANCH   3  12
ATOM     12  C   LIG    1       -0.464  -0.319   2.874  0.00  0.00    +0.328 C 
ATOM     13  O   LIG    1       -0.935  -0.577   3.957  0.00  0.00    -0.249 OA
BRANCH  12  14
ATOM     14  O   LIG    1       -0.338  -1.283   1.950  0.00  0.00    -0.479 OA
ATOM     15  H   LIG    1        0.027  -1.083   1.110  0.00  0.00    +0.295 HD
ENDBRANCH  12  14
ENDBRANCH   3  12
BRANCH   2  16
ATOM     16  C   LIG    1        0.102   1.050   0.011  0.00  0.00    +0.177 C 
BRANCH  16  17
ATOM     17  N   LIG    1       -0.557   1.511  -1.213  0.00  0.00    -0.250 N 
ATOM     18  C   LIG    1        0.025   2.221  -2.208  0.00  0.00    +0.130 A 
ATOM     19  C   LIG    1       -0.939   2.429  -3.135  0.00  0.00    +0.156 A 
ATOM     20  N   LIG    1       -2.050   1.851  -2.666  0.00  0.00    -0.138 NA
ATOM     21  N   LIG    1       -1.790   1.315  -1.526  0.00  0.00    -0.066 NA
ENDBRANCH  16  17
ENDBRANCH   2  16
TORSDOF 4
