REMARK  Name = ZINC03781942
REMARK                            x       y       z     vdW  Elec       q    Type
REMARK                         _______ _______ _______ _____ _____    ______ ____
ROOT
ATOM      1  C   LIG    1        1.408  11.128  -1.647  0.00  0.00    +0.247 C 
ATOM      2  N   LIG    1        1.321   9.792  -1.487  0.00  0.00    -0.295 N 
ATOM      3  C   LIG    1        2.511   8.938  -1.620  0.00  0.00    +0.127 C 
ATOM      4  C   LIG    1        2.188   7.800  -2.595  0.00  0.00    +0.124 C 
ATOM      5  N   LIG    1        0.972   7.108  -2.148  0.00  0.00    -0.327 N 
ATOM      6  C   LIG    1       -0.191   8.005  -2.168  0.00  0.00    +0.124 C 
ATOM      7  C   LIG    1        0.035   9.151  -1.175  0.00  0.00    +0.127 C 
ATOM      8  O   LIG    1        0.401  11.808  -1.630  0.00  0.00    -0.270 OA
ENDROOT
BRANCH   5   9
ATOM      9  C   LIG    1        0.735   5.963  -2.917  0.00  0.00    +0.030 A 
ATOM     10  C   LIG    1        1.606   5.626  -3.945  0.00  0.00    +0.025 A 
ATOM     11  C   LIG    1        1.372   4.497  -4.705  0.00  0.00    +0.025 A 
ATOM     12  C   LIG    1        0.267   3.699  -4.441  0.00  0.00    +0.037 A 
ATOM     13  C   LIG    1       -0.604   4.037  -3.413  0.00  0.00    -0.024 A 
ATOM     14  C   LIG    1       -1.802   3.168  -3.129  0.00  0.00    +0.046 C 
ATOM     15  C   LIG    1       -2.330   2.583  -4.443  0.00  0.00    +0.101 C 
ATOM     16  C   LIG    1       -1.193   1.986  -5.227  0.00  0.00    +0.218 C 
ATOM     17  O   LIG    1       -1.380   0.985  -5.886  0.00  0.00    -0.275 OA
ATOM     18  N   LIG    1        0.027   2.553  -5.210  0.00  0.00    -0.285 N 
ATOM     19  H   LIG    1        0.746   2.165  -5.733  0.00  0.00    +0.155 HD
ATOM     20  C   LIG    1       -0.371   5.165  -2.653  0.00  0.00    +0.028 A 
ENDBRANCH   5   9
BRANCH   1  24
ATOM     21  C   LIG    1        5.203  12.956  -2.208  0.00  0.00    +0.162 A 
ATOM     22  C   LIG    1        5.088  11.825  -1.410  0.00  0.00    +0.050 A 
ATOM     23  C   LIG    1        3.858  11.233  -1.222  0.00  0.00    +0.017 A 
ATOM     24  C   LIG    1        2.725  11.764  -1.843  0.00  0.00    +0.041 A 
ATOM     25  C   LIG    1        2.841  12.901  -2.647  0.00  0.00    +0.062 A 
ATOM     26  C   LIG    1        4.076  13.493  -2.827  0.00  0.00    +0.162 A 
BRANCH  21  28
ATOM     27  C   LIG    1        7.530  12.936  -1.723  0.00  0.00    +0.277 C 
ATOM     28  O   LIG    1        6.417  13.538  -2.387  0.00  0.00    -0.491 OA
ENDBRANCH  21  28
BRANCH  26  29
ATOM     29  O   LIG    1        4.192  14.600  -3.609  0.00  0.00    -0.491 OA
ATOM     30  C   LIG    1        2.995  15.096  -4.213  0.00  0.00    +0.277 C 
ENDBRANCH  26  29
ENDBRANCH   1  24
TORSDOF 4
