REMARK  Name = ZINC03807804
REMARK                            x       y       z     vdW  Elec       q    Type
REMARK                         _______ _______ _______ _____ _____    ______ ____
ROOT
ATOM      1  C   LIG    1        3.711  -0.707  -0.038  0.00  0.00    +0.123 C 
ENDROOT
BRANCH   1   2
ATOM      2  C   LIG    1        4.537  -0.404  -1.261  0.00  0.00    +0.006 A 
ATOM      3  C   LIG    1        5.786   0.174  -1.126  0.00  0.00    +0.008 A 
ATOM      4  C   LIG    1        6.543   0.453  -2.248  0.00  0.00    +0.000 A 
ATOM      5  C   LIG    1        6.053   0.153  -3.506  0.00  0.00    +0.001 A 
ATOM      6  C   LIG    1        4.805  -0.425  -3.642  0.00  0.00    +0.020 A 
ATOM      7  C   LIG    1        4.049  -0.709  -2.519  0.00  0.00    +0.047 A 
ATOM      8 CL   LIG    1        2.484  -1.441  -2.688  0.00  0.00    -0.083 Cl
ENDBRANCH   1   2
BRANCH   1  12
ATOM      9  C   LIG    1       -0.140   1.096  -0.439  0.00  0.00    +0.000 A 
ATOM     10  C   LIG    1        0.998   1.879  -0.490  0.00  0.00    +0.000 A 
ATOM     11  C   LIG    1        2.244   1.295  -0.360  0.00  0.00    +0.006 A 
ATOM     12  C   LIG    1        2.352  -0.071  -0.178  0.00  0.00    -0.013 A 
ATOM     13  C   LIG    1        1.214  -0.853  -0.127  0.00  0.00    +0.006 A 
ATOM     14  C   LIG    1       -0.032  -0.270  -0.258  0.00  0.00    +0.000 A 
ENDBRANCH   1  12
BRANCH   1  15
ATOM     15  C   LIG    1        3.555  -2.199   0.105  0.00  0.00    -0.013 A 
ATOM     16  C   LIG    1        4.102  -3.045  -0.841  0.00  0.00    +0.006 A 
ATOM     17  C   LIG    1        3.958  -4.414  -0.710  0.00  0.00    +0.000 A 
ATOM     18  C   LIG    1        3.268  -4.936   0.368  0.00  0.00    +0.000 A 
ATOM     19  C   LIG    1        2.722  -4.090   1.315  0.00  0.00    +0.000 A 
ATOM     20  C   LIG    1        2.869  -2.722   1.186  0.00  0.00    +0.006 A 
ENDBRANCH   1  15
BRANCH   1  21
ATOM     21  N   LIG    1        4.381  -0.170   1.149  0.00  0.00    -0.319 N 
ATOM     22  C   LIG    1        5.575  -0.592   1.669  0.00  0.00    +0.108 A 
ATOM     23  C   LIG    1        5.819   0.168   2.753  0.00  0.00    +0.130 A 
ATOM     24  N   LIG    1        4.801   1.031   2.892  0.00  0.00    -0.244 NA
ATOM     25  C   LIG    1        3.939   0.838   1.932  0.00  0.00    +0.200 A 
ENDBRANCH   1  21
TORSDOF 4
