REMARK  Name = ZINC03791107
REMARK                            x       y       z     vdW  Elec       q    Type
REMARK                         _______ _______ _______ _____ _____    ______ ____
ROOT
ATOM      1  C   LIG    1        0.960  -1.815   5.178  0.00  0.00    +0.132 C 
ENDROOT
BRANCH   1   5
ATOM      2  C   LIG    1       -2.255   0.450   3.506  0.00  0.00    +0.121 A 
ATOM      3  C   LIG    1       -2.509  -0.767   4.121  0.00  0.00    +0.046 A 
ATOM      4  C   LIG    1       -1.467  -1.501   4.656  0.00  0.00    +0.008 A 
ATOM      5  C   LIG    1       -0.174  -1.017   4.588  0.00  0.00    -0.033 A 
ATOM      6  C   LIG    1        0.081   0.199   3.981  0.00  0.00    +0.008 A 
ATOM      7  C   LIG    1       -0.956   0.933   3.439  0.00  0.00    +0.046 A 
BRANCH   2   8
ATOM      8  O   LIG    1       -3.278   1.170   2.974  0.00  0.00    -0.485 OA
BRANCH   8  12
ATOM      9  N   LIG    1       -4.222   4.253   1.410  0.00  0.00    -0.224 N 
ATOM     10  C   LIG    1       -3.095   3.884   0.535  0.00  0.00    +0.229 C 
ATOM     11  C   LIG    1       -2.735   2.428   0.939  0.00  0.00    +0.092 C 
ATOM     12  C   LIG    1       -2.963   2.471   2.473  0.00  0.00    +0.216 C 
ATOM     13  C   LIG    1       -4.171   3.420   2.621  0.00  0.00    +0.270 C 
BRANCH   9  15
ATOM     14  C   LIG    1       -5.094   5.993  -0.147  0.00  0.00    +0.140 C 
ATOM     15  C   LIG    1       -5.163   5.211   1.140  0.00  0.00    +0.235 C 
ATOM     16  N   LIG    1       -6.099   5.401   2.043  0.00  0.00    -0.293 N 
ATOM     17  H   LIG    1       -6.103   4.842   2.904  0.00  0.00    +0.301 HD
ATOM     18  H   LIG    1       -6.822   6.104   1.888  0.00  0.00    +0.301 HD
ENDBRANCH   9  15
ENDBRANCH   8  12
ENDBRANCH   2   8
ENDBRANCH   1   5
BRANCH   1  19
ATOM     19  C   LIG    1        0.721  -2.014   6.652  0.00  0.00    +0.313 C 
ATOM     20  O   LIG    1       -0.268  -1.553   7.171  0.00  0.00    -0.250 OA
BRANCH  19  21
ATOM     21  O   LIG    1        1.608  -2.701   7.389  0.00  0.00    -0.480 OA
ATOM     22  H   LIG    1        2.375  -3.058   6.987  0.00  0.00    +0.295 HD
ENDBRANCH  19  21
ENDBRANCH   1  19
BRANCH   1  23
ATOM     23  C   LIG    1        1.037  -3.178   4.486  0.00  0.00    +0.054 C 
BRANCH  23  24
ATOM     24  C   LIG    1        2.244  -3.928   4.988  0.00  0.00    -0.046 A 
ATOM     25  C   LIG    1        3.464  -3.787   4.328  0.00  0.00    +0.004 A 
ATOM     26  C   LIG    1        4.574  -4.447   4.759  0.00  0.00    +0.009 A 
ATOM     27  C   LIG    1        4.492  -5.292   5.878  0.00  0.00    -0.018 A 
ATOM     28  C   LIG    1        5.620  -5.991   6.344  0.00  0.00    +0.009 A 
ATOM     29  C   LIG    1        5.517  -6.802   7.428  0.00  0.00    +0.016 A 
ATOM     30  C   LIG    1        4.291  -6.957   8.098  0.00  0.00    +0.061 A 
ATOM     31  C   LIG    1        3.163  -6.282   7.665  0.00  0.00    +0.024 A 
ATOM     32  C   LIG    1        3.250  -5.440   6.546  0.00  0.00    -0.017 A 
ATOM     33  C   LIG    1        2.126  -4.738   6.075  0.00  0.00    +0.012 A 
BRANCH  30  34
ATOM     34  C   LIG    1        4.206  -7.848   9.277  0.00  0.00    +0.266 C 
ATOM     35  N   LIG    1        3.026  -7.955   9.868  0.00  0.00    -0.288 N 
ATOM     36  H   LIG    1        2.220  -7.431   9.504  0.00  0.00    +0.301 HD
ATOM     37  H   LIG    1        2.916  -8.556  10.684  0.00  0.00    +0.301 HD
BRANCH  34  38
ATOM     38  N   LIG    1        5.326  -8.522   9.713  0.00  0.00    -0.250 N 
ATOM     39  H   LIG    1        5.270  -9.106  10.486  0.00  0.00    +0.288 HD
ATOM     40  H   LIG    1        6.170  -8.412   9.248  0.00  0.00    +0.288 HD
ENDBRANCH  34  38
ENDBRANCH  30  34
ENDBRANCH  23  24
ENDBRANCH   1  23
TORSDOF 10
