REMARK  Name = ZINC03809579
REMARK                            x       y       z     vdW  Elec       q    Type
REMARK                         _______ _______ _______ _____ _____    ______ ____
ROOT
ATOM      1  C   LIG    1       -4.714   4.925  -0.588  0.00  0.00    +0.133 C 
ATOM      2  N   LIG    1       -3.259   4.815  -0.716  0.00  0.00    -0.289 N 
ATOM      3  C   LIG    1       -2.456   5.390   0.201  0.00  0.00    +0.321 C 
ATOM      4  N   LIG    1       -1.123   5.197   0.145  0.00  0.00    -0.270 N 
ATOM      5  C   LIG    1       -0.512   3.981   0.120  0.00  0.00    +0.108 A 
ATOM      6  C   LIG    1        0.839   4.146   0.067  0.00  0.00    +0.048 A 
ATOM      7  C   LIG    1        1.087   5.600   0.047  0.00  0.00    +0.011 A 
ATOM      8  C   LIG    1        2.240   6.380  -0.007  0.00  0.00    +0.011 A 
ATOM      9  C   LIG    1        2.142   7.743  -0.011  0.00  0.00    +0.009 A 
ATOM     10  C   LIG    1        0.889   8.360   0.039  0.00  0.00    -0.016 A 
ATOM     11  C   LIG    1       -0.269   7.593   0.094  0.00  0.00    +0.035 A 
ATOM     12  C   LIG    1       -0.178   6.209   0.099  0.00  0.00    +0.059 A 
ATOM     13  O   LIG    1       -2.934   6.081   1.079  0.00  0.00    -0.249 OA
ATOM     14  C   LIG    1       -2.677   4.082  -1.842  0.00  0.00    +0.133 C 
ENDROOT
BRANCH  10  15
ATOM     15  C   LIG    1        0.795   9.840   0.034  0.00  0.00    -0.018 A 
ATOM     16  C   LIG    1       -0.452  10.461   0.078  0.00  0.00    +0.011 A 
ATOM     17  C   LIG    1       -0.534  11.838   0.078  0.00  0.00    +0.039 A 
ATOM     18  C   LIG    1        0.619  12.604   0.023  0.00  0.00    +0.123 A 
ATOM     19  F   LIG    1        0.533  13.952   0.018  0.00  0.00    -0.205 F 
ATOM     20  C   LIG    1        1.861  11.991  -0.026  0.00  0.00    +0.039 A 
ATOM     21  C   LIG    1        1.953  10.614  -0.021  0.00  0.00    +0.011 A 
ENDBRANCH  10  15
BRANCH   6  22
ATOM     22  C   LIG    1        1.853   3.082   0.029  0.00  0.00    +0.197 C 
ATOM     23  O   LIG    1        2.044   2.459  -0.999  0.00  0.00    -0.287 OA
BRANCH  22  24
ATOM     24  C   LIG    1        2.638   2.769   1.236  0.00  0.00    +0.044 A 
ATOM     25  C   LIG    1        2.606   3.482   2.511  0.00  0.00    +0.031 A 
ATOM     26  C   LIG    1        3.473   2.853   3.313  0.00  0.00    +0.088 A 
ATOM     27  N   LIG    1        4.047   1.792   2.628  0.00  0.00    -0.333 N 
ATOM     28  C   LIG    1        5.056   0.768   3.026  0.00  0.00    +0.177 C 
ATOM     29  S   LIG    1        5.565   0.086   1.395  0.00  0.00    -0.125 S 
ATOM     30  C   LIG    1        4.071   0.632   0.468  0.00  0.00    +0.125 C 
ATOM     31  C   LIG    1        3.553   1.741   1.389  0.00  0.00    +0.041 A 
BRANCH  28  32
ATOM     32  C   LIG    1        4.431  -0.300   3.886  0.00  0.00    +0.003 A 
ATOM     33  C   LIG    1        4.892  -0.524   5.175  0.00  0.00    +0.009 A 
ATOM     34  C   LIG    1        4.287  -1.517   5.929  0.00  0.00    +0.020 A 
ATOM     35  C   LIG    1        3.250  -2.246   5.376  0.00  0.00    +0.111 A 
ATOM     36  N   LIG    1        2.838  -2.005   4.147  0.00  0.00    -0.263 NA
ATOM     37  C   LIG    1        3.386  -1.065   3.402  0.00  0.00    +0.117 A 
ENDBRANCH  28  32
ENDBRANCH  22  24
ENDBRANCH   6  22
TORSDOF 4
