REMARK  Name = ZINC03804508
REMARK                            x       y       z     vdW  Elec       q    Type
REMARK                         _______ _______ _______ _____ _____    ______ ____
ROOT
ATOM      1  C   UNK    1        0.034  -4.179  -2.650  0.00  0.00    +0.003 C 
ENDROOT
BRANCH   1   2
ATOM      2  C   UNK    1        0.013  -2.650  -2.641  0.00  0.00    +0.043 C 
BRANCH   2   3
ATOM      3  C   UNK    1        0.020  -2.147  -1.196  0.00  0.00    +0.223 C 
BRANCH   3   4
ATOM      4  N   UNK    1        0.000  -0.683  -1.188  0.00  0.00    -0.241 N 
ATOM      5  H   UNK    1       -0.015  -0.193  -2.026  0.00  0.00    +0.291 HD
BRANCH   4   7
ATOM      6  C   UNK    1       -0.018   1.503   0.010  0.00  0.00    +0.139 C 
ATOM      7  C   UNK    1        0.002  -0.004   0.002  0.00  0.00    +0.233 C 
ATOM      8  N   UNK    1        0.021  -0.657   1.118  0.00  0.00    -0.293 N 
ATOM      9  H   UNK    1        0.035  -1.627   1.113  0.00  0.00    +0.301 HD
ATOM     10  H   UNK    1        0.023  -0.176   1.961  0.00  0.00    +0.301 HD
ENDBRANCH   4   7
ENDBRANCH   3   4
ENDBRANCH   2   3
ENDBRANCH   1   2
BRANCH   1  11
ATOM     11  C   UNK    1        0.027  -4.682  -4.095  0.00  0.00    -0.005 C 
BRANCH  11  12
ATOM     12  C   UNK    1        0.048  -6.212  -4.103  0.00  0.00    +0.036 C 
BRANCH  12  13
ATOM     13  N   UNK    1        1.315  -6.687  -3.533  0.00  0.00    +0.387 N 
ATOM     14  H   UNK    1        1.402  -6.355  -2.584  0.00  0.00    -0.089 HD
ATOM     15  H   UNK    1        2.084  -6.337  -4.084  0.00  0.00    -0.089 HD
ATOM     16  H   UNK    1        1.329  -7.696  -3.538  0.00  0.00    -0.089 HD
ENDBRANCH  12  13
BRANCH  12  17
ATOM     17  C   UNK    1       -0.083  -6.708  -5.520  0.00  0.00    +0.290 C 
ATOM     18  O   UNK    1        0.915  -6.894  -6.196  0.00  0.00    -0.253 OA
BRANCH  17  19
ATOM     19  O   UNK    1       -1.187  -6.923  -5.992  0.00  0.00    -0.482 OA
ATOM     20  H   UNK    1       -1.953  -6.781  -5.473  0.00  0.00    +0.295 HD
ENDBRANCH  17  19
ENDBRANCH  12  17
ENDBRANCH  11  12
ENDBRANCH   1  11
TORSDOF 9
