REMARK  Name = ZINC03791538
REMARK                            x       y       z     vdW  Elec       q    Type
REMARK                         _______ _______ _______ _____ _____    ______ ____
ROOT
ATOM      1  C   LIG    1        2.490   1.047  -0.016  0.00  0.00    +0.169 C 
ENDROOT
BRANCH   1   6
ATOM      2  C   LIG    1        4.279  -1.203  -4.842  0.00  0.00    +0.175 C 
ATOM      3  N   LIG    1        4.405   0.235  -4.591  0.00  0.00    -0.247 N 
ATOM      4  C   LIG    1        4.010   0.910  -3.461  0.00  0.00    +0.089 A 
ATOM      5  C   LIG    1        3.416   0.526  -2.264  0.00  0.00    +0.035 A 
ATOM      6  C   LIG    1        3.139   1.465  -1.310  0.00  0.00    -0.017 A 
ATOM      7  C   LIG    1        3.455   2.801  -1.522  0.00  0.00    +0.008 A 
ATOM      8  C   LIG    1        4.043   3.203  -2.686  0.00  0.00    +0.032 A 
ATOM      9  C   LIG    1        4.333   2.260  -3.681  0.00  0.00    +0.113 A 
ATOM     10  N   LIG    1        4.895   2.353  -4.903  0.00  0.00    -0.129 NA
ATOM     11  N   LIG    1        4.952   1.193  -5.457  0.00  0.00    -0.065 NA
ENDBRANCH   1   6
BRANCH   1  12
ATOM     12  C   LIG    1        1.119   1.666   0.082  0.00  0.00    -0.019 A 
ATOM     13  C   LIG    1        0.524   1.835   1.318  0.00  0.00    +0.007 A 
ATOM     14  C   LIG    1       -0.735   2.397   1.408  0.00  0.00    +0.020 A 
ATOM     15  C   LIG    1       -1.395   2.801   0.261  0.00  0.00    +0.041 A 
ATOM     16 CL   LIG    1       -2.975   3.513   0.374  0.00  0.00    -0.084 Cl
ATOM     17  C   LIG    1       -0.799   2.632  -0.976  0.00  0.00    +0.020 A 
ATOM     18  C   LIG    1        0.458   2.065  -1.065  0.00  0.00    +0.007 A 
ENDBRANCH   1  12
BRANCH   1  19
ATOM     19  N   LIG    1        3.311   1.499   1.110  0.00  0.00    -0.240 N 
ATOM     20  C   LIG    1        3.295   2.715   1.682  0.00  0.00    +0.220 A 
ATOM     21  N   LIG    1        4.172   2.718   2.653  0.00  0.00    -0.223 NA
ATOM     22  C   LIG    1        4.765   1.528   2.731  0.00  0.00    +0.245 A 
ATOM     23  N   LIG    1        4.268   0.745   1.810  0.00  0.00    -0.158 NA
ENDBRANCH   1  19
TORSDOF 3
