REMARK  Name = ZINC03809850
REMARK                            x       y       z     vdW  Elec       q    Type
REMARK                         _______ _______ _______ _____ _____    ______ ____
ROOT
ATOM      1  C   LIG    1       -4.855  -6.119   7.346  0.00  0.00    +0.053 C 
ENDROOT
BRANCH   1   2
ATOM      2  C   LIG    1       -3.838  -5.927   8.443  0.00  0.00    -0.027 C 
ATOM      3  C   LIG    1       -3.576  -6.907   9.272  0.00  0.00    -0.031 C 
BRANCH   3   4
ATOM      4  C   LIG    1       -4.163  -8.274   9.033  0.00  0.00    +0.027 C 
BRANCH   4   5
ATOM      5  C   LIG    1       -3.047  -9.319   9.052  0.00  0.00    +0.013 C 
BRANCH   5   6
ATOM      6  C   LIG    1       -3.643 -10.707   8.810  0.00  0.00    +0.096 C 
BRANCH   6   7
ATOM      7  C   LIG    1       -2.543 -11.737   8.828  0.00  0.00    +0.213 C 
ATOM      8  N   LIG    1       -2.835 -13.039   8.635  0.00  0.00    -0.313 N 
ATOM      9  H   LIG    1       -3.753 -13.312   8.485  0.00  0.00    +0.149 HD
ATOM     10  O   LIG    1       -1.395 -11.395   9.017  0.00  0.00    -0.276 OA
BRANCH   8  11
ATOM     11  C   LIG    1       -1.766 -14.040   8.653  0.00  0.00    +0.132 C 
BRANCH  11  12
ATOM     12  C   LIG    1       -2.362 -15.428   8.411  0.00  0.00    +0.174 C 
BRANCH  12  13
ATOM     13  O   LIG    1       -2.913 -15.486   7.094  0.00  0.00    -0.393 OA
ATOM     14  H   LIG    1       -3.309 -16.339   6.871  0.00  0.00    +0.209 HD
ENDBRANCH  12  13
ENDBRANCH  11  12
ENDBRANCH   8  11
ENDBRANCH   6   7
ENDBRANCH   5   6
ENDBRANCH   4   5
ENDBRANCH   3   4
ENDBRANCH   1   2
BRANCH   1  16
ATOM     15  C   LIG    1       -6.151  -4.302   6.358  0.00  0.00    -0.027 C 
ATOM     16  C   LIG    1       -5.886  -5.022   7.419  0.00  0.00    -0.027 C 
BRANCH  15  17
ATOM     17  C   LIG    1       -5.560  -4.679   5.024  0.00  0.00    +0.053 C 
BRANCH  17  19
ATOM     18  C   LIG    1       -6.587  -4.121   2.880  0.00  0.00    -0.027 C 
ATOM     19  C   LIG    1       -6.661  -4.795   4.001  0.00  0.00    -0.027 C 
BRANCH  18  20
ATOM     20  C   LIG    1       -5.331  -3.362   2.539  0.00  0.00    +0.053 C 
BRANCH  20  22
ATOM     21  C   LIG    1       -4.643  -2.836   0.256  0.00  0.00    -0.031 C 
ATOM     22  C   LIG    1       -4.864  -3.756   1.161  0.00  0.00    -0.027 C 
BRANCH  21  23
ATOM     23  C   LIG    1       -4.696  -1.378   0.635  0.00  0.00    +0.027 C 
BRANCH  23  24
ATOM     24  C   LIG    1       -3.410  -0.685   0.180  0.00  0.00    +0.004 C 
BRANCH  24  25
ATOM     25  C   LIG    1       -3.464   0.794   0.565  0.00  0.00    +0.000 C 
BRANCH  25  27
ATOM     26  C   LIG    1       -2.231   2.967   0.494  0.00  0.00    +0.004 C 
ATOM     27  C   LIG    1       -2.177   1.487   0.110  0.00  0.00    -0.003 C 
ENDBRANCH  25  27
ENDBRANCH  24  25
ENDBRANCH  23  24
ENDBRANCH  21  23
ENDBRANCH  20  22
ENDBRANCH  18  20
ENDBRANCH  17  19
ENDBRANCH  15  17
ENDBRANCH   1  16
TORSDOF 17
