REMARK  Name = ZINC03866443
REMARK                            x       y       z     vdW  Elec       q    Type
REMARK                         _______ _______ _______ _____ _____    ______ ____
ROOT
ATOM      1  C   LIG    1       -0.013   1.086   0.008  0.00  0.00    +0.007 C 
ATOM      2  C   LIG    1       -0.729   1.579   1.267  0.00  0.00    -0.010 C 
ATOM      3  C   LIG    1       -0.750   3.109   1.275  0.00  0.00    +0.007 C 
ATOM      4  C   LIG    1       -1.490   3.616   0.036  0.00  0.00    -0.010 C 
ATOM      5  C   LIG    1       -0.773   3.123  -1.223  0.00  0.00    +0.007 C 
ATOM      6  C   LIG    1       -2.925   3.086   0.047  0.00  0.00    +0.010 C 
ATOM      7  C   LIG    1       -2.904   1.556   0.038  0.00  0.00    -0.030 C 
ATOM      8  C   LIG    1       -2.188   1.063  -1.221  0.00  0.00    +0.010 C 
ATOM      9  C   LIG    1       -2.164   1.050   1.278  0.00  0.00    +0.010 C 
ATOM     10  C   LIG    1       -0.753   1.593  -1.232  0.00  0.00    -0.010 C 
ENDROOT
BRANCH   7  11
ATOM     11  C   LIG    1       -4.340   1.027   0.049  0.00  0.00    -0.013 C 
BRANCH  11  12
ATOM     12  C   LIG    1       -5.056   1.520   1.308  0.00  0.00    -0.086 C 
BRANCH  12  13
ATOM     13  N   LIG    1       -6.429   0.987   1.319  0.00  0.00    +0.378 N 
ATOM     14  H   LIG    1       -6.393  -0.039   1.347  0.00  0.00    -0.090 HD
ATOM     15  H   LIG    1       -6.924   1.279   0.478  0.00  0.00    -0.090 HD
ATOM     16  H   LIG    1       -6.928   1.324   2.140  0.00  0.00    -0.090 HD
ENDBRANCH  12  13
ENDBRANCH  11  12
ENDBRANCH   7  11
TORSDOF 3
