REMARK  Name = ZINC03642651
REMARK                            x       y       z     vdW  Elec       q    Type
REMARK                         _______ _______ _______ _____ _____    ______ ____
ROOT
ATOM      1  C   LIG    1       -1.292   1.962  -2.136  0.00  0.00    -0.119 C 
ATOM      2  C   LIG    1       -0.725   1.573  -1.185  0.00  0.00    -0.085 C 
ENDROOT
BRANCH   1   3
ATOM      3  C   LIG    1       -2.004   2.450  -3.328  0.00  0.00    +0.011 C 
BRANCH   3   5
ATOM      4  C   LIG    1       -2.513   4.446  -4.601  0.00  0.00    -0.095 C 
ATOM      5  N   LIG    1       -1.997   3.928  -3.317  0.00  0.00    +0.383 N 
ATOM      6  H   LIG    1       -1.033   4.256  -3.188  0.00  0.00    -0.081 HD
ATOM      7  C   LIG    1       -2.828   4.428  -2.201  0.00  0.00    -0.095 C 
ENDBRANCH   3   5
ENDBRANCH   1   3
BRANCH   2   8
ATOM      8  C   LIG    1       -0.013   1.086   0.008  0.00  0.00    +0.196 C 
BRANCH   8   9
ATOM      9  N   LIG    1       -0.698   1.558   1.213  0.00  0.00    -0.290 N 
ATOM     10  C   LIG    1       -0.396   2.821   1.897  0.00  0.00    +0.109 C 
ATOM     11  C   LIG    1       -1.617   3.099   2.804  0.00  0.00    +0.028 C 
ATOM     12  C   LIG    1       -2.164   1.672   3.039  0.00  0.00    +0.097 C 
ATOM     13  C   LIG    1       -1.681   0.888   1.839  0.00  0.00    +0.216 C 
ATOM     14  O   LIG    1       -2.118  -0.189   1.492  0.00  0.00    -0.276 OA
ENDBRANCH   8   9
ENDBRANCH   2   8
TORSDOF 4
