REMARK  Name = ZINC03638105
REMARK                            x       y       z     vdW  Elec       q    Type
REMARK                         _______ _______ _______ _____ _____    ______ ____
ROOT
ATOM      1  C   LIG    1        1.775   0.167  -1.661  0.00  0.00    +0.016 C 
ATOM      2  C   LIG    1        2.200   1.276  -1.085  0.00  0.00    -0.020 C 
ATOM      3  C   LIG    1        1.427   1.974  -0.001  0.00  0.00    +0.008 C 
ATOM      4  C   LIG    1       -0.018   1.468   0.010  0.00  0.00    -0.078 C 
ATOM      5  N   LIG    1        0.001  -0.007   0.006  0.00  0.00    +0.382 N 
ATOM      6  H   LIG    1        0.626  -0.342   0.748  0.00  0.00    -0.085 HD
ATOM      7  H   LIG    1       -0.949  -0.360   0.175  0.00  0.00    -0.085 HD
ATOM      8  C   LIG    1        0.480  -0.499  -1.295  0.00  0.00    -0.040 C 
ENDROOT
BRANCH   1   9
ATOM      9  C   LIG    1        2.607  -0.444  -2.706  0.00  0.00    +0.333 C 
ATOM     10  O   LIG    1        3.661   0.073  -3.024  0.00  0.00    -0.245 OA
BRANCH   9  12
ATOM     11  C   LIG    1        3.075  -2.124  -4.338  0.00  0.00    +0.280 C 
ATOM     12  O   LIG    1        2.203  -1.577  -3.314  0.00  0.00    -0.465 OA
ENDBRANCH   9  12
ENDBRANCH   1   9
TORSDOF 2
