REMARK  Name = ZINC03870312
REMARK                            x       y       z     vdW  Elec       q    Type
REMARK                         _______ _______ _______ _____ _____    ______ ____
ROOT
ATOM      1  C   LIG    1       -2.670  -2.648  -0.270  0.00  0.00    -0.064 C 
ATOM      2  C   LIG    1       -2.557  -4.174  -0.165  0.00  0.00    -0.010 C 
ATOM      3  C   LIG    1       -3.963  -4.766  -0.229  0.00  0.00    +0.034 C 
ATOM      4  C   LIG    1       -4.712  -4.227  -1.420  0.00  0.00    -0.041 A 
ATOM      5  C   LIG    1       -5.836  -4.923  -1.847  0.00  0.00    +0.004 A 
ATOM      6  C   LIG    1       -6.570  -4.481  -2.928  0.00  0.00    +0.004 A 
ATOM      7  C   LIG    1       -6.186  -3.333  -3.595  0.00  0.00    +0.046 A 
ATOM      8  C   LIG    1       -5.066  -2.637  -3.175  0.00  0.00    +0.120 A 
ATOM      9  C   LIG    1       -4.323  -3.087  -2.085  0.00  0.00    -0.004 A 
ATOM     10  C   LIG    1       -3.106  -2.292  -1.689  0.00  0.00    +0.024 C 
ENDROOT
BRANCH   1  11
ATOM     11  N   LIG    1       -1.366  -2.035   0.016  0.00  0.00    +0.382 N 
ATOM     12  H   LIG    1       -1.069  -2.293   0.945  0.00  0.00    -0.081 HD
BRANCH  11  13
ATOM     13  C   LIG    1       -0.378  -2.508  -0.963  0.00  0.00    -0.079 C 
BRANCH  13  15
ATOM     14  C   LIG    1        2.034  -2.461  -1.612  0.00  0.00    +0.002 C 
ATOM     15  C   LIG    1        1.005  -1.969  -0.592  0.00  0.00    -0.022 C 
ENDBRANCH  13  15
ENDBRANCH  11  13
BRANCH  11  16
ATOM     16  C   LIG    1       -1.482  -0.574  -0.073  0.00  0.00    -0.079 C 
BRANCH  16  17
ATOM     17  C   LIG    1       -2.399  -0.066   1.042  0.00  0.00    -0.022 C 
ATOM     18  C   LIG    1       -2.585   1.446   0.901  0.00  0.00    +0.002 C 
ENDBRANCH  16  17
ENDBRANCH  11  16
ENDBRANCH   1  11
BRANCH   8  19
ATOM     19  O   LIG    1       -4.688  -1.508  -3.830  0.00  0.00    -0.506 OA
ATOM     20  H   LIG    1       -5.081  -0.698  -3.478  0.00  0.00    +0.292 HD
ENDBRANCH   8  19
TORSDOF 6
