REMARK  Name = ZINC03871916
REMARK                            x       y       z     vdW  Elec       q    Type
REMARK                         _______ _______ _______ _____ _____    ______ ____
ROOT
ATOM      1  C   LIG    1       -0.052   5.659   0.033  0.00  0.00    +0.193 C 
ATOM      2  O   LIG    1        0.903   6.123  -0.560  0.00  0.00    -0.287 OA
ENDROOT
BRANCH   1  13
ATOM      3  C   LIG    1       -6.143   7.512   0.686  0.00  0.00    +0.016 C 
ATOM      4  C   LIG    1       -5.205   8.213  -0.299  0.00  0.00    -0.010 C 
ATOM      5  C   LIG    1       -5.744   8.038  -1.720  0.00  0.00    +0.016 C 
ATOM      6  C   LIG    1       -5.144   9.701   0.037  0.00  0.00    +0.012 C 
ATOM      7  C   LIG    1       -4.044  10.345  -0.816  0.00  0.00    +0.012 C 
ATOM      8  C   LIG    1       -2.691   9.848  -0.311  0.00  0.00    -0.010 C 
ATOM      9  C   LIG    1       -1.594  10.303  -1.276  0.00  0.00    +0.016 C 
ATOM     10  C   LIG    1       -2.421  10.439   1.074  0.00  0.00    +0.016 C 
ATOM     11  C   LIG    1       -2.679   8.344  -0.220  0.00  0.00    -0.037 A 
ATOM     12  C   LIG    1       -1.447   7.715  -0.141  0.00  0.00    +0.016 A 
ATOM     13  C   LIG    1       -1.367   6.326  -0.049  0.00  0.00    +0.023 A 
ATOM     14  C   LIG    1       -2.542   5.571  -0.040  0.00  0.00    +0.012 A 
ATOM     15  C   LIG    1       -3.760   6.207  -0.113  0.00  0.00    +0.005 A 
ATOM     16  C   LIG    1       -3.835   7.592  -0.208  0.00  0.00    -0.038 A 
ENDBRANCH   1  13
BRANCH   1  17
ATOM     17  C   LIG    1        0.104   4.428   0.835  0.00  0.00    +0.023 A 
ATOM     18  C   LIG    1       -0.957   3.985   1.646  0.00  0.00    +0.012 A 
ATOM     19  C   LIG    1       -0.835   2.861   2.397  0.00  0.00    +0.009 A 
ATOM     20  C   LIG    1        0.358   2.114   2.360  0.00  0.00    -0.017 A 
ATOM     21  C   LIG    1        0.500   0.946   3.124  0.00  0.00    +0.023 A 
ATOM     22  C   LIG    1        1.689   0.237   3.072  0.00  0.00    +0.059 A 
ATOM     23  C   LIG    1        2.750   0.679   2.261  0.00  0.00    +0.015 A 
ATOM     24  C   LIG    1        2.631   1.807   1.515  0.00  0.00    +0.009 A 
ATOM     25  C   LIG    1        1.435   2.550   1.546  0.00  0.00    -0.017 A 
ATOM     26  C   LIG    1        1.293   3.718   0.782  0.00  0.00    +0.020 A 
BRANCH  22  27
ATOM     27  C   LIG    1        1.844  -0.995   3.873  0.00  0.00    +0.337 C 
ATOM     28  O   LIG    1        0.931  -1.381   4.575  0.00  0.00    -0.245 OA
BRANCH  27  29
ATOM     29  O   LIG    1        2.998  -1.688   3.826  0.00  0.00    -0.477 OA
ATOM     30  H   LIG    1        3.702  -1.390   3.285  0.00  0.00    +0.295 HD
ENDBRANCH  27  29
ENDBRANCH  22  27
ENDBRANCH   1  17
TORSDOF 4
