REMARK  Name = ZINC03871640
REMARK                            x       y       z     vdW  Elec       q    Type
REMARK                         _______ _______ _______ _____ _____    ______ ____
ROOT
ATOM      1  C   LIG    1        3.661  -2.174   0.539  0.00  0.00    +0.105 A 
ATOM      2  C   LIG    1        2.434  -2.855   0.502  0.00  0.00    +0.132 A 
ATOM      3  C   LIG    1        2.409  -4.236   0.583  0.00  0.00    +0.061 A 
ATOM      4  C   LIG    1        3.600  -4.952   0.700  0.00  0.00    +0.066 A 
ATOM      5  C   LIG    1        4.822  -4.280   0.737  0.00  0.00    +0.061 A 
ATOM      6  C   LIG    1        4.857  -2.899   0.650  0.00  0.00    +0.132 A 
ENDROOT
BRANCH   1   7
ATOM      7  C   LIG    1        3.693  -0.704   0.454  0.00  0.00    +0.204 C 
ATOM      8  O   LIG    1        4.746  -0.110   0.585  0.00  0.00    -0.286 OA
BRANCH   7  12
ATOM      9  C   LIG    1        0.096   1.467  -0.251  0.00  0.00    +0.004 A 
ATOM     10  C   LIG    1        0.815   0.970  -1.325  0.00  0.00    +0.016 A 
ATOM     11  C   LIG    1        1.991   0.259  -1.109  0.00  0.00    +0.073 A 
ATOM     12  C   LIG    1        2.447   0.049   0.209  0.00  0.00    +0.078 A 
ATOM     13  C   LIG    1        1.709   0.558   1.282  0.00  0.00    +0.128 A 
ATOM     14  C   LIG    1        0.536   1.265   1.041  0.00  0.00    +0.046 A 
BRANCH  11  15
ATOM     15  C   LIG    1        2.758  -0.272  -2.253  0.00  0.00    +0.338 C 
ATOM     16  O   LIG    1        2.310  -0.175  -3.387  0.00  0.00    -0.245 OA
BRANCH  15  17
ATOM     17  O   LIG    1        3.841  -0.809  -2.067  0.00  0.00    -0.477 OA
ATOM     18  H   LIG    1        4.184  -0.883  -1.199  0.00  0.00    +0.295 HD
ENDBRANCH  15  17
ENDBRANCH  11  15
BRANCH  13  19
ATOM     19  O   LIG    1        2.136   0.362   2.554  0.00  0.00    -0.506 OA
ATOM     20  H   LIG    1        2.659   1.094   2.910  0.00  0.00    +0.292 HD
ENDBRANCH  13  19
ENDBRANCH   7  12
ENDBRANCH   1   7
BRANCH   2  21
ATOM     21  O   LIG    1        1.275  -2.159   0.389  0.00  0.00    -0.506 OA
ATOM     22  H   LIG    1        0.952  -2.078  -0.519  0.00  0.00    +0.292 HD
ENDBRANCH   2  21
BRANCH   4  23
ATOM     23  C   LIG    1        3.568  -6.429   0.786  0.00  0.00    +0.340 C 
ATOM     24  O   LIG    1        2.506  -7.016   0.754  0.00  0.00    -0.245 OA
BRANCH  23  25
ATOM     25  O   LIG    1        4.717  -7.122   0.899  0.00  0.00    -0.456 OA
BRANCH  25  26
ATOM     26  C   LIG    1        4.612  -8.545   0.977  0.00  0.00    +0.195 C 
ATOM     27  C   LIG    1        4.464  -8.963   2.462  0.00  0.00    +0.044 C 
ATOM     28  C   LIG    1        3.965 -10.382   2.519  0.00  0.00    -0.015 C 
ATOM     29  C   LIG    1        5.094 -11.428   2.583  0.00  0.00    -0.082 C 
ATOM     30  N   LIG    1        6.218 -11.140   1.667  0.00  0.00    +0.380 N 
ATOM     31  H   LIG    1        6.763 -11.980   1.542  0.00  0.00    -0.086 HD
ATOM     32  H   LIG    1        6.803 -10.428   2.078  0.00  0.00    -0.086 HD
ATOM     33  C   LIG    1        5.759 -10.683   0.377  0.00  0.00    -0.056 C 
ATOM     34  C   LIG    1        5.798  -9.146   0.381  0.00  0.00    +0.097 C 
BRANCH  34  35
ATOM     35  N   LIG    1        5.921  -8.676  -1.001  0.00  0.00    -0.307 N 
ATOM     36  H   LIG    1        5.133  -8.380  -1.484  0.00  0.00    +0.149 HD
ATOM     37  C   LIG    1        7.128  -8.654  -1.601  0.00  0.00    +0.244 C 
ATOM     38  O   LIG    1        8.114  -9.024  -0.995  0.00  0.00    -0.270 OA
BRANCH  37  39
ATOM     39  C   LIG    1        7.251  -8.180  -2.993  0.00  0.00    +0.037 A 
ATOM     40  C   LIG    1        6.119  -7.748  -3.689  0.00  0.00    +0.016 A 
ATOM     41  C   LIG    1        6.239  -7.306  -4.988  0.00  0.00    +0.046 A 
ATOM     42  C   LIG    1        7.483  -7.290  -5.606  0.00  0.00    +0.117 A 
ATOM     43  C   LIG    1        8.612  -7.718  -4.917  0.00  0.00    +0.046 A 
ATOM     44  C   LIG    1        8.501  -8.156  -3.616  0.00  0.00    +0.016 A 
BRANCH  42  45
ATOM     45  O   LIG    1        7.597  -6.854  -6.887  0.00  0.00    -0.507 OA
ATOM     46  H   LIG    1        7.763  -5.905  -6.966  0.00  0.00    +0.292 HD
ENDBRANCH  42  45
ENDBRANCH  37  39
ENDBRANCH  34  35
ENDBRANCH  25  26
ENDBRANCH  23  25
ENDBRANCH   4  23
BRANCH   6  47
ATOM     47  O   LIG    1        6.046  -2.246   0.680  0.00  0.00    -0.506 OA
ATOM     48  H   LIG    1        6.340  -2.005   1.569  0.00  0.00    +0.292 HD
ENDBRANCH   6  47
TORSDOF 13
