REMARK  Name = ZINC03800030
REMARK                            x       y       z     vdW  Elec       q    Type
REMARK                         _______ _______ _______ _____ _____    ______ ____
ROOT
ATOM      1  C   LIG    1        4.086   1.343   0.489  0.00  0.00    +0.203 A 
ATOM      2  N   LIG    1        5.369   1.165   0.371  0.00  0.00    -0.231 NA
ATOM      3  C   LIG    1        5.646   0.675  -0.863  0.00  0.00    +0.147 A 
ATOM      4  C   LIG    1        6.823   0.306  -1.536  0.00  0.00    +0.149 A 
ATOM      5  N   LIG    1        6.727  -0.150  -2.780  0.00  0.00    -0.198 NA
ATOM      6  C   LIG    1        5.549  -0.259  -3.382  0.00  0.00    +0.219 A 
ATOM      7  N   LIG    1        4.417   0.076  -2.784  0.00  0.00    -0.195 NA
ATOM      8  C   LIG    1        4.422   0.543  -1.539  0.00  0.00    +0.169 A 
ATOM      9  N   LIG    1        3.457   0.968  -0.662  0.00  0.00    -0.285 N 
ENDROOT
BRANCH   9  10
ATOM     10  C1* LIG    1        2.015   1.015  -0.917  0.00  0.00    +0.253 C 
ATOM     11  C2* LIG    1        1.371  -0.357  -0.622  0.00  0.00    +0.195 C 
ATOM     12  C3* LIG    1        0.002  -0.004   0.002  0.00  0.00    +0.178 C 
ATOM     13  C4* LIG    1       -0.019   1.541   0.011  0.00  0.00    +0.177 C 
ATOM     14  O4* LIG    1        1.372   1.929  -0.001  0.00  0.00    -0.346 OA
BRANCH  11  15
ATOM     15  O2* LIG    1        1.193  -1.097  -1.832  0.00  0.00    -0.385 OA
ATOM     16  H2* LIG    1        0.738  -1.942  -1.713  0.00  0.00    +0.210 HD
ENDBRANCH  11  15
BRANCH  12  17
ATOM     17  O3* LIG    1       -1.064  -0.515  -0.800  0.00  0.00    -0.386 OA
ATOM     18  H3* LIG    1       -1.945  -0.271  -0.485  0.00  0.00    +0.210 HD
ENDBRANCH  12  17
BRANCH  13  19
ATOM     19  C5* LIG    1       -0.706   2.057   1.276  0.00  0.00    +0.190 C 
BRANCH  19  20
ATOM     20  O5* LIG    1       -0.819   3.480   1.210  0.00  0.00    -0.392 OA
ATOM     21  H5* LIG    1       -1.246   3.877   1.982  0.00  0.00    +0.210 HD
ENDBRANCH  19  20
ENDBRANCH  13  19
ENDBRANCH   9  10
BRANCH   4  22
ATOM     22  N   LIG    1        8.056   0.415  -0.917  0.00  0.00    -0.341 N 
ATOM     23  H   LIG    1        8.861   0.157  -1.392  0.00  0.00    +0.144 HD
ATOM     24  H   LIG    1        8.218   1.369  -0.665  0.00  0.00    +0.144 HD
ENDBRANCH   4  22
BRANCH   6  25
ATOM     25  N   LIG    1        5.503  -0.741  -4.680  0.00  0.00    -0.313 N 
ATOM     26  H   LIG    1        4.651  -0.827  -5.135  0.00  0.00    +0.149 HD
BRANCH  25  27
ATOM     27  C   LIG    1        6.741  -1.120  -5.365  0.00  0.00    +0.108 C 
BRANCH  27  28
ATOM     28  C   LIG    1        6.413  -1.615  -6.774  0.00  0.00    +0.049 C 
BRANCH  28  29
ATOM     29  C   LIG    1        7.686  -2.005  -7.479  0.00  0.00    -0.072 C 
ATOM     30  C   LIG    1        8.044  -3.249  -7.442  0.00  0.00    -0.028 C 
ATOM     31  C   LIG    1        9.287  -3.786  -8.090  0.00  0.00    +0.027 C 
ATOM     32  C   LIG    1        9.823  -2.784  -9.115  0.00  0.00    +0.004 C 
ATOM     33  C   LIG    1        9.892  -1.402  -8.453  0.00  0.00    +0.005 C 
ATOM     34  C   LIG    1        8.464  -0.927  -8.175  0.00  0.00    +0.030 C 
ENDBRANCH  28  29
ENDBRANCH  27  28
ENDBRANCH  25  27
ENDBRANCH   6  25
TORSDOF 10
