REMARK  Name = ZINC03824868
REMARK                            x       y       z     vdW  Elec       q    Type
REMARK                         _______ _______ _______ _____ _____    ______ ____
ROOT
ATOM      1  C   LIG    1       -0.018   1.503   0.010  0.00  0.00    +0.044 C 
ATOM      2  C   LIG    1        0.002  -0.004   0.002  0.00  0.00    -0.046 A 
ATOM      3  C   LIG    1        0.006  -0.685  -1.206  0.00  0.00    +0.016 A 
ATOM      4  C   LIG    1        0.025  -2.074  -1.219  0.00  0.00    +0.037 A 
ATOM      5  C   LIG    1        0.039  -2.785  -0.004  0.00  0.00    +0.075 A 
ATOM      6  C   LIG    1        0.059  -4.261  -0.019  0.00  0.00    +0.202 C 
ATOM      7  C   LIG    1        0.369  -4.965  -1.276  0.00  0.00    +0.075 A 
ATOM      8  C   LIG    1        0.356  -4.258  -2.495  0.00  0.00    +0.040 A 
ATOM      9  C   LIG    1        0.649  -4.918  -3.679  0.00  0.00    +0.058 A 
ATOM     10  C   LIG    1        0.954  -6.278  -3.659  0.00  0.00    +0.121 A 
ATOM     11  C   LIG    1        0.967  -6.977  -2.463  0.00  0.00    +0.091 A 
ATOM     12  C   LIG    1        0.676  -6.330  -1.268  0.00  0.00    +0.132 A 
ATOM     13  O   LIG    1       -0.180  -4.889   0.995  0.00  0.00    -0.286 OA
ATOM     14  C   LIG    1        0.036  -2.087   1.205  0.00  0.00    +0.129 A 
ATOM     15  C   LIG    1        0.030  -2.814  -2.499  0.00  0.00    +0.195 C 
ATOM     16  O   LIG    1       -0.229  -2.245  -3.541  0.00  0.00    -0.287 OA
ATOM     17  C   LIG    1        0.023  -0.694   1.196  0.00  0.00    +0.049 A 
ENDROOT
BRANCH  10  18
ATOM     18  O   LIG    1        1.241  -6.922  -4.819  0.00  0.00    -0.507 OA
ATOM     19  H   LIG    1        2.179  -6.915  -5.052  0.00  0.00    +0.292 HD
ENDBRANCH  10  18
BRANCH  12  20
ATOM     20  O   LIG    1        0.691  -7.018  -0.100  0.00  0.00    -0.506 OA
ATOM     21  H   LIG    1       -0.161  -7.411   0.135  0.00  0.00    +0.292 HD
ENDBRANCH  12  20
BRANCH  14  22
ATOM     22  O   LIG    1        0.051  -2.761   2.382  0.00  0.00    -0.506 OA
ATOM     23  H   LIG    1        0.938  -2.945   2.719  0.00  0.00    +0.292 HD
ENDBRANCH  14  22
TORSDOF 3
