REMARK  Name = ZINC03780965
REMARK                            x       y       z     vdW  Elec       q    Type
REMARK                         _______ _______ _______ _____ _____    ______ ____
ROOT
ATOM      1  C   LIG    1       -0.567  -4.846  -6.257  0.00  0.00    -0.006 A 
ATOM      2  C   LIG    1       -0.695  -3.924  -7.384  0.00  0.00    +0.004 A 
ATOM      3  C   LIG    1       -0.397  -2.570  -7.566  0.00  0.00    +0.010 A 
ATOM      4  C   LIG    1       -0.639  -1.979  -8.774  0.00  0.00    +0.001 A 
ATOM      5  C   LIG    1       -1.180  -2.712  -9.822  0.00  0.00    +0.002 A 
ATOM      6  C   LIG    1       -1.481  -4.047  -9.665  0.00  0.00    +0.026 A 
ATOM      7  C   LIG    1       -1.243  -4.671  -8.445  0.00  0.00    +0.047 A 
ATOM      8  N   LIG    1       -1.433  -5.957  -7.989  0.00  0.00    -0.354 N 
ATOM      9  H   LIG    1       -1.799  -6.686  -8.513  0.00  0.00    +0.166 HD
ATOM     10  C   LIG    1       -1.021  -6.052  -6.680  0.00  0.00    +0.051 A 
ENDROOT
BRANCH  10  11
ATOM     11  C   LIG    1       -1.067  -7.281  -5.859  0.00  0.00    -0.001 A 
ATOM     12  C   LIG    1        0.026  -7.636  -5.066  0.00  0.00    +0.013 A 
ATOM     13  C   LIG    1       -0.023  -8.783  -4.302  0.00  0.00    +0.039 A 
ATOM     14  C   LIG    1       -1.154  -9.584  -4.321  0.00  0.00    +0.123 A 
ATOM     15  F   LIG    1       -1.197 -10.706  -3.571  0.00  0.00    -0.205 F 
ATOM     16  C   LIG    1       -2.242  -9.236  -5.106  0.00  0.00    +0.039 A 
ATOM     17  C   LIG    1       -2.206  -8.088  -5.869  0.00  0.00    +0.013 A 
ENDBRANCH  10  11
BRANCH   1  18
ATOM     18  C   LIG    1       -0.028  -4.520  -4.888  0.00  0.00    +0.133 C 
BRANCH  18  20
ATOM     19  N   LIG    1        2.162  -4.523  -3.738  0.00  0.00    -0.301 N 
ATOM     20  C   LIG    1        1.461  -4.751  -4.866  0.00  0.00    +0.220 C 
ATOM     21  O   LIG    1        2.028  -5.142  -5.864  0.00  0.00    -0.275 OA
BRANCH  19  22
ATOM     22  C   LIG    1        1.476  -4.051  -2.532  0.00  0.00    +0.108 C 
BRANCH  22  23
ATOM     23  C   LIG    1        1.455  -2.521  -2.524  0.00  0.00    +0.019 C 
BRANCH  23  24
ATOM     24  C   LIG    1        0.739  -2.027  -1.265  0.00  0.00    +0.002 C 
BRANCH  24  25
ATOM     25  C   LIG    1        0.718  -0.497  -1.257  0.00  0.00    -0.000 C 
BRANCH  25  27
ATOM     26  C   LIG    1       -0.019   1.526   0.010  0.00  0.00    +0.004 C 
ATOM     27  C   LIG    1        0.002  -0.004   0.002  0.00  0.00    -0.003 C 
ENDBRANCH  25  27
ENDBRANCH  24  25
ENDBRANCH  23  24
ENDBRANCH  22  23
ENDBRANCH  19  22
BRANCH  19  28
ATOM     28  C   LIG    1        3.609  -4.748  -3.716  0.00  0.00    +0.108 C 
BRANCH  28  29
ATOM     29  C   LIG    1        3.895  -6.191  -3.298  0.00  0.00    +0.019 C 
BRANCH  29  30
ATOM     30  C   LIG    1        5.407  -6.426  -3.276  0.00  0.00    +0.002 C 
BRANCH  30  31
ATOM     31  C   LIG    1        5.693  -7.870  -2.857  0.00  0.00    -0.000 C 
BRANCH  31  32
ATOM     32  C   LIG    1        7.204  -8.104  -2.835  0.00  0.00    -0.003 C 
ATOM     33  C   LIG    1        7.490  -9.548  -2.416  0.00  0.00    +0.004 C 
ENDBRANCH  31  32
ENDBRANCH  30  31
ENDBRANCH  29  30
ENDBRANCH  28  29
ENDBRANCH  19  28
ENDBRANCH  18  20
ENDBRANCH   1  18
TORSDOF 13
