REMARK  Name = ZINC03842753
REMARK                            x       y       z     vdW  Elec       q    Type
REMARK                         _______ _______ _______ _____ _____    ______ ____
ROOT
ATOM      1  C   LIG    1       -0.016   1.357   0.009  0.00  0.00    +0.111 A 
ATOM      2  C   LIG    1        1.157   2.036   0.002  0.00  0.00    +0.132 A 
ATOM      3  C   LIG    1        2.364   1.312  -0.013  0.00  0.00    +0.230 A 
ATOM      4  N   LIG    1        2.334  -0.012  -0.020  0.00  0.00    -0.157 NA
ATOM      5  C   LIG    1        1.173  -0.667  -0.013  0.00  0.00    +0.354 A 
ATOM      6  O   LIG    1        1.172  -1.887  -0.019  0.00  0.00    -0.244 OA
ATOM      7  N   LIG    1        0.002  -0.004   0.002  0.00  0.00    -0.272 N 
ENDROOT
BRANCH   7   8
ATOM      8  C1* LIG    1       -1.258  -0.750   0.010  0.00  0.00    +0.226 C 
ATOM      9  C2* LIG    1       -1.404  -1.575  -1.288  0.00  0.00    +0.088 C 
ATOM     10  C3* LIG    1       -2.076  -2.887  -0.827  0.00  0.00    +0.150 C 
ATOM     11  C4* LIG    1       -2.258  -2.700   0.696  0.00  0.00    +0.175 C 
ATOM     12  O4* LIG    1       -1.257  -1.729   1.072  0.00  0.00    -0.348 OA
BRANCH  10  13
ATOM     13  O3* LIG    1       -3.343  -3.053  -1.469  0.00  0.00    -0.389 OA
ATOM     14  H3* LIG    1       -3.290  -3.115  -2.432  0.00  0.00    +0.210 HD
ENDBRANCH  10  13
BRANCH  11  15
ATOM     15  C5* LIG    1       -2.022  -4.024   1.426  0.00  0.00    +0.190 C 
BRANCH  15  16
ATOM     16  O5* LIG    1       -2.308  -3.858   2.816  0.00  0.00    -0.392 OA
ATOM     17  H5* LIG    1       -2.180  -4.659   3.342  0.00  0.00    +0.210 HD
ENDBRANCH  15  16
ENDBRANCH  11  15
ENDBRANCH   7   8
BRANCH   2  18
ATOM     18  C   LIG    1        1.169   3.543   0.009  0.00  0.00    +0.424 C 
ATOM     19  F   LIG    1       -0.028   4.022  -0.534  0.00  0.00    -0.166 F 
ATOM     20  F   LIG    1        2.246   4.004  -0.755  0.00  0.00    -0.166 F 
ATOM     21  F   LIG    1        1.300   4.002   1.325  0.00  0.00    -0.166 F 
ENDBRANCH   2  18
BRANCH   3  22
ATOM     22  O   LIG    1        3.547   1.964  -0.021  0.00  0.00    -0.492 OA
ATOM     23  H   LIG    1        3.566   2.901  -0.016  0.00  0.00    +0.294 HD
ENDBRANCH   3  22
TORSDOF 6
