REMARK  Name = ZINC03827164
REMARK                            x       y       z     vdW  Elec       q    Type
REMARK                         _______ _______ _______ _____ _____    ______ ____
ROOT
ATOM      1  N   LIG    1       -0.701   1.560   1.216  0.00  0.00    -0.333 N 
ATOM      2  C   LIG    1       -0.013   1.086   0.008  0.00  0.00    +0.086 C 
ATOM      3  C   LIG    1       -0.754   1.593  -1.231  0.00  0.00    -0.060 C 
ATOM      4  N   LIG    1       -0.780   3.071  -1.199  0.00  0.00    +0.382 N 
ATOM      5  H   LIG    1        0.185   3.421  -1.171  0.00  0.00    -0.082 HD
ATOM      6  C   LIG    1       -1.495   3.536   0.008  0.00  0.00    -0.060 C 
ATOM      7  C   LIG    1       -0.754   3.029   1.247  0.00  0.00    +0.086 C 
ENDROOT
BRANCH   1  12
ATOM      8  C   LIG    1        1.763  -0.486   5.896  0.00  0.00    +0.044 C 
ATOM      9  C   LIG    1        1.109   0.058   4.652  0.00  0.00    -0.047 A 
ATOM     10  C   LIG    1        1.610  -0.273   3.407  0.00  0.00    +0.005 A 
ATOM     11  C   LIG    1        1.010   0.219   2.265  0.00  0.00    +0.023 A 
ATOM     12  C   LIG    1       -0.094   1.057   2.369  0.00  0.00    +0.030 A 
ATOM     13  C   LIG    1       -0.595   1.388   3.621  0.00  0.00    +0.026 A 
ATOM     14  C   LIG    1        0.008   0.888   4.759  0.00  0.00    -0.046 A 
ATOM     15  C   LIG    1       -0.535   1.246   6.118  0.00  0.00    +0.044 C 
ENDBRANCH   1  12
BRANCH   4  16
ATOM     16  C   LIG    1       -1.445   3.591  -2.413  0.00  0.00    -0.077 C 
BRANCH  16  17
ATOM     17  C   LIG    1       -1.260   5.109  -2.465  0.00  0.00    +0.008 C 
BRANCH  17  18
ATOM     18  C   LIG    1       -1.925   5.660  -3.728  0.00  0.00    +0.102 C 
ATOM     19  C   LIG    1       -1.822   7.165  -3.753  0.00  0.00    -0.015 A 
ATOM     20  C   LIG    1       -2.280   8.156  -2.916  0.00  0.00    +0.006 A 
ATOM     21  C   LIG    1       -2.022   9.484  -3.210  0.00  0.00    +0.000 A 
ATOM     22  C   LIG    1       -1.304   9.819  -4.344  0.00  0.00    +0.001 A 
ATOM     23  C   LIG    1       -0.840   8.833  -5.190  0.00  0.00    +0.013 A 
ATOM     24  C   LIG    1       -1.096   7.492  -4.901  0.00  0.00    +0.042 A 
ATOM     25  C   LIG    1       -0.741   6.240  -5.596  0.00  0.00    +0.245 C 
ATOM     26  O   LIG    1       -0.107   6.175  -6.631  0.00  0.00    -0.270 OA
ATOM     27  N   LIG    1       -1.219   5.180  -4.921  0.00  0.00    -0.305 N 
ATOM     28  H   LIG    1       -1.114   4.251  -5.179  0.00  0.00    +0.150 HD
ENDBRANCH  17  18
ENDBRANCH  16  17
ENDBRANCH   4  16
TORSDOF 4
