REMARK  Name = ZINC03822128
REMARK                            x       y       z     vdW  Elec       q    Type
REMARK                         _______ _______ _______ _____ _____    ______ ____
ROOT
ATOM      1  C   LIG    1       -0.018   1.503   0.010  0.00  0.00    +0.044 C 
ATOM      2  C   LIG    1        0.002  -0.004   0.002  0.00  0.00    -0.047 A 
ATOM      3  C   LIG    1        0.006  -0.686  -1.199  0.00  0.00    +0.003 A 
ATOM      4  C   LIG    1        0.025  -2.068  -1.208  0.00  0.00    +0.001 A 
ATOM      5  C   LIG    1        0.040  -2.765  -0.015  0.00  0.00    +0.004 A 
ATOM      6  C   LIG    1        0.036  -2.083   1.190  0.00  0.00    -0.035 A 
ATOM      7  C   LIG    1        0.049  -2.603   2.611  0.00  0.00    +0.068 C 
ATOM      8  C   LIG    1       -0.386  -1.412   3.484  0.00  0.00    +0.019 C 
ATOM      9  C   LIG    1        0.029  -0.198   2.626  0.00  0.00    +0.036 C 
ATOM     10  C   LIG    1        0.023  -0.701   1.198  0.00  0.00    -0.041 A 
ENDROOT
BRANCH   7  11
ATOM     11  C   LIG    1        1.441  -3.034   2.997  0.00  0.00    +0.041 A 
ATOM     12  C   LIG    1        2.418  -2.230   3.458  0.00  0.00    +0.105 A 
ATOM     13  N   LIG    1        3.510  -3.024   3.684  0.00  0.00    -0.352 N 
ATOM     14  C   LIG    1        3.162  -4.286   3.353  0.00  0.00    +0.171 A 
ATOM     15  H   LIG    1        4.373  -2.735   4.019  0.00  0.00    +0.166 HD
ATOM     16  N   LIG    1        1.921  -4.285   2.948  0.00  0.00    -0.349 N 
ATOM     17  H   LIG    1        1.425  -5.066   2.655  0.00  0.00    +0.166 HD
ENDBRANCH   7  11
TORSDOF 1
