REMARK  Name = ZINC03861497
REMARK                            x       y       z     vdW  Elec       q    Type
REMARK                         _______ _______ _______ _____ _____    ______ ____
ROOT
ATOM      1  C   LIG    1       -0.019   1.526   0.010  0.00  0.00    -0.018 C 
ATOM      2  C   LIG    1        1.420   2.051  -0.001  0.00  0.00    +0.011 C 
ATOM      3  C   LIG    1        2.172   1.474   1.202  0.00  0.00    +0.081 C 
ATOM      4  C   LIG    1        2.112  -0.054   1.150  0.00  0.00    -0.068 C 
ATOM      5  N   LIG    1        0.712  -0.494   1.190  0.00  0.00    +0.380 N 
ATOM      6  H   LIG    1        0.270  -0.128   2.019  0.00  0.00    -0.086 HD
ATOM      7  H   LIG    1        0.678  -1.502   1.209  0.00  0.00    -0.086 HD
ATOM      8  C   LIG    1        0.002  -0.004   0.002  0.00  0.00    -0.083 C 
ENDROOT
BRANCH   3   9
ATOM      9  C   LIG    1        3.610   1.923   1.159  0.00  0.00    +0.306 C 
ATOM     10  O   LIG    1        4.179   2.246   2.188  0.00  0.00    -0.251 OA
BRANCH   9  11
ATOM     11  O   LIG    1        4.205   1.964   0.095  0.00  0.00    -0.480 OA
ATOM     12  H   LIG    1        3.767   1.716  -0.696  0.00  0.00    +0.295 HD
ENDBRANCH   9  11
ENDBRANCH   3   9
TORSDOF 2
