REMARK  Name = ZINC03815901
REMARK                            x       y       z     vdW  Elec       q    Type
REMARK                         _______ _______ _______ _____ _____    ______ ____
ROOT
ATOM      1  C   LIG    1       -1.311  -0.687  -0.030  0.00  0.00    +0.139 A 
ATOM      2  N   LIG    1       -1.434  -2.050   0.021  0.00  0.00    -0.338 N 
ATOM      3  C   LIG    1       -2.781  -2.341  -0.001  0.00  0.00    +0.067 A 
ATOM      4  C   LIG    1       -3.509  -3.526   0.027  0.00  0.00    +0.028 A 
ATOM      5  C   LIG    1       -4.873  -3.494  -0.008  0.00  0.00    +0.015 A 
ATOM      6  C   LIG    1       -5.554  -2.271  -0.072  0.00  0.00    +0.039 A 
ATOM      7  C   LIG    1       -4.844  -1.075  -0.102  0.00  0.00    +0.043 A 
ATOM      8  C   LIG    1       -3.449  -1.103  -0.067  0.00  0.00    +0.090 A 
ATOM      9  H   LIG    1       -0.708  -2.692   0.064  0.00  0.00    +0.167 HD
ATOM     10  N   LIG    1       -2.499  -0.136  -0.075  0.00  0.00    -0.228 NA
ENDROOT
BRANCH   1  16
ATOM     11  C   LIG    1       -0.027   1.447  -0.076  0.00  0.00    +0.015 A 
ATOM     12  C   LIG    1        1.168   2.132  -0.074  0.00  0.00    +0.047 A 
ATOM     13  C   LIG    1        2.370   1.435  -0.023  0.00  0.00    +0.128 A 
ATOM     14  C   LIG    1        2.370   0.047   0.026  0.00  0.00    +0.047 A 
ATOM     15  C   LIG    1        1.179  -0.645   0.023  0.00  0.00    +0.015 A 
ATOM     16  C   LIG    1       -0.030   0.051  -0.028  0.00  0.00    +0.018 A 
BRANCH  13  17
ATOM     17  O   LIG    1        3.546   2.114  -0.021  0.00  0.00    -0.456 OA
BRANCH  17  18
ATOM     18  C   LIG    1        3.844   2.871   1.068  0.00  0.00    +0.129 A 
ATOM     19  C   LIG    1        3.025   2.831   2.187  0.00  0.00    +0.048 A 
ATOM     20  C   LIG    1        3.330   3.601   3.292  0.00  0.00    +0.023 A 
ATOM     21  C   LIG    1        4.452   4.412   3.284  0.00  0.00    +0.041 A 
ATOM     22 CL   LIG    1        4.833   5.379   4.675  0.00  0.00    -0.084 Cl
ATOM     23  C   LIG    1        5.270   4.453   2.169  0.00  0.00    +0.023 A 
ATOM     24  C   LIG    1        4.971   3.680   1.063  0.00  0.00    +0.048 A 
ENDBRANCH  17  18
ENDBRANCH  13  17
ENDBRANCH   1  16
BRANCH   6  25
ATOM     25  C   LIG    1       -7.030  -2.252  -0.110  0.00  0.00    +0.242 C 
ATOM     26  N   LIG    1       -7.720  -3.409  -0.081  0.00  0.00    -0.325 N 
ATOM     27  H   LIG    1       -8.690  -3.397  -0.106  0.00  0.00    +0.145 HD
ATOM     28  H   LIG    1       -7.247  -4.255  -0.036  0.00  0.00    +0.145 HD
ATOM     29  O   LIG    1       -7.623  -1.192  -0.166  0.00  0.00    -0.270 OA
ENDBRANCH   6  25
TORSDOF 4
