REMARK  Name = ZINC03798525
REMARK                            x       y       z     vdW  Elec       q    Type
REMARK                         _______ _______ _______ _____ _____    ______ ____
ROOT
ATOM      1  C   LIG    1        1.116   4.415   0.518  0.00  0.00    -0.004 C 
ATOM      2  C   LIG    1        1.418   3.386  -0.573  0.00  0.00    +0.016 C 
ENDROOT
BRANCH   2   3
ATOM      3  C   LIG    1        2.795   3.635  -1.132  0.00  0.00    +0.222 C 
ATOM      4  N   LIG    1        3.083   4.818  -1.712  0.00  0.00    -0.169 N 
ATOM      5  C   LIG    1        4.418   5.122  -2.274  0.00  0.00    +0.272 C 
ATOM      6  S   LIG    1        4.120   6.830  -2.880  0.00  0.00    -0.072 S 
ATOM      7  C   LIG    1        2.414   6.972  -2.372  0.00  0.00    +0.100 C 
ATOM      8  N   LIG    1        2.157   5.832  -1.820  0.00  0.00    -0.173 NA
ATOM      9  O   LIG    1        3.644   2.772  -1.060  0.00  0.00    -0.276 OA
BRANCH   7  10
ATOM     10  C   LIG    1        1.489   8.149  -2.546  0.00  0.00    +0.012 C 
ATOM     11  C   LIG    1        1.337   8.463  -4.035  0.00  0.00    +0.018 C 
ATOM     12  C   LIG    1        2.071   9.367  -1.825  0.00  0.00    +0.018 C 
ATOM     13  C   LIG    1        0.119   7.812  -1.953  0.00  0.00    +0.018 C 
ENDBRANCH   7  10
BRANCH   5  14
ATOM     14  C   LIG    1        5.481   5.096  -1.206  0.00  0.00    +0.338 C 
ATOM     15  O   LIG    1        6.302   4.209  -1.192  0.00  0.00    -0.248 OA
BRANCH  14  16
ATOM     16  O   LIG    1        5.516   6.057  -0.269  0.00  0.00    -0.479 OA
ATOM     17  H   LIG    1        4.879   6.744  -0.279  0.00  0.00    +0.295 HD
ENDBRANCH  14  16
ENDBRANCH   5  14
ENDBRANCH   2   3
BRANCH   2  18
ATOM     18  N   LIG    1        1.368   2.029   0.004  0.00  0.00    +0.395 N 
ATOM     19  H1  LIG    1        1.954   1.400  -0.559  0.00  0.00    -0.084 HD
ATOM     20  H2  LIG    1        1.723   2.057   0.967  0.00  0.00    -0.084 HD
BRANCH  18  21
ATOM     21  CA  LIG    1       -0.019   1.526   0.010  0.00  0.00    +0.040 C 
BRANCH  21  22
ATOM     22  C   LIG    1       -0.724   2.012   1.250  0.00  0.00    +0.291 C 
ATOM     23  O   LIG    1       -0.139   2.710   2.044  0.00  0.00    -0.253 OA
BRANCH  22  24
ATOM     24  OXT LIG    1       -2.002   1.669   1.473  0.00  0.00    -0.482 OA
ATOM     25  HXT LIG    1       -2.456   1.127   0.858  0.00  0.00    +0.295 HD
ENDBRANCH  22  24
ENDBRANCH  21  22
BRANCH  21  26
ATOM     26  C   LIG    1        0.002  -0.004   0.002  0.00  0.00    -0.000 C 
BRANCH  26  27
ATOM     27  C   LIG    1        0.606  -0.499  -1.314  0.00  0.00    +0.034 C 
BRANCH  27  28
ATOM     28  C   LIG    1        0.626  -2.006  -1.322  0.00  0.00    -0.047 A 
ATOM     29  C   LIG    1        1.728  -2.684  -0.836  0.00  0.00    +0.003 A 
ATOM     30  C   LIG    1        1.745  -4.067  -0.839  0.00  0.00    +0.000 A 
ATOM     31  C   LIG    1        0.664  -4.770  -1.338  0.00  0.00    +0.000 A 
ATOM     32  C   LIG    1       -0.435  -4.091  -1.829  0.00  0.00    +0.000 A 
ATOM     33  C   LIG    1       -0.454  -2.709  -1.821  0.00  0.00    +0.003 A 
ENDBRANCH  27  28
ENDBRANCH  26  27
ENDBRANCH  21  26
ENDBRANCH  18  21
ENDBRANCH   2  18
TORSDOF 11
