REMARK  Name = ZINC03778874
REMARK                            x       y       z     vdW  Elec       q    Type
REMARK                         _______ _______ _______ _____ _____    ______ ____
ROOT
ATOM      1  C   LIG    1        3.670   2.194  -0.023  0.00  0.00    +0.169 C 
ENDROOT
BRANCH   1   4
ATOM      2  C   LIG    1       -0.073   1.726  -0.087  0.00  0.00    +0.019 A 
ATOM      3  C   LIG    1        1.171   2.319  -0.053  0.00  0.00    +0.007 A 
ATOM      4  C   LIG    1        2.314   1.538  -0.059  0.00  0.00    -0.019 A 
ATOM      5  C   LIG    1        2.216   0.159  -0.099  0.00  0.00    +0.007 A 
ATOM      6  C   LIG    1        0.978  -0.448  -0.132  0.00  0.00    +0.019 A 
ATOM      7  C   LIG    1       -0.179   0.334  -0.127  0.00  0.00    +0.052 A 
BRANCH   7   8
ATOM      8  C   LIG    1       -1.468  -0.289  -0.162  0.00  0.00    +0.099 C 
ATOM      9  N   LIG    1       -2.490  -0.783  -0.190  0.00  0.00    -0.191 NA
ENDBRANCH   7   8
ENDBRANCH   1   4
BRANCH   1  10
ATOM     10  C   LIG    1        4.364   1.841   1.268  0.00  0.00    -0.019 A 
ATOM     11  C   LIG    1        5.744   1.911   1.349  0.00  0.00    +0.007 A 
ATOM     12  C   LIG    1        6.386   1.590   2.527  0.00  0.00    +0.019 A 
ATOM     13  C   LIG    1        5.640   1.193   3.639  0.00  0.00    +0.052 A 
ATOM     14  C   LIG    1        4.248   1.124   3.549  0.00  0.00    +0.019 A 
ATOM     15  C   LIG    1        3.619   1.453   2.367  0.00  0.00    +0.007 A 
BRANCH  13  16
ATOM     16  C   LIG    1        6.300   0.857   4.864  0.00  0.00    +0.099 C 
ATOM     17  N   LIG    1        6.823   0.591   5.837  0.00  0.00    -0.191 NA
ENDBRANCH  13  16
ENDBRANCH   1  10
BRANCH   1  18
ATOM     18  N   LIG    1        4.472   1.721  -1.154  0.00  0.00    -0.240 N 
ATOM     19  C   LIG    1        5.199   0.591  -1.210  0.00  0.00    +0.220 A 
ATOM     20  N   LIG    1        5.764   0.530  -2.388  0.00  0.00    -0.223 NA
ATOM     21  C   LIG    1        5.423   1.598  -3.109  0.00  0.00    +0.245 A 
ATOM     22  N   LIG    1        4.628   2.353  -2.398  0.00  0.00    -0.158 NA
ENDBRANCH   1  18
TORSDOF 5
