REMARK  Name = ZINC03819473
REMARK                            x       y       z     vdW  Elec       q    Type
REMARK                         _______ _______ _______ _____ _____    ______ ____
ROOT
ATOM      1  C   LIG    1       10.629  -7.381   1.200  0.00  0.00    -0.044 A 
ATOM      2  C   LIG    1        9.524  -7.655   1.984  0.00  0.00    +0.007 A 
ATOM      3  C   LIG    1        8.387  -6.879   1.873  0.00  0.00    +0.046 A 
ATOM      4  C   LIG    1        8.354  -5.824   0.972  0.00  0.00    +0.121 A 
ATOM      5  C   LIG    1        9.462  -5.555   0.182  0.00  0.00    +0.046 A 
ATOM      6  C   LIG    1       10.598  -6.331   0.301  0.00  0.00    +0.007 A 
ENDROOT
BRANCH   1   7
ATOM      7  C   LIG    1       11.869  -8.229   1.323  0.00  0.00    +0.078 C 
BRANCH   7   8
ATOM      8  C   LIG    1       11.783  -9.403   0.345  0.00  0.00    +0.230 C 
BRANCH   8   9
ATOM      9  C   LIG    1       13.073 -10.181   0.381  0.00  0.00    +0.334 C 
ATOM     10  O   LIG    1       13.081 -11.321   0.781  0.00  0.00    -0.248 OA
BRANCH   9  11
ATOM     11  O   LIG    1       14.214  -9.607  -0.033  0.00  0.00    -0.479 OA
ATOM     12  H   LIG    1       14.209  -8.723  -0.343  0.00  0.00    +0.295 HD
ENDBRANCH   9  11
ENDBRANCH   8   9
BRANCH   8  13
ATOM     13  O   LIG    1       10.701 -10.258   0.720  0.00  0.00    -0.365 OA
BRANCH  13  15
ATOM     14  C   LIG    1        8.953 -11.822   0.139  0.00  0.00    +0.034 C 
ATOM     15  C   LIG    1       10.093 -10.941  -0.377  0.00  0.00    +0.157 C 
ENDBRANCH  13  15
ENDBRANCH   8  13
ENDBRANCH   7   8
ENDBRANCH   1   7
BRANCH   4  16
ATOM     16  O   LIG    1        7.236  -5.059   0.861  0.00  0.00    -0.488 OA
BRANCH  16  17
ATOM     17  C   LIG    1        7.273  -3.990  -0.087  0.00  0.00    +0.257 C 
BRANCH  17  18
ATOM     18  C   LIG    1        5.956  -3.258  -0.071  0.00  0.00    +0.022 C 
ATOM     19  C   LIG    1        5.934  -1.926  -0.064  0.00  0.00    +0.059 C 
BRANCH  19  20
ATOM     20  C   LIG    1        4.682  -1.231  -0.049  0.00  0.00    -0.069 C 
ATOM     21  C   LIG    1        3.656  -0.661  -0.036  0.00  0.00    -0.062 C 
BRANCH  21  22
ATOM     22  C   LIG    1        2.405   0.035  -0.021  0.00  0.00    +0.025 A 
ATOM     23  C   LIG    1        1.204  -0.681  -0.013  0.00  0.00    +0.017 A 
ATOM     24  C   LIG    1        0.002  -0.004   0.002  0.00  0.00    +0.001 A 
ATOM     25  C   LIG    1       -0.017   1.380   0.010  0.00  0.00    +0.000 A 
ATOM     26  C   LIG    1        1.168   2.095   0.002  0.00  0.00    +0.001 A 
ATOM     27  C   LIG    1        2.377   1.432  -0.013  0.00  0.00    +0.017 A 
ENDBRANCH  21  22
ENDBRANCH  19  20
ENDBRANCH  17  18
ENDBRANCH  16  17
ENDBRANCH   4  16
TORSDOF 11
