REMARK  Name = ZINC03833876
REMARK                            x       y       z     vdW  Elec       q    Type
REMARK                         _______ _______ _______ _____ _____    ______ ____
ROOT
ATOM      1  C   LIG    1        2.216  -4.332  -1.672  0.00  0.00    +0.184 C 
ATOM      2  C   LIG    1        0.940  -5.138  -1.906  0.00  0.00    +0.049 C 
ATOM      3  C   LIG    1        1.303  -6.630  -1.906  0.00  0.00    +0.031 C 
ATOM      4  C   LIG    1        2.259  -6.866  -3.048  0.00  0.00    -0.023 C 
ATOM      5  C   LIG    1        3.119  -5.935  -3.416  0.00  0.00    -0.045 C 
ATOM      6  C   LIG    1        4.002  -6.179  -4.579  0.00  0.00    -0.000 C 
ATOM      7  C   LIG    1        4.638  -5.168  -5.141  0.00  0.00    -0.023 C 
ATOM      8  C   LIG    1        4.554  -3.751  -4.663  0.00  0.00    +0.012 C 
ATOM      9  C   LIG    1        5.808  -3.425  -3.850  0.00  0.00    +0.012 C 
ATOM     10  C   LIG    1        3.320  -3.519  -3.790  0.00  0.00    +0.007 C 
ATOM     11  C   LIG    1        3.263  -4.614  -2.722  0.00  0.00    +0.063 C 
ENDROOT
BRANCH   1  12
ATOM     12  O   LIG    1        1.897  -2.939  -1.695  0.00  0.00    -0.461 OA
BRANCH  12  13
ATOM     13  C   LIG    1        1.537  -2.377  -0.531  0.00  0.00    +0.310 C 
ATOM     14  O   LIG    1        1.494  -3.045   0.475  0.00  0.00    -0.251 OA
BRANCH  13  15
ATOM     15  C   LIG    1        1.186  -0.912  -0.478  0.00  0.00    +0.094 C 
ATOM     16  C   LIG    1       -0.001  -0.639  -1.404  0.00  0.00    +0.019 C 
BRANCH  15  18
ATOM     17  C   LIG    1        0.579   0.981   1.034  0.00  0.00    +0.004 C 
ATOM     18  C   LIG    1        0.814  -0.528   0.955  0.00  0.00    +0.011 C 
ENDBRANCH  15  18
ENDBRANCH  13  15
ENDBRANCH  12  13
ENDBRANCH   1  12
BRANCH  10  19
ATOM     19  C   LIG    1        3.413  -2.149  -3.116  0.00  0.00    +0.008 C 
BRANCH  19  20
ATOM     20  C   LIG    1        3.943  -1.122  -4.119  0.00  0.00    +0.045 C 
BRANCH  20  21
ATOM     21  C   LIG    1        4.037   0.248  -3.445  0.00  0.00    +0.179 C 
ATOM     22  C   LIG    1        4.450   1.299  -4.478  0.00  0.00    +0.076 C 
ATOM     23  C   LIG    1        4.583   2.662  -3.791  0.00  0.00    +0.129 C 
ATOM     24  C   LIG    1        5.641   2.559  -2.686  0.00  0.00    +0.152 C 
ATOM     25  C   LIG    1        5.294   1.379  -1.804  0.00  0.00    +0.310 C 
ATOM     26  O   LIG    1        5.267   1.489  -0.602  0.00  0.00    -0.251 OA
ATOM     27  O   LIG    1        5.015   0.201  -2.400  0.00  0.00    -0.461 OA
BRANCH  23  28
ATOM     28  O   LIG    1        3.326   3.035  -3.221  0.00  0.00    -0.391 OA
ATOM     29  H   LIG    1        3.338   3.890  -2.769  0.00  0.00    +0.210 HD
ENDBRANCH  23  28
ENDBRANCH  20  21
ENDBRANCH  19  20
ENDBRANCH  10  19
TORSDOF 8
