REMARK  Name = ZINC03814177
REMARK                            x       y       z     vdW  Elec       q    Type
REMARK                         _______ _______ _______ _____ _____    ______ ____
ROOT
ATOM      1  C   LIG    1        1.550   5.211   0.046  0.00  0.00    +0.169 C 
ATOM      2  N   LIG    1        2.164   3.885  -0.161  0.00  0.00    -0.271 N 
ATOM      3  C   LIG    1        1.427   2.794  -0.447  0.00  0.00    +0.218 C 
ATOM      4  O   LIG    1        0.221   2.885  -0.540  0.00  0.00    -0.276 OA
ATOM      5  C   LIG    1        3.618   3.825  -0.033  0.00  0.00    +0.196 C 
ATOM      6  C   LIG    1        4.268   5.167  -0.490  0.00  0.00    +0.105 C 
ATOM      7  S   LIG    1        3.008   6.326   0.212  0.00  0.00    -0.131 S 
ENDROOT
BRANCH   1  12
ATOM      8  C   LIG    1       -0.370   4.043   3.080  0.00  0.00    +0.001 A 
ATOM      9  C   LIG    1       -0.802   5.242   3.616  0.00  0.00    +0.004 A 
ATOM     10  C   LIG    1       -0.474   6.434   2.999  0.00  0.00    +0.046 A 
ATOM     11  C   LIG    1        0.289   6.426   1.840  0.00  0.00    +0.123 A 
ATOM     12  C   LIG    1        0.721   5.222   1.305  0.00  0.00    +0.024 A 
ATOM     13  C   LIG    1        0.386   4.033   1.923  0.00  0.00    +0.010 A 
BRANCH  11  14
ATOM     14  O   LIG    1        0.613   7.597   1.231  0.00  0.00    -0.506 OA
ATOM     15  H   LIG    1       -0.030   7.888   0.570  0.00  0.00    +0.292 HD
ENDBRANCH  11  14
ENDBRANCH   1  12
BRANCH   5  16
ATOM     16  C   LIG    1        3.978   3.558   1.406  0.00  0.00    +0.326 C 
ATOM     17  O   LIG    1        3.227   3.897   2.289  0.00  0.00    -0.249 OA
BRANCH  16  18
ATOM     18  O   LIG    1        5.133   2.944   1.706  0.00  0.00    -0.479 OA
ATOM     19  H   LIG    1        5.716   2.681   1.021  0.00  0.00    +0.295 HD
ENDBRANCH  16  18
ENDBRANCH   5  16
BRANCH   3  20
ATOM     20  C   LIG    1        2.101   1.462  -0.651  0.00  0.00    +0.106 C 
BRANCH  20  21
ATOM     21  C   LIG    1        1.045   0.398  -0.960  0.00  0.00    +0.075 C 
BRANCH  21  22
ATOM     22  S   LIG    1        1.856  -1.206  -1.205  0.00  0.00    -0.178 S 
ATOM     23  H   LIG    1        0.840  -2.047  -1.467  0.00  0.00    +0.102 HD
ENDBRANCH  21  22
ENDBRANCH  20  21
ENDBRANCH   3  20
TORSDOF 7
