REMARK  Name = ZINC03825965
REMARK                            x       y       z     vdW  Elec       q    Type
REMARK                         _______ _______ _______ _____ _____    ______ ____
ROOT
ATOM      1  N   LIG    1        5.951  -0.719  -2.740  0.00  0.00    +0.382 N 
ATOM      2  H   LIG    1        5.917  -1.422  -1.993  0.00  0.00    -0.082 HD
ATOM      3  C   LIG    1        6.136  -1.403  -4.037  0.00  0.00    -0.060 C 
ATOM      4  C   LIG    1        7.428  -2.221  -3.984  0.00  0.00    +0.086 C 
ATOM      5  N   LIG    1        8.561  -1.326  -3.711  0.00  0.00    -0.333 N 
ATOM      6  C   LIG    1        8.377  -0.622  -2.434  0.00  0.00    +0.086 C 
ATOM      7  C   LIG    1        7.084   0.196  -2.488  0.00  0.00    -0.060 C 
ENDROOT
BRANCH   5   8
ATOM      8  C   LIG    1        9.766  -2.026  -3.726  0.00  0.00    +0.037 A 
ATOM      9  C   LIG    1       10.495  -2.181  -2.566  0.00  0.00    +0.024 A 
ATOM     10  C   LIG    1       11.696  -2.884  -2.569  0.00  0.00    +0.002 A 
ATOM     11  C   LIG    1       12.191  -3.425  -3.716  0.00  0.00    +0.008 A 
ATOM     12  C   LIG    1       11.482  -3.285  -4.921  0.00  0.00    -0.016 A 
ATOM     13  C   LIG    1       11.970  -3.834  -6.120  0.00  0.00    +0.012 A 
ATOM     14  C   LIG    1       11.261  -3.682  -7.270  0.00  0.00    +0.046 A 
ATOM     15  C   LIG    1       10.050  -2.984  -7.280  0.00  0.00    +0.121 A 
ATOM     16  C   LIG    1        9.547  -2.438  -6.133  0.00  0.00    +0.056 A 
ATOM     17  C   LIG    1       10.255  -2.577  -4.930  0.00  0.00    +0.007 A 
BRANCH  15  18
ATOM     18  O   LIG    1        9.363  -2.848  -8.445  0.00  0.00    -0.495 OA
ATOM     19  C   LIG    1        9.939  -3.441  -9.611  0.00  0.00    +0.277 C 
ENDBRANCH  15  18
ENDBRANCH   5   8
BRANCH   1  20
ATOM     20  C   LIG    1        4.681   0.039  -2.745  0.00  0.00    -0.079 C 
BRANCH  20  21
ATOM     21  C   LIG    1        4.405   0.548  -1.329  0.00  0.00    -0.017 C 
BRANCH  21  22
ATOM     22  C   LIG    1        3.082   1.317  -1.313  0.00  0.00    +0.022 C 
BRANCH  22  23
ATOM     23  C   LIG    1        2.806   1.827   0.103  0.00  0.00    +0.149 C 
BRANCH  23  29
ATOM     24  C   LIG    1       -2.023   1.814   0.658  0.00  0.00    +0.157 C 
ATOM     25  N   LIG    1       -0.787   2.552   0.387  0.00  0.00    -0.262 N 
ATOM     26  C   LIG    1       -0.833   3.881   0.158  0.00  0.00    +0.275 A 
ATOM     27  C   LIG    1        0.414   4.602  -0.116  0.00  0.00    +0.203 A 
ATOM     28  N   LIG    1        1.538   3.941  -0.129  0.00  0.00    -0.170 NA
ATOM     29  N   LIG    1        1.539   2.563   0.118  0.00  0.00    -0.214 N 
ATOM     30  O   LIG    1       -1.896   4.474   0.176  0.00  0.00    -0.266 OA
ATOM     31  C   LIG    1        0.393   1.906   0.370  0.00  0.00    +0.348 A 
ATOM     32  O   LIG    1        0.423   0.709   0.582  0.00  0.00    -0.245 OA
ENDBRANCH  23  29
ENDBRANCH  22  23
ENDBRANCH  21  22
ENDBRANCH  20  21
ENDBRANCH   1  20
TORSDOF 7
