REMARK  Name = ZINC03784103
REMARK                            x       y       z     vdW  Elec       q    Type
REMARK                         _______ _______ _______ _____ _____    ______ ____
ROOT
ATOM      1  C   LIG    1        7.478   4.649  -4.304  0.00  0.00    +0.142 C 
ATOM      2  C   LIG    1        8.450   5.769  -3.877  0.00  0.00    +0.051 C 
ATOM      3  C   LIG    1        8.739   5.413  -2.403  0.00  0.00    +0.039 C 
ATOM      4  C   LIG    1        7.520   4.647  -1.934  0.00  0.00    -0.041 A 
ATOM      5  C   LIG    1        7.081   4.359  -0.652  0.00  0.00    +0.007 A 
ATOM      6  C   LIG    1        5.919   3.640  -0.460  0.00  0.00    +0.046 A 
ATOM      7  C   LIG    1        5.193   3.193  -1.554  0.00  0.00    +0.121 A 
ATOM      8  C   LIG    1        5.633   3.482  -2.837  0.00  0.00    +0.052 A 
ATOM      9  C   LIG    1        6.795   4.208  -3.027  0.00  0.00    -0.003 A 
ENDROOT
BRANCH   1  10
ATOM     10  C   LIG    1        6.463   5.181  -5.282  0.00  0.00    +0.115 A 
ATOM     11  N   LIG    1        5.616   6.174  -5.134  0.00  0.00    -0.249 NA
ATOM     12  C   LIG    1        4.789   6.521  -6.098  0.00  0.00    +0.119 A 
ATOM     13  C   LIG    1        4.819   5.819  -7.258  0.00  0.00    +0.066 A 
ATOM     14  S   LIG    1        6.108   4.636  -6.892  0.00  0.00    -0.077 S 
ENDBRANCH   1  10
BRANCH   1  16
ATOM     15  C   LIG    1        7.380   2.448  -5.249  0.00  0.00    +0.195 C 
ATOM     16  O   LIG    1        8.200   3.559  -4.881  0.00  0.00    -0.365 OA
ENDBRANCH   1  16
BRANCH   7  17
ATOM     17  O   LIG    1        4.051   2.480  -1.369  0.00  0.00    -0.487 OA
BRANCH  17  18
ATOM     18  C   LIG    1        3.659   2.221  -0.020  0.00  0.00    +0.264 C 
BRANCH  18  19
ATOM     19  C   LIG    1        2.380   1.424  -0.012  0.00  0.00    -0.010 A 
ATOM     20  C   LIG    1        1.156   2.091   0.002  0.00  0.00    +0.007 A 
ATOM     21  C   LIG    1       -0.017   1.401   0.010  0.00  0.00    +0.009 A 
ATOM     22  C   LIG    1        0.002  -0.004   0.002  0.00  0.00    -0.018 A 
ATOM     23  C   LIG    1       -1.189  -0.750   0.009  0.00  0.00    +0.008 A 
ATOM     24  C   LIG    1       -1.131  -2.110   0.001  0.00  0.00    +0.001 A 
ATOM     25  C   LIG    1        0.092  -2.777  -0.015  0.00  0.00    +0.001 A 
ATOM     26  C   LIG    1        1.266  -2.087  -0.022  0.00  0.00    +0.008 A 
ATOM     27  C   LIG    1        1.247  -0.682  -0.013  0.00  0.00    -0.018 A 
ATOM     28  C   LIG    1        2.438   0.064  -0.020  0.00  0.00    +0.015 A 
ENDBRANCH  18  19
ENDBRANCH  17  18
ENDBRANCH   7  17
TORSDOF 5
