REMARK  Name = ZINC03831403
REMARK                            x       y       z     vdW  Elec       q    Type
REMARK                         _______ _______ _______ _____ _____    ______ ____
ROOT
ATOM      1  C   LIG    1       -1.333  -4.915   0.005  0.00  0.00    +0.132 C 
ENDROOT
BRANCH   1   7
ATOM      2  C   LIG    1        1.322  -6.823  -2.756  0.00  0.00    +0.121 A 
ATOM      3  C   LIG    1        2.121  -6.068  -3.620  0.00  0.00    +0.048 A 
ATOM      4  C   LIG    1        2.076  -4.709  -3.607  0.00  0.00    +0.032 A 
ATOM      5  C   LIG    1        1.216  -4.046  -2.713  0.00  0.00    +0.072 A 
ATOM      6  C   LIG    1        0.406  -4.811  -1.837  0.00  0.00    +0.009 A 
ATOM      7  C   LIG    1       -0.453  -4.144  -0.945  0.00  0.00    -0.010 A 
ATOM      8  C   LIG    1       -0.468  -2.778  -0.964  0.00  0.00    +0.026 A 
ATOM      9  C   LIG    1        0.353  -2.086  -1.851  0.00  0.00    +0.112 A 
ATOM     10  N   LIG    1        1.153  -2.711  -2.681  0.00  0.00    -0.255 NA
ATOM     11  C   LIG    1        0.471  -6.213  -1.878  0.00  0.00    +0.056 A 
BRANCH   2  13
ATOM     12  C   LIG    1        2.298  -8.759  -3.731  0.00  0.00    +0.277 C 
ATOM     13  O   LIG    1        1.389  -8.180  -2.792  0.00  0.00    -0.495 OA
ENDBRANCH   2  13
ENDBRANCH   1   7
BRANCH   1  14
ATOM     14  C   LIG    1       -0.669  -4.972   1.383  0.00  0.00    -0.035 C 
ATOM     15  C   LIG    1        0.623  -5.786   1.290  0.00  0.00    -0.009 C 
ATOM     16  C   LIG    1        0.520  -6.989   2.237  0.00  0.00    -0.009 C 
ATOM     17  C   LIG    1       -0.684  -7.839   1.810  0.00  0.00    -0.015 C 
ATOM     18  C   LIG    1       -1.944  -6.973   1.867  0.00  0.00    -0.078 C 
ATOM     19  C   LIG    1        0.289  -6.466   3.660  0.00  0.00    -0.003 C 
ATOM     20  C   LIG    1       -0.992  -5.633   3.677  0.00  0.00    -0.071 C 
ATOM     21  N   LIG    1       -1.586  -5.599   2.338  0.00  0.00    +0.384 N 
ATOM     22  H   LIG    1       -2.427  -5.043   2.385  0.00  0.00    -0.081 HD
BRANCH  19  23
ATOM     23  C   LIG    1        1.456  -5.609   4.079  0.00  0.00    -0.033 C 
ATOM     24  C   LIG    1        2.168  -5.939   5.128  0.00  0.00    +0.004 C 
ENDBRANCH  19  23
ENDBRANCH   1  14
BRANCH   1  25
ATOM     25  O   LIG    1       -2.601  -4.265   0.114  0.00  0.00    -0.389 OA
ATOM     26  H   LIG    1       -2.561  -3.391   0.527  0.00  0.00    +0.210 HD
ENDBRANCH   1  25
TORSDOF 5
