REMARK  Name = ZINC03830709
REMARK                            x       y       z     vdW  Elec       q    Type
REMARK                         _______ _______ _______ _____ _____    ______ ____
ROOT
ATOM      1  C   LIG    1        3.811  -5.854  -5.464  0.00  0.00    +0.046 C 
ATOM      2  C   LIG    1        5.281  -5.516  -5.816  0.00  0.00    +0.124 C 
ATOM      3  C   LIG    1        5.623  -6.567  -6.901  0.00  0.00    +0.063 C 
ATOM      4  C   LIG    1        4.908  -7.848  -6.425  0.00  0.00    +0.121 C 
ATOM      5  C   LIG    1        3.752  -7.395  -5.513  0.00  0.00    +0.031 C 
ENDROOT
BRANCH   4   6
ATOM      6  O   LIG    1        4.390  -8.566  -7.548  0.00  0.00    -0.391 OA
ATOM      7  H   LIG    1        5.067  -8.860  -8.172  0.00  0.00    +0.210 HD
ENDBRANCH   4   6
BRANCH   2   8
ATOM      8  O   LIG    1        5.385  -4.191  -6.339  0.00  0.00    -0.391 OA
ATOM      9  H   LIG    1        6.286  -3.930  -6.575  0.00  0.00    +0.210 HD
ENDBRANCH   2   8
BRANCH   1  11
ATOM     10  C   LIG    1        2.468  -4.533  -3.911  0.00  0.00    -0.000 C 
ATOM     11  C   LIG    1        3.472  -5.357  -4.082  0.00  0.00    -0.022 C 
BRANCH  10  12
ATOM     12  C   LIG    1        2.129  -4.035  -2.530  0.00  0.00    +0.137 C 
BRANCH  12  13
ATOM     13  O   LIG    1        3.107  -4.506  -1.600  0.00  0.00    -0.388 OA
ATOM     14  H   LIG    1        4.008  -4.214  -1.796  0.00  0.00    +0.210 HD
ENDBRANCH  12  13
BRANCH  12  15
ATOM     15  C   LIG    1        2.117  -2.506  -2.527  0.00  0.00    +0.035 C 
BRANCH  15  16
ATOM     16  C   LIG    1        1.652  -2.001  -1.159  0.00  0.00    +0.003 C 
BRANCH  16  17
ATOM     17  C   LIG    1        1.640  -0.471  -1.157  0.00  0.00    -0.000 C 
BRANCH  17  19
ATOM     18  C   LIG    1        1.164   1.563   0.213  0.00  0.00    +0.004 C 
ATOM     19  C   LIG    1        1.175   0.033   0.211  0.00  0.00    -0.003 C 
ENDBRANCH  17  19
ENDBRANCH  16  17
ENDBRANCH  15  16
ENDBRANCH  12  15
ENDBRANCH  10  12
ENDBRANCH   1  11
BRANCH   5  20
ATOM     20  C   LIG    1        2.412  -7.850  -6.093  0.00  0.00    +0.033 C 
BRANCH  20  21
ATOM     21  C   LIG    1        2.317  -9.352  -6.022  0.00  0.00    -0.031 C 
ATOM     22  C   LIG    1        1.274  -9.917  -5.467  0.00  0.00    -0.031 C 
BRANCH  22  23
ATOM     23  C   LIG    1        0.092  -9.077  -5.055  0.00  0.00    +0.027 C 
BRANCH  23  24
ATOM     24  C   LIG    1       -1.182  -9.646  -5.682  0.00  0.00    +0.015 C 
BRANCH  24  25
ATOM     25  C   LIG    1       -2.381  -8.794  -5.263  0.00  0.00    +0.121 C 
BRANCH  25  26
ATOM     26  C   LIG    1       -3.636  -9.354  -5.881  0.00  0.00    +0.305 C 
ATOM     27  O   LIG    1       -3.577 -10.344  -6.591  0.00  0.00    -0.251 OA
BRANCH  26  28
ATOM     28  O   LIG    1       -4.711  -8.818  -5.671  0.00  0.00    -0.481 OA
ATOM     29  H   LIG    1       -4.756  -8.057  -5.126  0.00  0.00    +0.295 HD
ENDBRANCH  26  28
ENDBRANCH  25  26
ENDBRANCH  24  25
ENDBRANCH  23  24
ENDBRANCH  22  23
ENDBRANCH  20  21
ENDBRANCH   5  20
TORSDOF 16
