REMARK  Name = ZINC03802462
REMARK                            x       y       z     vdW  Elec       q    Type
REMARK                         _______ _______ _______ _____ _____    ______ ____
ROOT
ATOM      1  C   LIG    1       -6.792   5.848  -0.869  0.00  0.00    +0.012 C 
ATOM      2  C   LIG    1       -7.267   4.712   0.038  0.00  0.00    -0.026 C 
ATOM      3  C   LIG    1       -8.537   4.094  -0.548  0.00  0.00    +0.010 C 
ATOM      4  C   LIG    1       -9.023   2.963   0.360  0.00  0.00    +0.032 C 
ATOM      5  C   LIG    1       -9.322   3.521   1.753  0.00  0.00    +0.115 C 
ATOM      6  C   LIG    1       -8.048   4.132   2.339  0.00  0.00    +0.035 C 
ATOM      7  C   LIG    1       -6.175   3.645   0.132  0.00  0.00    +0.001 C 
ATOM      8  C   LIG    1       -5.854   3.126  -1.274  0.00  0.00    +0.005 C 
ATOM      9  C   LIG    1       -4.812   2.017  -1.158  0.00  0.00    +0.013 C 
ATOM     10  C   LIG    1       -3.509   2.556  -0.567  0.00  0.00    +0.030 C 
ATOM     11  C   LIG    1       -2.757   3.457  -1.549  0.00  0.00    +0.017 C 
ATOM     12  C   LIG    1       -3.774   3.264   0.775  0.00  0.00    +0.078 C 
ATOM     13  C   LIG    1       -4.055   2.102   1.746  0.00  0.00    +0.039 C 
ATOM     14  C   LIG    1       -3.038   1.020   1.317  0.00  0.00    +0.043 C 
ATOM     15  C   LIG    1       -2.665   1.322  -0.147  0.00  0.00    +0.102 C 
ATOM     16  C   LIG    1       -4.906   4.261   0.719  0.00  0.00    +0.025 C 
ATOM     17  C   LIG    1       -5.204   4.812   2.115  0.00  0.00    +0.007 C 
ATOM     18  C   LIG    1       -6.293   5.882   2.020  0.00  0.00    +0.004 C 
ATOM     19  C   LIG    1       -7.564   5.266   1.433  0.00  0.00    -0.002 C 
ENDROOT
BRANCH  15  20
ATOM     20  C   LIG    1       -1.196   1.640  -0.252  0.00  0.00    +0.022 A 
ATOM     21  C   LIG    1       -0.410   2.318   0.707  0.00  0.00    +0.047 A 
ATOM     22  C   LIG    1        0.840   2.379   0.214  0.00  0.00    +0.195 A 
ATOM     23  O   LIG    1        0.851   1.782  -0.989  0.00  0.00    -0.471 OA
ATOM     24  C   LIG    1       -0.382   1.335  -1.278  0.00  0.00    +0.201 A 
ENDBRANCH  15  20
BRANCH   5  25
ATOM     25  O   LIG    1      -10.335   4.525   1.657  0.00  0.00    -0.392 OA
ATOM     26  H   LIG    1      -11.171   4.206   1.291  0.00  0.00    +0.210 HD
ENDBRANCH   5  25
BRANCH  12  27
ATOM     27  O   LIG    1       -2.578   3.934   1.180  0.00  0.00    -0.388 OA
ATOM     28  H   LIG    1       -2.626   4.325   2.063  0.00  0.00    +0.210 HD
ENDBRANCH  12  27
BRANCH  15  29
ATOM     29  O   LIG    1       -2.986   0.204  -0.976  0.00  0.00    -0.383 OA
ATOM     30  H   LIG    1       -2.500  -0.602  -0.754  0.00  0.00    +0.211 HD
ENDBRANCH  15  29
TORSDOF 4
