REMARK  Name = ZINC03779708
REMARK                            x       y       z     vdW  Elec       q    Type
REMARK                         _______ _______ _______ _____ _____    ______ ____
ROOT
ATOM      1  C   LIG    1        3.459   1.800  -0.216  0.00  0.00    +0.147 A 
ATOM      2  C   LIG    1        2.119   1.264   0.021  0.00  0.00    +0.104 A 
ATOM      3  N   LIG    1        1.932  -0.047   0.038  0.00  0.00    -0.242 NA
ATOM      4  C   LIG    1        2.964  -0.871  -0.171  0.00  0.00    +0.091 A 
ATOM      5  C   LIG    1        2.775  -2.265  -0.160  0.00  0.00    +0.051 A 
ATOM      6  C   LIG    1        3.834  -3.095  -0.368  0.00  0.00    +0.061 A 
ATOM      7 CL   LIG    1        3.592  -4.814  -0.352  0.00  0.00    -0.082 Cl
ATOM      8  C   LIG    1        5.111  -2.581  -0.594  0.00  0.00    +0.061 A 
ATOM      9 CL   LIG    1        6.439  -3.669  -0.856  0.00  0.00    -0.082 Cl
ATOM     10  C   LIG    1        5.331  -1.236  -0.612  0.00  0.00    +0.051 A 
ATOM     11  C   LIG    1        4.262  -0.350  -0.400  0.00  0.00    +0.093 A 
ATOM     12  N   LIG    1        4.467   0.975  -0.415  0.00  0.00    -0.228 NA
ENDROOT
BRANCH   1  13
ATOM     13  N   LIG    1        3.668   3.169  -0.231  0.00  0.00    -0.317 N 
ATOM     14  C   LIG    1        4.176   3.610  -1.536  0.00  0.00    +0.130 C 
BRANCH  13  15
ATOM     15  C   LIG    1        4.574   3.574   0.852  0.00  0.00    +0.104 C 
BRANCH  15  16
ATOM     16  C   LIG    1        4.586   5.100   0.963  0.00  0.00    +0.000 C 
BRANCH  16  17
ATOM     17  C   LIG    1        5.530   5.523   2.090  0.00  0.00    -0.078 C 
BRANCH  17  19
ATOM     18  C   LIG    1        6.244   7.423   3.410  0.00  0.00    -0.097 C 
ATOM     19  N   LIG    1        5.513   6.997   2.198  0.00  0.00    +0.376 N 
ATOM     20  H   LIG    1        4.540   7.315   2.267  0.00  0.00    -0.083 HD
ATOM     21  C   LIG    1        6.132   7.598   0.998  0.00  0.00    -0.097 C 
ENDBRANCH  17  19
ENDBRANCH  16  17
ENDBRANCH  15  16
ENDBRANCH  13  15
ENDBRANCH   1  13
BRANCH   2  22
ATOM     22  C   LIG    1        0.987   2.175   0.244  0.00  0.00    +0.032 C 
ATOM     23  C   LIG    1       -0.261   1.683   0.352  0.00  0.00    +0.010 C 
BRANCH  23  24
ATOM     24  C   LIG    1       -1.395   2.597   0.570  0.00  0.00    -0.025 A 
ATOM     25  C   LIG    1       -1.179   3.974   0.676  0.00  0.00    +0.008 A 
ATOM     26  C   LIG    1       -2.247   4.823   0.874  0.00  0.00    +0.001 A 
ATOM     27  C   LIG    1       -3.530   4.314   0.979  0.00  0.00    +0.000 A 
ATOM     28  C   LIG    1       -3.752   2.952   0.881  0.00  0.00    +0.001 A 
ATOM     29  C   LIG    1       -2.694   2.091   0.677  0.00  0.00    +0.008 A 
ENDBRANCH  23  24
ENDBRANCH   2  22
TORSDOF 7
