REMARK  Name = ZINC03812892
REMARK                            x       y       z     vdW  Elec       q    Type
REMARK                         _______ _______ _______ _____ _____    ______ ____
ROOT
ATOM      1  N   LIG    1        4.057  -6.568  -8.484  0.00  0.00    +0.380 N 
ATOM      2  H   LIG    1        3.843  -6.793  -9.444  0.00  0.00    -0.082 HD
ATOM      3  C   LIG    1        4.887  -5.358  -8.442  0.00  0.00    -0.078 C 
ATOM      4  C   LIG    1        6.153  -5.574  -9.274  0.00  0.00    -0.012 C 
ATOM      5  C   LIG    1        6.940  -6.755  -8.699  0.00  0.00    +0.026 C 
ATOM      6  C   LIG    1        6.040  -7.994  -8.680  0.00  0.00    -0.012 C 
ATOM      7  C   LIG    1        4.778  -7.688  -7.869  0.00  0.00    -0.078 C 
ENDROOT
BRANCH   1   8
ATOM      8  C   LIG    1        2.808  -6.329  -7.749  0.00  0.00    -0.079 C 
BRANCH   8   9
ATOM      9  C   LIG    1        1.996  -5.245  -8.461  0.00  0.00    -0.016 C 
BRANCH   9  10
ATOM     10  C   LIG    1        0.695  -4.996  -7.696  0.00  0.00    +0.034 C 
BRANCH  10  11
ATOM     11  C   LIG    1       -0.117  -3.913  -8.408  0.00  0.00    +0.144 C 
BRANCH  11  15
ATOM     12  C   LIG    1       -3.898  -3.465  -6.471  0.00  0.00    -0.042 A 
ATOM     13  C   LIG    1       -3.780  -4.288  -7.576  0.00  0.00    +0.004 A 
ATOM     14  C   LIG    1       -2.557  -4.432  -8.203  0.00  0.00    +0.006 A 
ATOM     15  C   LIG    1       -1.451  -3.754  -7.725  0.00  0.00    -0.019 A 
ATOM     16  C   LIG    1       -1.569  -2.931  -6.621  0.00  0.00    +0.006 A 
ATOM     17  C   LIG    1       -2.793  -2.783  -5.997  0.00  0.00    +0.004 A 
BRANCH  12  19
ATOM     18  C   LIG    1       -5.657  -1.838  -5.833  0.00  0.00    +0.015 C 
ATOM     19  C   LIG    1       -5.232  -3.307  -5.788  0.00  0.00    -0.013 C 
ATOM     20  C   LIG    1       -6.277  -4.163  -6.506  0.00  0.00    +0.015 C 
ATOM     21  C   LIG    1       -5.115  -3.760  -4.331  0.00  0.00    +0.015 C 
ENDBRANCH  12  19
ENDBRANCH  11  15
BRANCH  11  22
ATOM     22  O   LIG    1        0.594  -2.674  -8.358  0.00  0.00    -0.387 OA
ATOM     23  H   LIG    1        0.769  -2.357  -7.461  0.00  0.00    +0.210 HD
ENDBRANCH  11  22
ENDBRANCH  10  11
ENDBRANCH   9  10
ENDBRANCH   8   9
ENDBRANCH   1   8
BRANCH   5  24
ATOM     24  C   LIG    1        8.166  -7.027  -9.574  0.00  0.00    +0.119 C 
BRANCH  24  25
ATOM     25  C   LIG    1        8.945  -8.182  -9.000  0.00  0.00    -0.011 A 
ATOM     26  C   LIG    1        9.301  -8.181  -7.664  0.00  0.00    +0.007 A 
ATOM     27  C   LIG    1       10.016  -9.240  -7.138  0.00  0.00    +0.000 A 
ATOM     28  C   LIG    1       10.375 -10.302  -7.948  0.00  0.00    +0.000 A 
ATOM     29  C   LIG    1       10.018 -10.304  -9.284  0.00  0.00    +0.000 A 
ATOM     30  C   LIG    1        9.300  -9.246  -9.809  0.00  0.00    +0.007 A 
ENDBRANCH  24  25
BRANCH  24  31
ATOM     31  C   LIG    1        9.040  -5.800  -9.609  0.00  0.00    -0.011 A 
ATOM     32  C   LIG    1        9.414  -5.184  -8.430  0.00  0.00    +0.007 A 
ATOM     33  C   LIG    1       10.216  -4.058  -8.463  0.00  0.00    +0.000 A 
ATOM     34  C   LIG    1       10.643  -3.548  -9.675  0.00  0.00    +0.000 A 
ATOM     35  C   LIG    1       10.269  -4.165 -10.854  0.00  0.00    +0.000 A 
ATOM     36  C   LIG    1        9.471  -5.293 -10.821  0.00  0.00    +0.007 A 
ENDBRANCH  24  31
BRANCH  24  37
ATOM     37  O   LIG    1        7.743  -7.349 -10.900  0.00  0.00    -0.379 OA
ATOM     38  H   LIG    1        7.234  -6.649 -11.332  0.00  0.00    +0.211 HD
ENDBRANCH  24  37
ENDBRANCH   5  24
TORSDOF 11
