REMARK  Name = ZINC03817204
REMARK                            x       y       z     vdW  Elec       q    Type
REMARK                         _______ _______ _______ _____ _____    ______ ____
ROOT
ATOM      1  C   LIG    1        6.301   2.410  -0.715  0.00  0.00    +0.121 A 
ATOM      2  C   LIG    1        5.987   1.248  -1.409  0.00  0.00    +0.046 A 
ATOM      3  C   LIG    1        4.697   0.767  -1.402  0.00  0.00    +0.016 A 
ATOM      4  C   LIG    1        3.703   1.448  -0.695  0.00  0.00    +0.037 A 
ATOM      5  C   LIG    1        4.021   2.620  -0.003  0.00  0.00    +0.016 A 
ATOM      6  C   LIG    1        5.315   3.091  -0.010  0.00  0.00    +0.046 A 
ENDROOT
BRANCH   4   7
ATOM      7  C   LIG    1        2.319   0.936  -0.685  0.00  0.00    +0.244 C 
ATOM      8  N   LIG    1        1.361   1.595  -0.002  0.00  0.00    -0.308 N 
ATOM      9  H   LIG    1        1.581   2.406   0.482  0.00  0.00    +0.149 HD
ATOM     10  O   LIG    1        2.042  -0.081  -1.291  0.00  0.00    -0.270 OA
BRANCH   8  11
ATOM     11  C   LIG    1       -0.013   1.086   0.008  0.00  0.00    +0.089 C 
ATOM     12  C   LIG    1       -0.757   1.595  -1.230  0.00  0.00    +0.051 C 
ATOM     13  C   LIG    1       -0.843   3.123  -1.172  0.00  0.00    +0.161 C 
ATOM     14  O   LIG    1       -1.496   3.517   0.036  0.00  0.00    -0.379 OA
ATOM     15  C   LIG    1       -0.819   3.110   1.226  0.00  0.00    +0.174 C 
ATOM     16  C   LIG    1       -0.733   1.582   1.266  0.00  0.00    +0.123 C 
BRANCH  16  17
ATOM     17  C   LIG    1        0.034   1.150   2.489  0.00  0.00    +0.243 C 
ATOM     18  N   LIG    1       -0.416   1.476   3.716  0.00  0.00    -0.197 N 
ATOM     19  H   LIG    1       -1.234   1.989   3.813  0.00  0.00    +0.182 HD
ATOM     20  O   LIG    1        1.056   0.509   2.368  0.00  0.00    -0.273 OA
BRANCH  18  21
ATOM     21  O   LIG    1        0.304   1.071   4.866  0.00  0.00    -0.295 OA
ATOM     22  H   LIG    1       -0.096   1.351   5.700  0.00  0.00    +0.241 HD
ENDBRANCH  18  21
ENDBRANCH  16  17
ENDBRANCH   8  11
ENDBRANCH   4   7
BRANCH   1  23
ATOM     23  O   LIG    1        7.573   2.882  -0.724  0.00  0.00    -0.487 OA
BRANCH  23  24
ATOM     24  C   LIG    1        7.827   4.081   0.010  0.00  0.00    +0.265 C 
BRANCH  24  28
ATOM     25  C   LIG    1       12.414   3.174  -1.760  0.00  0.00    +0.065 C 
ATOM     26  C   LIG    1       11.483   4.038  -0.949  0.00  0.00    +0.039 A 
ATOM     27  C   LIG    1       10.141   3.678  -0.846  0.00  0.00    +0.030 A 
ATOM     28  C   LIG    1        9.283   4.449  -0.115  0.00  0.00    +0.000 A 
ATOM     29  C   LIG    1        9.795   5.600   0.514  0.00  0.00    +0.007 A 
ATOM     30  C   LIG    1        8.974   6.437   1.287  0.00  0.00    +0.010 A 
ATOM     31  C   LIG    1        9.508   7.537   1.884  0.00  0.00    +0.001 A 
ATOM     32  C   LIG    1       10.861   7.842   1.743  0.00  0.00    +0.002 A 
ATOM     33  C   LIG    1       11.686   7.050   1.005  0.00  0.00    +0.028 A 
ATOM     34  C   LIG    1       11.171   5.904   0.373  0.00  0.00    +0.072 A 
ATOM     35  N   LIG    1       11.958   5.107  -0.357  0.00  0.00    -0.252 NA
ENDBRANCH  24  28
ENDBRANCH  23  24
ENDBRANCH   1  23
TORSDOF 7
