REMARK  Name = ZINC03816584
REMARK                            x       y       z     vdW  Elec       q    Type
REMARK                         _______ _______ _______ _____ _____    ______ ____
ROOT
ATOM      1  C   LIG    1        1.441  -6.232  -0.084  0.00  0.00    +0.110 C 
ENDROOT
BRANCH   1   2
ATOM      2  N   LIG    1        2.786  -6.808  -0.157  0.00  0.00    -0.326 N 
ATOM      3  H   LIG    1        3.561  -6.227  -0.210  0.00  0.00    +0.148 HD
BRANCH   2   4
ATOM      4  C   LIG    1        2.947  -8.146  -0.151  0.00  0.00    +0.131 C 
ATOM      5  S   LIG    1        1.580  -9.173  -0.058  0.00  0.00    -0.019 S 
BRANCH   4   6
ATOM      6  N   LIG    1        4.184  -8.677  -0.218  0.00  0.00    -0.322 N 
ATOM      7  H   LIG    1        4.959  -8.095  -0.271  0.00  0.00    +0.148 HD
BRANCH   6   8
ATOM      8  C   LIG    1        4.360 -10.131  -0.212  0.00  0.00    +0.138 C 
BRANCH   8   9
ATOM      9  C   LIG    1        5.828 -10.461  -0.295  0.00  0.00    -0.030 A 
ATOM     10  C   LIG    1        6.430 -10.620  -1.530  0.00  0.00    +0.007 A 
ATOM     11  C   LIG    1        7.775 -10.922  -1.610  0.00  0.00    +0.025 A 
ATOM     12  C   LIG    1        8.523 -11.066  -0.449  0.00  0.00    +0.048 A 
ATOM     13  C   LIG    1        7.915 -10.905   0.790  0.00  0.00    +0.025 A 
ATOM     14  C   LIG    1        6.571 -10.598   0.863  0.00  0.00    +0.007 A 
BRANCH  12  15
ATOM     15  N   LIG    1        9.884 -11.372  -0.526  0.00  0.00    -0.221 N 
ATOM     16  H   LIG    1       10.314 -11.485  -1.405  0.00  0.00    +0.173 HD
BRANCH  15  17
ATOM     17  S   LIG    1       10.774 -11.543   0.859  0.00  0.00    +0.040 S 
ATOM     18  C   LIG    1       12.453 -11.930   0.290  0.00  0.00    +0.218 C 
ATOM     19  O   LIG    1       10.209 -12.668   1.517  0.00  0.00    -0.155 OA
ATOM     20  O   LIG    1       10.748 -10.259   1.468  0.00  0.00    -0.155 OA
ENDBRANCH  15  17
ENDBRANCH  12  15
ENDBRANCH   8   9
ENDBRANCH   6   8
ENDBRANCH   4   6
ENDBRANCH   2   4
ENDBRANCH   1   2
BRANCH   1  21
ATOM     21  C   LIG    1        1.538  -4.705  -0.107  0.00  0.00    +0.048 C 
BRANCH  21  22
ATOM     22  C   LIG    1        0.147  -4.103   0.095  0.00  0.00    +0.043 C 
BRANCH  22  27
ATOM     23  C   LIG    1        0.575   1.645   0.508  0.00  0.00    +0.044 C 
ATOM     24  C   LIG    1        0.464   0.146   0.400  0.00  0.00    -0.048 A 
ATOM     25  C   LIG    1        0.158  -0.439  -0.815  0.00  0.00    +0.004 A 
ATOM     26  C   LIG    1        0.055  -1.813  -0.914  0.00  0.00    +0.004 A 
ATOM     27  C   LIG    1        0.259  -2.604   0.202  0.00  0.00    -0.047 A 
ATOM     28  C   LIG    1        0.566  -2.019   1.416  0.00  0.00    +0.007 A 
ATOM     29  C   LIG    1        0.673  -0.644   1.514  0.00  0.00    -0.047 A 
ATOM     30  C   LIG    1        1.012  -0.007   2.837  0.00  0.00    +0.044 C 
ENDBRANCH  22  27
ENDBRANCH  21  22
BRANCH  21  31
ATOM     31  C   LIG    1        2.100  -4.251  -1.456  0.00  0.00    +0.237 C 
BRANCH  31  32
ATOM     32  O   LIG    1        3.449  -4.705  -1.587  0.00  0.00    -0.464 OA
BRANCH  32  33
ATOM     33  C   LIG    1        4.080  -4.417  -2.736  0.00  0.00    +0.313 C 
ATOM     34  O   LIG    1        3.538  -3.724  -3.565  0.00  0.00    -0.250 OA
BRANCH  33  35
ATOM     35  C   LIG    1        5.463  -4.957  -2.993  0.00  0.00    +0.059 C 
ATOM     36  C   LIG    1        5.404  -6.483  -3.096  0.00  0.00    +0.022 C 
ATOM     37  C   LIG    1        6.387  -4.560  -1.840  0.00  0.00    +0.022 C 
ATOM     38  C   LIG    1        6.002  -4.378  -4.302  0.00  0.00    +0.022 C 
ENDBRANCH  33  35
ENDBRANCH  32  33
ENDBRANCH  31  32
ENDBRANCH  21  31
ENDBRANCH   1  21
TORSDOF 14
