REMARK  Name = ZINC03870311
REMARK                            x       y       z     vdW  Elec       q    Type
REMARK                         _______ _______ _______ _____ _____    ______ ____
ROOT
ATOM      1  C   LIG    1        1.348  -2.725  -2.251  0.00  0.00    -0.064 C 
ATOM      2  C   LIG    1        2.804  -2.256  -2.154  0.00  0.00    -0.010 C 
ATOM      3  C   LIG    1        3.565  -2.792  -3.364  0.00  0.00    +0.034 C 
ATOM      4  C   LIG    1        3.345  -4.275  -3.514  0.00  0.00    -0.044 A 
ATOM      5  C   LIG    1        4.239  -4.984  -4.307  0.00  0.00    +0.007 A 
ATOM      6  C   LIG    1        4.091  -6.342  -4.490  0.00  0.00    +0.045 A 
ATOM      7  C   LIG    1        3.039  -7.008  -3.877  0.00  0.00    +0.117 A 
ATOM      8  C   LIG    1        2.151  -6.302  -3.085  0.00  0.00    +0.049 A 
ATOM      9  C   LIG    1        2.304  -4.935  -2.900  0.00  0.00    -0.042 A 
ATOM     10  C   LIG    1        1.309  -4.233  -2.013  0.00  0.00    +0.020 C 
ENDROOT
BRANCH   1  11
ATOM     11  N   LIG    1        0.539  -2.042  -1.233  0.00  0.00    +0.382 N 
ATOM     12  H   LIG    1        0.907  -2.249  -0.316  0.00  0.00    -0.081 HD
BRANCH  11  13
ATOM     13  C   LIG    1        0.585  -0.592  -1.462  0.00  0.00    -0.079 C 
BRANCH  13  15
ATOM     14  C   LIG    1        0.134   1.226  -3.116  0.00  0.00    +0.002 C 
ATOM     15  C   LIG    1        0.134  -0.287  -2.892  0.00  0.00    -0.022 C 
ENDBRANCH  13  15
ENDBRANCH  11  13
BRANCH  11  16
ATOM     16  C   LIG    1       -0.851  -2.508  -1.318  0.00  0.00    -0.079 C 
BRANCH  16  17
ATOM     17  C   LIG    1       -1.668  -1.888  -0.182  0.00  0.00    -0.022 C 
ATOM     18  C   LIG    1       -3.078  -2.481  -0.185  0.00  0.00    +0.002 C 
ENDBRANCH  16  17
ENDBRANCH  11  16
ENDBRANCH   1  11
BRANCH   7  19
ATOM     19  O   LIG    1        2.883  -8.346  -4.054  0.00  0.00    -0.507 OA
ATOM     20  H   LIG    1        3.346  -8.887  -3.400  0.00  0.00    +0.292 HD
ENDBRANCH   7  19
TORSDOF 6
