REMARK  Name = ZINC03828610
REMARK                            x       y       z     vdW  Elec       q    Type
REMARK                         _______ _______ _______ _____ _____    ______ ____
ROOT
ATOM      1  C   LIG    1        2.578  -4.612   8.922  0.00  0.00    +0.018 C 
ENDROOT
BRANCH   1  10
ATOM      2  C   LIG    1        0.308  -7.042  12.637  0.00  0.00    +0.037 A 
ATOM      3  C   LIG    1        0.139  -5.756  12.121  0.00  0.00    +0.013 A 
ATOM      4  C   LIG    1        1.106  -5.215  11.303  0.00  0.00    +0.007 A 
ATOM      5  C   LIG    1        2.248  -5.939  10.988  0.00  0.00    -0.016 A 
ATOM      6  C   LIG    1        2.419  -7.213  11.493  0.00  0.00    -0.039 A 
ATOM      7  C   LIG    1        3.645  -8.028  11.166  0.00  0.00    +0.063 C 
ATOM      8  C   LIG    1        4.742  -7.115  10.616  0.00  0.00    +0.165 C 
ATOM      9  O   LIG    1        4.175  -6.294   9.588  0.00  0.00    -0.372 OA
ATOM     10  C   LIG    1        3.280  -5.303  10.092  0.00  0.00    +0.147 C 
ATOM     11  C   LIG    1        1.455  -7.766  12.317  0.00  0.00    +0.017 A 
BRANCH   2  15
ATOM     12  C   LIG    1       -2.853  -7.513  14.695  0.00  0.00    +0.128 C 
ATOM     13  N   LIG    1       -1.831  -6.928  13.823  0.00  0.00    -0.314 N 
ATOM     14  H   LIG    1       -1.952  -6.034  13.467  0.00  0.00    +0.149 HD
ATOM     15  C   LIG    1       -0.724  -7.632  13.517  0.00  0.00    +0.244 C 
ATOM     16  O   LIG    1       -0.572  -8.752  13.964  0.00  0.00    -0.270 OA
ENDBRANCH   2  15
ENDBRANCH   1  10
BRANCH   1  17
ATOM     17  C   LIG    1        3.608  -3.844   8.091  0.00  0.00    -0.076 C 
BRANCH  17  18
ATOM     18  N   LIG    1        2.913  -3.165   6.977  0.00  0.00    +0.382 N 
ATOM     19  H   LIG    1        2.127  -2.623   7.355  0.00  0.00    -0.082 HD
ATOM     20  C   LIG    1        2.392  -4.165   6.022  0.00  0.00    -0.060 C 
ATOM     21  C   LIG    1        1.632  -3.438   4.911  0.00  0.00    +0.086 C 
ATOM     22  N   LIG    1        2.539  -2.503   4.231  0.00  0.00    -0.333 N 
ATOM     23  C   LIG    1        3.082  -1.517   5.176  0.00  0.00    +0.086 C 
ATOM     24  C   LIG    1        3.842  -2.245   6.287  0.00  0.00    -0.060 C 
BRANCH  22  25
ATOM     25  C   LIG    1        1.897  -1.870   3.160  0.00  0.00    +0.030 A 
ATOM     26  C   LIG    1        1.315  -2.629   2.153  0.00  0.00    +0.027 A 
ATOM     27  C   LIG    1        0.682  -2.004   1.097  0.00  0.00    +0.047 A 
ATOM     28  C   LIG    1        0.626  -0.619   1.042  0.00  0.00    +0.120 A 
ATOM     29  C   LIG    1        1.212   0.140   2.045  0.00  0.00    +0.047 A 
ATOM     30  C   LIG    1        1.842  -0.484   3.104  0.00  0.00    +0.027 A 
BRANCH  28  31
ATOM     31  O   LIG    1        0.002  -0.004   0.002  0.00  0.00    -0.495 OA
ATOM     32  C   LIG    1       -0.017   1.425   0.010  0.00  0.00    +0.277 C 
ENDBRANCH  28  31
ENDBRANCH  22  25
ENDBRANCH  17  18
ENDBRANCH   1  17
TORSDOF 6
