REMARK  Name = ZINC03872335
REMARK                            x       y       z     vdW  Elec       q    Type
REMARK                         _______ _______ _______ _____ _____    ______ ____
ROOT
ATOM      1  C   LIG    1        4.171  -0.963   1.399  0.00  0.00    +0.089 C 
ENDROOT
BRANCH   1   2
ATOM      2  C   LIG    1        5.543  -1.588   1.383  0.00  0.00    +0.218 C 
ATOM      3  N   LIG    1        6.152  -1.904   2.543  0.00  0.00    -0.305 N 
ATOM      4  H   LIG    1        5.709  -1.729   3.388  0.00  0.00    +0.149 HD
ATOM      5  O   LIG    1        6.097  -1.807   0.327  0.00  0.00    -0.275 OA
BRANCH   3   6
ATOM      6  C   LIG    1        7.486  -2.512   2.528  0.00  0.00    +0.224 C 
BRANCH   6   7
ATOM      7  C   LIG    1        7.939  -2.764   3.942  0.00  0.00    +0.322 C 
ATOM      8  O   LIG    1        7.215  -2.464   4.877  0.00  0.00    -0.249 OA
BRANCH   7   9
ATOM      9  O   LIG    1        9.029  -3.268   4.153  0.00  0.00    -0.480 OA
ATOM     10  H   LIG    1        9.585  -3.499   3.435  0.00  0.00    +0.295 HD
ENDBRANCH   7   9
ENDBRANCH   6   7
ENDBRANCH   3   6
ENDBRANCH   1   2
BRANCH   1  11
ATOM     11  C   LIG    1        3.711  -0.707  -0.038  0.00  0.00    +0.048 C 
BRANCH  11  15
ATOM     12  C   LIG    1       -0.017   1.378   0.010  0.00  0.00    +0.000 A 
ATOM     13  C   LIG    1        1.171   2.086   0.002  0.00  0.00    +0.000 A 
ATOM     14  C   LIG    1        2.377   1.411  -0.013  0.00  0.00    +0.003 A 
ATOM     15  C   LIG    1        2.396   0.029  -0.020  0.00  0.00    -0.047 A 
ATOM     16  C   LIG    1        1.208  -0.679  -0.012  0.00  0.00    +0.003 A 
ATOM     17  C   LIG    1        0.002  -0.004   0.002  0.00  0.00    +0.000 A 
ENDBRANCH  11  15
ENDBRANCH   1  11
BRANCH   1  18
ATOM     18  C   LIG    1        3.187  -1.910   2.089  0.00  0.00    +0.078 C 
BRANCH  18  19
ATOM     19  S   LIG    1        3.649  -2.097   3.833  0.00  0.00    -0.177 S 
ATOM     20  H   LIG    1        2.724  -2.940   4.326  0.00  0.00    +0.102 HD
ENDBRANCH  18  19
ENDBRANCH   1  18
TORSDOF 8
