REMARK  Name = ZINC03831050
REMARK                            x       y       z     vdW  Elec       q    Type
REMARK                         _______ _______ _______ _____ _____    ______ ____
ROOT
ATOM      1  C   LIG    1       -0.393   1.647   0.125  0.00  0.00    +0.050 C 
ATOM      2  C   LIG    1       -0.210   0.129   0.083  0.00  0.00    +0.157 C 
ENDROOT
BRANCH   2   3
ATOM      3  O   LIG    1        0.628  -0.220  -1.021  0.00  0.00    -0.464 OA
BRANCH   3   4
ATOM      4  C   LIG    1        1.949  -0.272  -0.790  0.00  0.00    +0.304 C 
ATOM      5  C   LIG    1        2.896  -0.632  -1.906  0.00  0.00    +0.136 C 
ATOM      6  O   LIG    1        2.380  -0.029   0.313  0.00  0.00    -0.251 OA
ENDBRANCH   3   4
ENDBRANCH   2   3
BRANCH   2   7
ATOM      7  C   LIG    1       -1.574  -0.545  -0.080  0.00  0.00    -0.031 C 
BRANCH   7   8
ATOM      8  N   LIG    1       -1.413  -2.002   0.005  0.00  0.00    +0.377 N 
ATOM      9  C   LIG    1       -0.623  -2.475  -1.140  0.00  0.00    -0.093 C 
ATOM     10  C   LIG    1       -2.735  -2.643  -0.015  0.00  0.00    -0.093 C 
ATOM     11  C   LIG    1       -0.721  -2.347   1.254  0.00  0.00    -0.093 C 
ENDBRANCH   7   8
ENDBRANCH   2   7
TORSDOF 4
