REMARK  Name = ZINC03813003
REMARK                            x       y       z     vdW  Elec       q    Type
REMARK                         _______ _______ _______ _____ _____    ______ ____
ROOT
ATOM      1  C   LIG    1        2.424   3.937   0.001  0.00  0.00    +0.076 C 
ATOM      2  N   LIG    1        2.349   5.217  -0.097  0.00  0.00    -0.273 NA
ATOM      3  C   LIG    1        3.543   6.061  -0.116  0.00  0.00    +0.238 C 
ATOM      4  C   LIG    1        4.343   5.739  -1.349  0.00  0.00    +0.239 C 
ATOM      5  N   LIG    1        4.878   4.535  -1.540  0.00  0.00    -0.283 N 
ATOM      6  H   LIG    1        5.347   4.382  -2.376  0.00  0.00    +0.155 HD
ATOM      7  C   LIG    1        4.817   3.483  -0.640  0.00  0.00    +0.043 A 
ATOM      8  C   LIG    1        5.966   2.706  -0.483  0.00  0.00    +0.026 A 
ATOM      9  C   LIG    1        5.981   1.640   0.390  0.00  0.00    +0.034 A 
ATOM     10  C   LIG    1        4.848   1.328   1.123  0.00  0.00    +0.122 A 
ATOM     11  C   LIG    1        3.707   2.083   0.982  0.00  0.00    +0.044 A 
ATOM     12  O   LIG    1        4.504   6.598  -2.189  0.00  0.00    -0.273 OA
ATOM     13  C   LIG    1        3.677   3.172   0.099  0.00  0.00    +0.024 A 
ENDROOT
BRANCH   1  19
ATOM     14  C   LIG    1       -0.926   2.609   1.066  0.00  0.00    +0.001 A 
ATOM     15  C   LIG    1       -1.219   1.746   0.025  0.00  0.00    +0.001 A 
ATOM     16  C   LIG    1       -0.336   1.600  -1.029  0.00  0.00    +0.020 A 
ATOM     17  C   LIG    1        0.850   2.308  -1.043  0.00  0.00    +0.050 A 
ATOM     18 CL   LIG    1        1.962   2.118  -2.363  0.00  0.00    -0.083 Cl
ATOM     19  C   LIG    1        1.154   3.175   0.008  0.00  0.00    +0.019 A 
ATOM     20  C   LIG    1        0.255   3.321   1.065  0.00  0.00    +0.011 A 
ENDBRANCH   1  19
BRANCH  10  21
ATOM     21  N   LIG    1        4.866   0.181   2.059  0.00  0.00    +0.006 N 
ATOM     22  O   LIG    1        3.871  -0.093   2.705  0.00  0.00    -0.130 OA
BRANCH  21  23
ATOM     23  O   LIG    1        5.877  -0.487   2.184  0.00  0.00    -0.396 OA
ATOM     24  H   LIG    1        6.643  -0.276   1.687  0.00  0.00    +0.329 HD
ENDBRANCH  21  23
ENDBRANCH  10  21
TORSDOF 3
