REMARK  Name = ZINC03819448
REMARK                            x       y       z     vdW  Elec       q    Type
REMARK                         _______ _______ _______ _____ _____    ______ ____
ROOT
ATOM      1  C   LIG    1       -1.234   1.168   0.063  0.00  0.00    +0.071 C 
ATOM      2  C   LIG    1       -0.521  -0.159   0.024  0.00  0.00    +0.102 A 
ATOM      3  C   LIG    1       -0.033  -0.800  -1.130  0.00  0.00    +0.106 A 
ATOM      4  C   LIG    1        0.545  -1.975  -0.744  0.00  0.00    +0.189 A 
ATOM      5  O   LIG    1        0.424  -2.068   0.596  0.00  0.00    -0.352 OA
ATOM      6  N   LIG    1       -0.246  -0.909   1.055  0.00  0.00    -0.081 NA
ENDROOT
BRANCH   4   7
ATOM      7  C   LIG    1        1.185  -2.965  -1.633  0.00  0.00    +0.022 A 
ATOM      8  C   LIG    1        1.287  -2.715  -3.003  0.00  0.00    +0.012 A 
ATOM      9  C   LIG    1        1.887  -3.644  -3.828  0.00  0.00    +0.005 A 
ATOM     10  C   LIG    1        2.387  -4.822  -3.300  0.00  0.00    -0.038 A 
ATOM     11  C   LIG    1        2.290  -5.076  -1.943  0.00  0.00    +0.005 A 
ATOM     12  C   LIG    1        1.697  -4.153  -1.107  0.00  0.00    +0.012 A 
BRANCH  10  13
ATOM     13  C   LIG    1        3.041  -5.832  -4.207  0.00  0.00    +0.104 C 
BRANCH  13  14
ATOM     14  S   LIG    1        4.817  -5.482  -4.321  0.00  0.00    -0.156 S 
BRANCH  14  15
ATOM     15  C   LIG    1        5.447  -6.769  -5.434  0.00  0.00    +0.080 C 
BRANCH  15  16
ATOM     16  C   LIG    1        6.955  -6.589  -5.620  0.00  0.00    +0.131 C 
BRANCH  16  17
ATOM     17  C   LIG    1        7.479  -7.659  -6.543  0.00  0.00    +0.305 C 
ATOM     18  O   LIG    1        6.716  -8.488  -7.010  0.00  0.00    -0.251 OA
BRANCH  17  19
ATOM     19  O   LIG    1        8.664  -7.694  -6.824  0.00  0.00    -0.481 OA
ATOM     20  H   LIG    1        9.250  -7.057  -6.466  0.00  0.00    +0.295 HD
ENDBRANCH  17  19
ENDBRANCH  16  17
ENDBRANCH  15  16
ENDBRANCH  14  15
ENDBRANCH  13  14
ENDBRANCH  10  13
ENDBRANCH   4   7
BRANCH   3  21
ATOM     21  N   LIG    1       -0.123  -0.316  -2.445  0.00  0.00    -0.246 N 
ATOM     22  H   LIG    1       -0.472  -0.885  -3.148  0.00  0.00    +0.158 HD
ATOM     23  C   LIG    1        0.274   0.940  -2.730  0.00  0.00    +0.405 C 
ATOM     24  O   LIG    1        0.614   1.688  -1.834  0.00  0.00    -0.226 OA
BRANCH  23  25
ATOM     25  O   LIG    1        0.296   1.366  -4.007  0.00  0.00    -0.442 OA
BRANCH  25  26
ATOM     26  C   LIG    1        0.729   2.709  -4.236  0.00  0.00    +0.207 C 
ATOM     27  C   LIG    1       -0.477   3.649  -4.187  0.00  0.00    +0.057 C 
BRANCH  26  28
ATOM     28  C   LIG    1        1.384   2.802  -5.590  0.00  0.00    +0.011 A 
ATOM     29  C   LIG    1        1.050   1.899  -6.582  0.00  0.00    +0.008 A 
ATOM     30  C   LIG    1        1.651   1.984  -7.824  0.00  0.00    +0.000 A 
ATOM     31  C   LIG    1        2.585   2.972  -8.075  0.00  0.00    +0.001 A 
ATOM     32  C   LIG    1        2.919   3.875  -7.084  0.00  0.00    +0.020 A 
ATOM     33  C   LIG    1        2.314   3.794  -5.842  0.00  0.00    +0.048 A 
ATOM     34 CL   LIG    1        2.728   4.932  -4.598  0.00  0.00    -0.083 Cl
ENDBRANCH  26  28
ENDBRANCH  25  26
ENDBRANCH  23  25
ENDBRANCH   3  21
TORSDOF 11
