REMARK  Name = ZINC03815700
REMARK                            x       y       z     vdW  Elec       q    Type
REMARK                         _______ _______ _______ _____ _____    ______ ____
ROOT
ATOM      1  C   LIG    1       -5.845  -1.423   0.049  0.00  0.00    +0.139 A 
ATOM      2  N   LIG    1       -6.619  -1.641  -1.055  0.00  0.00    -0.337 N 
ATOM      3  C   LIG    1       -7.825  -2.131  -0.616  0.00  0.00    +0.074 A 
ATOM      4  C   LIG    1       -7.742  -2.195   0.766  0.00  0.00    +0.097 A 
ATOM      5  H   LIG    1       -6.364  -1.481  -1.977  0.00  0.00    +0.167 HD
ATOM      6  N   LIG    1       -6.522  -1.761   1.122  0.00  0.00    -0.227 NA
ENDROOT
BRANCH   3   7
ATOM      7  C   LIG    1       -8.981  -2.513  -1.450  0.00  0.00    +0.001 A 
ATOM      8  C   LIG    1      -10.263  -2.067  -1.119  0.00  0.00    +0.013 A 
ATOM      9  C   LIG    1      -11.339  -2.426  -1.903  0.00  0.00    +0.039 A 
ATOM     10  C   LIG    1      -11.151  -3.230  -3.016  0.00  0.00    +0.123 A 
ATOM     11  F   LIG    1      -12.209  -3.580  -3.780  0.00  0.00    -0.205 F 
ATOM     12  C   LIG    1       -9.882  -3.676  -3.350  0.00  0.00    +0.039 A 
ATOM     13  C   LIG    1       -8.797  -3.317  -2.578  0.00  0.00    +0.013 A 
ENDBRANCH   3   7
BRANCH   1  17
ATOM     14  C   LIG    1       -1.875   0.087   0.015  0.00  0.00    +0.039 A 
ATOM     15  C   LIG    1       -2.481  -0.232   1.218  0.00  0.00    +0.018 A 
ATOM     16  C   LIG    1       -3.770  -0.723   1.236  0.00  0.00    +0.012 A 
ATOM     17  C   LIG    1       -4.463  -0.897   0.037  0.00  0.00    +0.017 A 
ATOM     18  C   LIG    1       -3.847  -0.573  -1.172  0.00  0.00    +0.012 A 
ATOM     19  C   LIG    1       -2.559  -0.079  -1.176  0.00  0.00    +0.018 A 
BRANCH  14  21
ATOM     20  C   LIG    1       -0.442   2.511   0.127  0.00  0.00    +0.127 C 
ATOM     21  S   LIG    1       -0.229   0.714   0.001  0.00  0.00    +0.051 S 
ATOM     22  O   LIG    1        0.338   0.218   1.207  0.00  0.00    -0.252 OA
ENDBRANCH  14  21
ENDBRANCH   1  17
BRANCH   4  23
ATOM     23  C   LIG    1       -8.805  -2.662   1.684  0.00  0.00    +0.005 A 
ATOM     24  C   LIG    1       -9.568  -3.796   1.382  0.00  0.00    +0.030 A 
ATOM     25  C   LIG    1      -10.548  -4.197   2.266  0.00  0.00    +0.111 A 
ATOM     26  N   LIG    1      -10.770  -3.527   3.381  0.00  0.00    -0.263 NA
ATOM     27  C   LIG    1      -10.073  -2.454   3.704  0.00  0.00    +0.111 A 
ATOM     28  C   LIG    1       -9.071  -1.986   2.880  0.00  0.00    +0.030 A 
ENDBRANCH   4  23
TORSDOF 4
