REMARK  Name = ZINC03649803
REMARK                            x       y       z     vdW  Elec       q    Type
REMARK                         _______ _______ _______ _____ _____    ______ ____
ROOT
ATOM      1  C   LIG    1       -0.305   1.906   0.081  0.00  0.00    +0.008 C 
ATOM      2  C   LIG    1       -0.358   0.407  -0.066  0.00  0.00    -0.007 C 
ATOM      3  C   LIG    1       -0.475  -0.170  -1.294  0.00  0.00    +0.038 C 
ATOM      4  C   LIG    1       -0.522  -1.567  -1.407  0.00  0.00    +0.125 C 
ATOM      5  N   LIG    1       -0.458  -2.347  -0.348  0.00  0.00    -0.298 NA
ATOM      6  H   LIG    1       -0.494  -3.309  -0.463  0.00  0.00    +0.124 HD
ATOM      7  C   LIG    1       -0.343  -1.837   0.884  0.00  0.00    +0.059 C 
ATOM      8  C   LIG    1       -0.276  -2.678   2.008  0.00  0.00    +0.021 C 
ATOM      9  C   LIG    1       -0.143  -2.142   3.251  0.00  0.00    +0.024 C 
ATOM     10  C   LIG    1       -0.089  -0.756   3.436  0.00  0.00    +0.073 C 
ATOM     11  C   LIG    1       -0.159   0.097   2.357  0.00  0.00    +0.027 C 
ATOM     12  C   LIG    1       -0.284  -0.433   1.064  0.00  0.00    +0.011 C 
ENDROOT
BRANCH   4  13
ATOM     13  N   LIG    1       -0.641  -2.141  -2.665  0.00  0.00    -0.283 NA
ATOM     14  C   LIG    1       -0.827  -1.308  -3.864  0.00  0.00    +0.114 C 
ATOM     15  C   LIG    1        0.204  -1.735  -4.915  0.00  0.00    +0.175 C 
ATOM     16  O   LIG    1        0.123  -3.150  -5.106  0.00  0.00    -0.377 OA
ATOM     17  C   LIG    1        0.436  -3.917  -3.941  0.00  0.00    +0.175 C 
ATOM     18  C   LIG    1       -0.578  -3.601  -2.840  0.00  0.00    +0.114 C 
ENDBRANCH   4  13
BRANCH  10  19
ATOM     19  N   LIG    1        0.036  -0.233   4.728  0.00  0.00    -0.312 N 
ATOM     20  H   LIG    1       -0.402   0.602   4.958  0.00  0.00    +0.149 HD
ATOM     21  C   LIG    1        0.766  -0.887   5.652  0.00  0.00    +0.216 C 
ATOM     22  O   LIG    1        1.394  -1.877   5.340  0.00  0.00    -0.276 OA
BRANCH  21  23
ATOM     23  C   LIG    1        0.802  -0.390   7.075  0.00  0.00    +0.075 C 
ATOM     24  C   LIG    1        1.361   1.034   7.103  0.00  0.00    +0.013 C 
ATOM     25  C   LIG    1        1.397   1.539   8.547  0.00  0.00    +0.001 C 
ATOM     26  C   LIG    1        2.292   0.623   9.385  0.00  0.00    +0.000 C 
ATOM     27  C   LIG    1        1.733  -0.801   9.357  0.00  0.00    +0.001 C 
ATOM     28  C   LIG    1        1.696  -1.306   7.913  0.00  0.00    +0.013 C 
ENDBRANCH  21  23
ENDBRANCH  10  19
TORSDOF 3
