REMARK  Name = ZINC03870795
REMARK                            x       y       z     vdW  Elec       q    Type
REMARK                         _______ _______ _______ _____ _____    ______ ____
ROOT
ATOM      1  C   LIG    1       -0.019   1.526   0.010  0.00  0.00    +0.000 C 
ATOM      2  C   LIG    1        1.416   2.056  -0.000  0.00  0.00    +0.000 C 
ATOM      3  C   LIG    1        2.245   1.265  -1.015  0.00  0.00    +0.000 C 
ATOM      4  C   LIG    1        1.893   1.726  -2.431  0.00  0.00    +0.006 C 
ATOM      5  C   LIG    1        0.539   1.139  -2.836  0.00  0.00    +0.016 C 
ATOM      6  C   LIG    1        0.478  -0.334  -2.428  0.00  0.00    +0.006 C 
ATOM      7  C   LIG    1       -0.566  -0.515  -1.324  0.00  0.00    +0.000 C 
ATOM      8  C   LIG    1        0.002  -0.004   0.002  0.00  0.00    +0.000 C 
ENDROOT
BRANCH   5   9
ATOM      9  C   LIG    1        0.366   1.256  -4.352  0.00  0.00    +0.100 C 
BRANCH   9  10
ATOM     10  O   LIG    1        0.422   2.632  -4.733  0.00  0.00    -0.393 OA
ATOM     11  H   LIG    1       -0.261   3.181  -4.325  0.00  0.00    +0.210 HD
ENDBRANCH   9  10
BRANCH   9  12
ATOM     12  C   LIG    1       -0.988   0.669  -4.757  0.00  0.00    -0.054 C 
BRANCH  12  13
ATOM     13  N   LIG    1       -1.103   0.671  -6.222  0.00  0.00    +0.380 N 
ATOM     14  H   LIG    1       -0.362   0.113  -6.619  0.00  0.00    -0.090 HD
ATOM     15  H   LIG    1       -1.031   1.618  -6.563  0.00  0.00    -0.090 HD
ATOM     16  H   LIG    1       -1.996   0.284  -6.489  0.00  0.00    -0.090 HD
ENDBRANCH  12  13
ENDBRANCH   9  12
ENDBRANCH   5   9
TORSDOF 4
