REMARK  Name = ZINC03870307
REMARK                            x       y       z     vdW  Elec       q    Type
REMARK                         _______ _______ _______ _____ _____    ______ ____
ROOT
ATOM      1  C   LIG    1        0.707  -0.490  -1.238  0.00  0.00    -0.042 A 
ATOM      2  C   LIG    1        2.025  -0.904  -1.166  0.00  0.00    +0.003 A 
ATOM      3  C   LIG    1        2.672  -1.350  -2.303  0.00  0.00    +0.002 A 
ATOM      4  C   LIG    1        2.004  -1.382  -3.513  0.00  0.00    +0.021 A 
ATOM      5  C   LIG    1        0.686  -0.968  -3.586  0.00  0.00    +0.059 A 
ATOM      6 CL   LIG    1       -0.153  -1.008  -5.105  0.00  0.00    -0.082 Cl
ATOM      7  C   LIG    1        0.035  -0.527  -2.446  0.00  0.00    +0.061 A 
ATOM      8 CL   LIG    1       -1.621  -0.014  -2.535  0.00  0.00    -0.082 Cl
ENDROOT
BRANCH   1  10
ATOM      9  C   LIG    1       -0.019   1.526   0.010  0.00  0.00    -0.009 C 
ATOM     10  C   LIG    1        0.002  -0.004   0.002  0.00  0.00    -0.046 C 
BRANCH  10  11
ATOM     11  N   LIG    1        0.713  -0.491   1.192  0.00  0.00    +0.382 N 
ATOM     12  H   LIG    1        1.659  -0.141   1.185  0.00  0.00    -0.089 HD
ATOM     13  H   LIG    1        0.726  -1.500   1.187  0.00  0.00    -0.089 HD
ATOM     14  H   LIG    1        0.240  -0.165   2.022  0.00  0.00    -0.089 HD
ENDBRANCH  10  11
ENDBRANCH   1  10
TORSDOF 2
