REMARK  Name = ZINC03801006
REMARK                            x       y       z     vdW  Elec       q    Type
REMARK                         _______ _______ _______ _____ _____    ______ ____
ROOT
ATOM      1  C   LIG    1        5.287  -1.588  -1.586  0.00  0.00    +0.121 A 
ATOM      2  C   LIG    1        6.037  -2.002  -0.493  0.00  0.00    +0.046 A 
ATOM      3  C   LIG    1        7.226  -2.672  -0.685  0.00  0.00    +0.017 A 
ATOM      4  C   LIG    1        7.681  -2.926  -1.981  0.00  0.00    +0.039 A 
ATOM      5  C   LIG    1        6.926  -2.505  -3.076  0.00  0.00    +0.017 A 
ATOM      6  C   LIG    1        5.735  -1.839  -2.876  0.00  0.00    +0.046 A 
ENDROOT
BRANCH   4   7
ATOM      7  C   LIG    1        8.958  -3.640  -2.191  0.00  0.00    +0.250 A 
ATOM      8  N   LIG    1        9.743  -4.078  -1.250  0.00  0.00    -0.127 NA
ATOM      9  N   LIG    1       10.844  -4.693  -1.863  0.00  0.00    -0.194 N 
ATOM     10  C   LIG    1       10.659  -4.590  -3.196  0.00  0.00    +0.438 A 
ATOM     11  O   LIG    1       11.406  -5.007  -4.061  0.00  0.00    -0.221 OA
ATOM     12  O   LIG    1        9.496  -3.947  -3.392  0.00  0.00    -0.388 OA
BRANCH   9  13
ATOM     13  C   LIG    1       11.978  -5.328  -1.186  0.00  0.00    +0.165 C 
BRANCH  13  14
ATOM     14  C   LIG    1       13.077  -4.290  -0.950  0.00  0.00    +0.142 C 
BRANCH  14  15
ATOM     15  C   LIG    1       14.217  -4.927  -0.270  0.00  0.00    +0.064 C 
ATOM     16  N   LIG    1       15.096  -5.419   0.255  0.00  0.00    -0.197 NA
ENDBRANCH  14  15
ENDBRANCH  13  14
ENDBRANCH   9  13
ENDBRANCH   4   7
BRANCH   1  17
ATOM     17  O   LIG    1        4.113  -0.932  -1.392  0.00  0.00    -0.487 OA
BRANCH  17  18
ATOM     18  C   LIG    1        3.711  -0.707  -0.039  0.00  0.00    +0.264 C 
BRANCH  18  22
ATOM     19  C   LIG    1       -0.017   1.378   0.010  0.00  0.00    +0.000 A 
ATOM     20  C   LIG    1        1.171   2.086   0.002  0.00  0.00    +0.000 A 
ATOM     21  C   LIG    1        2.377   1.411  -0.014  0.00  0.00    +0.007 A 
ATOM     22  C   LIG    1        2.396   0.029  -0.022  0.00  0.00    -0.010 A 
ATOM     23  C   LIG    1        1.208  -0.679  -0.014  0.00  0.00    +0.007 A 
ATOM     24  C   LIG    1        0.002  -0.004   0.002  0.00  0.00    +0.000 A 
ENDBRANCH  18  22
ENDBRANCH  17  18
ENDBRANCH   1  17
TORSDOF 7
