REMARK  Name = ZINC03786360
REMARK                            x       y       z     vdW  Elec       q    Type
REMARK                         _______ _______ _______ _____ _____    ______ ____
ROOT
ATOM      1  N   LIG    1        0.101   0.027   0.604  0.00  0.00    -0.313 N 
ATOM      2  H   LIG    1       -0.745  -0.447   0.594  0.00  0.00    +0.149 HD
ATOM      3  C   LIG    1        0.123   1.362   0.789  0.00  0.00    +0.251 C 
ATOM      4  O   LIG    1        1.184   1.956   0.801  0.00  0.00    -0.270 OA
ENDROOT
BRANCH   3   5
ATOM      5  C   LIG    1       -1.137   2.101   0.970  0.00  0.00    +0.120 A 
ATOM      6  C   LIG    1       -1.815   2.623  -0.141  0.00  0.00    +0.136 A 
ATOM      7  C   LIG    1       -3.001   3.317   0.041  0.00  0.00    +0.047 A 
ATOM      8  C   LIG    1       -3.515   3.496   1.312  0.00  0.00    +0.021 A 
ATOM      9  C   LIG    1       -2.855   2.985   2.414  0.00  0.00    +0.056 A 
ATOM     10  I   LIG    1       -3.652   3.266   4.331  0.00  0.00    -0.040 I 
ATOM     11  C   LIG    1       -1.670   2.283   2.254  0.00  0.00    +0.146 A 
BRANCH   6  12
ATOM     12  O   LIG    1       -1.312   2.450  -1.389  0.00  0.00    -0.494 OA
ATOM     13  C   LIG    1       -2.058   3.010  -2.472  0.00  0.00    +0.277 C 
ENDBRANCH   6  12
BRANCH  11  14
ATOM     14  O   LIG    1       -1.027   1.778   3.337  0.00  0.00    -0.505 OA
ATOM     15  H   LIG    1       -0.386   2.386   3.732  0.00  0.00    +0.292 HD
ENDBRANCH  11  14
ENDBRANCH   3   5
BRANCH   1  16
ATOM     16  C   LIG    1        1.354  -0.708   0.417  0.00  0.00    +0.089 C 
BRANCH  16  19
ATOM     17  N   LIG    1        2.294  -2.966   0.086  0.00  0.00    +0.382 N 
ATOM     18  H   LIG    1        2.165  -3.534  -0.760  0.00  0.00    -0.081 HD
ATOM     19  C   LIG    1        1.062  -2.208   0.356  0.00  0.00    -0.051 C 
ATOM     20  C   LIG    1        0.521  -2.694   1.718  0.00  0.00    -0.016 C 
ATOM     21  C   LIG    1        1.182  -4.088   1.880  0.00  0.00    -0.020 C 
ATOM     22  C   LIG    1        2.570  -3.853   1.233  0.00  0.00    -0.078 C 
BRANCH  17  24
ATOM     23  C   LIG    1        4.679  -2.835  -0.506  0.00  0.00    -0.017 C 
ATOM     24  C   LIG    1        3.433  -2.034  -0.126  0.00  0.00    -0.082 C 
ENDBRANCH  17  24
ENDBRANCH  16  19
ENDBRANCH   1  16
TORSDOF 6
