REMARK  Name = ZINC03871358
REMARK                            x       y       z     vdW  Elec       q    Type
REMARK                         _______ _______ _______ _____ _____    ______ ____
ROOT
ATOM      1  C   LIG    1       -4.956  -2.616   0.035  0.00  0.00    +0.139 A 
ATOM      2  C   LIG    1       -4.979  -3.976   0.039  0.00  0.00    +0.098 A 
ATOM      3  C   LIG    1       -6.221  -4.652   0.049  0.00  0.00    +0.197 A 
ATOM      4  C   LIG    1       -7.442  -3.828   0.054  0.00  0.00    +0.105 A 
ATOM      5  C   LIG    1       -8.714  -4.413   0.064  0.00  0.00    +0.135 A 
ATOM      6  C   LIG    1       -9.835  -3.605   0.069  0.00  0.00    +0.091 A 
ATOM      7  C   LIG    1       -9.699  -2.221   0.064  0.00  0.00    +0.124 A 
ATOM      8  C   LIG    1       -8.442  -1.635   0.054  0.00  0.00    +0.092 A 
ATOM      9  C   LIG    1       -7.306  -2.429   0.049  0.00  0.00    +0.146 A 
ATOM     10  O   LIG    1       -6.279  -5.872   0.052  0.00  0.00    -0.287 OA
ATOM     11  O   LIG    1       -6.075  -1.875   0.045  0.00  0.00    -0.454 OA
ENDROOT
BRANCH   1  15
ATOM     12  C   LIG    1       -1.199  -0.637   0.010  0.00  0.00    +0.120 A 
ATOM     13  C   LIG    1       -2.373   0.106   0.019  0.00  0.00    +0.046 A 
ATOM     14  C   LIG    1       -3.594  -0.532   0.028  0.00  0.00    +0.015 A 
ATOM     15  C   LIG    1       -3.651  -1.928   0.026  0.00  0.00    +0.018 A 
ATOM     16  C   LIG    1       -2.467  -2.672   0.016  0.00  0.00    +0.015 A 
ATOM     17  C   LIG    1       -1.251  -2.026   0.003  0.00  0.00    +0.046 A 
BRANCH  12  19
ATOM     18  C   LIG    1       -0.017   1.425   0.010  0.00  0.00    +0.277 C 
ATOM     19  O   LIG    1        0.002  -0.004   0.002  0.00  0.00    -0.495 OA
ENDBRANCH  12  19
ENDBRANCH   1  15
BRANCH   5  20
ATOM     20  O   LIG    1       -8.845  -5.764   0.068  0.00  0.00    -0.506 OA
ATOM     21  H   LIG    1       -8.878  -6.154   0.952  0.00  0.00    +0.292 HD
ENDBRANCH   5  20
BRANCH   7  22
ATOM     22  O   LIG    1      -10.806  -1.436   0.069  0.00  0.00    -0.507 OA
ATOM     23  H   LIG    1      -11.121  -1.206   0.954  0.00  0.00    +0.292 HD
ENDBRANCH   7  22
TORSDOF 4
