REMARK  Name = ZINC03666294
REMARK                            x       y       z     vdW  Elec       q    Type
REMARK                         _______ _______ _______ _____ _____    ______ ____
ROOT
ATOM      1  N   LIG    1       -2.667   2.915   4.675  0.00  0.00    -0.244 N 
ATOM      2  C   LIG    1       -2.210   4.141   5.328  0.00  0.00    +0.198 C 
ATOM      3  N   LIG    1       -3.343   4.848   5.938  0.00  0.00    -0.321 N 
ATOM      4  H   LIG    1       -3.429   5.810   5.851  0.00  0.00    +0.148 HD
ATOM      5  C   LIG    1       -4.290   4.112   6.641  0.00  0.00    +0.041 A 
ATOM      6  C   LIG    1       -5.010   4.662   7.688  0.00  0.00    +0.024 A 
ATOM      7  C   LIG    1       -5.948   3.894   8.351  0.00  0.00    +0.002 A 
ATOM      8  C   LIG    1       -6.176   2.580   7.974  0.00  0.00    +0.001 A 
ATOM      9  C   LIG    1       -5.465   2.015   6.936  0.00  0.00    +0.015 A 
ATOM     10  C   LIG    1       -4.511   2.776   6.262  0.00  0.00    +0.058 A 
ATOM     11  C   LIG    1       -3.712   2.215   5.160  0.00  0.00    +0.254 C 
ATOM     12  O   LIG    1       -3.990   1.126   4.694  0.00  0.00    -0.270 OA
ENDROOT
BRANCH   1  16
ATOM     13  C   LIG    1       -0.718   1.573   1.248  0.00  0.00    -0.048 A 
ATOM     14  C   LIG    1       -1.275   2.838   1.274  0.00  0.00    +0.005 A 
ATOM     15  C   LIG    1       -1.927   3.284   2.406  0.00  0.00    +0.024 A 
ATOM     16  C   LIG    1       -2.013   2.464   3.524  0.00  0.00    +0.039 A 
ATOM     17  C   LIG    1       -1.448   1.196   3.497  0.00  0.00    +0.024 A 
ATOM     18  C   LIG    1       -0.802   0.754   2.359  0.00  0.00    +0.005 A 
BRANCH  13  20
ATOM     19  C   LIG    1       -1.016   0.380  -0.906  0.00  0.00    +0.009 C 
ATOM     20  C   LIG    1       -0.012   1.087   0.008  0.00  0.00    +0.032 C 
ENDBRANCH  13  20
ENDBRANCH   1  16
BRANCH   2  21
ATOM     21  C   LIG    1       -1.206   3.793   6.397  0.00  0.00    -0.009 A 
ATOM     22  C   LIG    1       -0.409   2.672   6.256  0.00  0.00    +0.010 A 
ATOM     23  C   LIG    1        0.515   2.353   7.232  0.00  0.00    +0.046 A 
ATOM     24  C   LIG    1        0.636   3.152   8.360  0.00  0.00    +0.121 A 
ATOM     25  C   LIG    1       -0.169   4.274   8.501  0.00  0.00    +0.046 A 
ATOM     26  C   LIG    1       -1.088   4.591   7.520  0.00  0.00    +0.010 A 
BRANCH  24  27
ATOM     27  O   LIG    1        1.540   2.838   9.324  0.00  0.00    -0.492 OA
BRANCH  27  28
ATOM     28  C   LIG    1        2.335   1.669   9.111  0.00  0.00    +0.232 C 
BRANCH  28  29
ATOM     29  C   LIG    1        3.287   1.478  10.294  0.00  0.00    +0.020 C 
ATOM     30  C   LIG    1        4.281   2.640  10.341  0.00  0.00    +0.010 C 
ATOM     31  C   LIG    1        4.049   0.162  10.127  0.00  0.00    +0.010 C 
ENDBRANCH  28  29
ENDBRANCH  27  28
ENDBRANCH  24  27
ENDBRANCH   2  21
TORSDOF 6
