REMARK  Name = ZINC03815899
REMARK                            x       y       z     vdW  Elec       q    Type
REMARK                         _______ _______ _______ _____ _____    ______ ____
ROOT
ATOM      1  C   LIG    1       -0.716  10.032  -0.043  0.00  0.00    +0.163 A 
ATOM      2  C   LIG    1       -0.994   8.676  -0.053  0.00  0.00    +0.075 A 
ATOM      3  C   LIG    1        0.041   7.756   0.043  0.00  0.00    +0.055 A 
ATOM      4  C   LIG    1        1.355   8.196   0.137  0.00  0.00    +0.030 A 
ATOM      5  C   LIG    1        1.633   9.549   0.141  0.00  0.00    +0.051 A 
ATOM      6  C   LIG    1        0.601  10.470   0.051  0.00  0.00    +0.162 A 
ENDROOT
BRANCH   3   7
ATOM      7  N   LIG    1       -0.239   6.383   0.038  0.00  0.00    -0.267 N 
ATOM      8  C   LIG    1       -0.899   5.812   1.083  0.00  0.00    +0.207 A 
ATOM      9  N   LIG    1       -1.186   4.551   1.136  0.00  0.00    -0.236 NA
ATOM     10  C   LIG    1       -0.841   3.683   0.128  0.00  0.00    +0.086 A 
ATOM     11  C   LIG    1       -1.086   2.310   0.043  0.00  0.00    +0.044 A 
ATOM     12  C   LIG    1       -0.658   1.609  -1.046  0.00  0.00    +0.022 A 
ATOM     13  S   LIG    1        0.119   2.869  -2.043  0.00  0.00    -0.081 S 
ATOM     14  C   LIG    1       -0.157   4.249  -0.964  0.00  0.00    +0.103 A 
ATOM     15  C   LIG    1        0.145   5.610  -1.007  0.00  0.00    +0.273 A 
ATOM     16  O   LIG    1        0.738   6.091  -1.958  0.00  0.00    -0.266 OA
BRANCH  12  17
ATOM     17  C   LIG    1       -0.807   0.166  -1.331  0.00  0.00    -0.011 A 
ATOM     18  C   LIG    1       -1.448  -0.668  -0.414  0.00  0.00    +0.010 A 
ATOM     19  C   LIG    1       -1.589  -2.012  -0.689  0.00  0.00    +0.020 A 
ATOM     20  C   LIG    1       -1.085  -2.538  -1.867  0.00  0.00    +0.041 A 
ATOM     21 CL   LIG    1       -1.259  -4.232  -2.202  0.00  0.00    -0.084 Cl
ATOM     22  C   LIG    1       -0.442  -1.716  -2.778  0.00  0.00    +0.020 A 
ATOM     23  C   LIG    1       -0.301  -0.370  -2.517  0.00  0.00    +0.010 A 
ENDBRANCH  12  17
ENDBRANCH   3   7
BRANCH   1  25
ATOM     24  C   LIG    1       -3.057  10.414  -0.225  0.00  0.00    +0.277 C 
ATOM     25  O   LIG    1       -1.729  10.935  -0.131  0.00  0.00    -0.491 OA
ENDBRANCH   1  25
BRANCH   6  26
ATOM     26  O   LIG    1        0.876  11.803   0.055  0.00  0.00    -0.490 OA
BRANCH  26  27
ATOM     27  C   LIG    1        2.251  12.181   0.154  0.00  0.00    +0.211 C 
BRANCH  27  28
ATOM     28  C   LIG    1        2.362  13.707   0.142  0.00  0.00    -0.037 C 
BRANCH  28  29
ATOM     29  N   LIG    1        1.721  14.267   1.370  0.00  0.00    +0.382 N 
ATOM     30  H   LIG    1        0.706  14.124   1.315  0.00  0.00    -0.082 HD
ATOM     31  C   LIG    1        2.013  15.696   1.493  0.00  0.00    -0.079 C 
ATOM     32  C   LIG    1        2.115  15.985   3.002  0.00  0.00    -0.020 C 
ATOM     33  C   LIG    1        1.895  14.618   3.690  0.00  0.00    -0.020 C 
ATOM     34  C   LIG    1        2.252  13.606   2.573  0.00  0.00    -0.079 C 
ENDBRANCH  28  29
ENDBRANCH  27  28
ENDBRANCH  26  27
ENDBRANCH   6  26
TORSDOF 7
