REMARK  Name = ZINC03792127
REMARK                            x       y       z     vdW  Elec       q    Type
REMARK                         _______ _______ _______ _____ _____    ______ ____
ROOT
ATOM      1  C   LIG    1        1.532  -2.285  -2.665  0.00  0.00    +0.078 C 
ATOM      2  C   LIG    1        0.538  -2.357  -3.830  0.00  0.00    +0.027 C 
ATOM      3  C   LIG    1        1.320  -2.619  -5.115  0.00  0.00    +0.037 C 
ATOM      4  C   LIG    1        2.242  -3.797  -4.944  0.00  0.00    -0.041 A 
ATOM      5  C   LIG    1        2.736  -4.405  -6.092  0.00  0.00    +0.004 A 
ATOM      6  C   LIG    1        3.589  -5.485  -6.006  0.00  0.00    +0.004 A 
ATOM      7  C   LIG    1        3.960  -5.970  -4.766  0.00  0.00    +0.046 A 
ATOM      8  C   LIG    1        3.469  -5.370  -3.619  0.00  0.00    +0.124 A 
ATOM      9  C   LIG    1        2.604  -4.281  -3.708  0.00  0.00    -0.001 A 
ATOM     10  C   LIG    1        2.094  -3.684  -2.422  0.00  0.00    +0.061 C 
ENDROOT
BRANCH   1  12
ATOM     11  C   LIG    1        0.707  -0.490  -1.238  0.00  0.00    +0.213 C 
ATOM     12  N   LIG    1        0.847  -1.812  -1.460  0.00  0.00    -0.312 N 
ATOM     13  H   LIG    1        0.493  -2.451  -0.821  0.00  0.00    +0.149 HD
ATOM     14  O   LIG    1        1.150   0.308  -2.036  0.00  0.00    -0.276 OA
BRANCH  11  16
ATOM     15  C   LIG    1       -0.019   1.526   0.010  0.00  0.00    +0.013 C 
ATOM     16  C   LIG    1        0.002  -0.004   0.002  0.00  0.00    +0.092 C 
ENDBRANCH  11  16
ENDBRANCH   1  12
BRANCH   8  17
ATOM     17  O   LIG    1        3.833  -5.846  -2.400  0.00  0.00    -0.495 OA
ATOM     18  C   LIG    1        4.722  -6.965  -2.378  0.00  0.00    +0.277 C 
ENDBRANCH   8  17
TORSDOF 3
