REMARK  Name = ZINC03786562
REMARK                            x       y       z     vdW  Elec       q    Type
REMARK                         _______ _______ _______ _____ _____    ______ ____
ROOT
ATOM      1  C   LIG    1       -5.011  -4.961   3.641  0.00  0.00    -0.006 A 
ATOM      2  C   LIG    1       -5.946  -4.060   4.312  0.00  0.00    +0.005 A 
ATOM      3  C   LIG    1       -6.287  -2.714   4.140  0.00  0.00    +0.030 A 
ATOM      4  C   LIG    1       -7.226  -2.143   4.952  0.00  0.00    +0.042 A 
ATOM      5 CL   LIG    1       -7.648  -0.473   4.738  0.00  0.00    -0.084 Cl
ATOM      6  C   LIG    1       -7.846  -2.889   5.947  0.00  0.00    +0.022 A 
ATOM      7  C   LIG    1       -7.525  -4.216   6.134  0.00  0.00    +0.027 A 
ATOM      8  C   LIG    1       -6.572  -4.819   5.319  0.00  0.00    +0.047 A 
ATOM      9  N   LIG    1       -6.050  -6.092   5.260  0.00  0.00    -0.354 N 
ATOM     10  H   LIG    1       -6.303  -6.826   5.842  0.00  0.00    +0.166 HD
ATOM     11  C   LIG    1       -5.120  -6.168   4.249  0.00  0.00    +0.051 A 
ENDROOT
BRANCH  11  12
ATOM     12  C   LIG    1       -4.354  -7.379   3.884  0.00  0.00    -0.001 A 
ATOM     13  C   LIG    1       -4.205  -7.735   2.543  0.00  0.00    +0.011 A 
ATOM     14  C   LIG    1       -3.489  -8.866   2.208  0.00  0.00    +0.020 A 
ATOM     15  C   LIG    1       -2.920  -9.648   3.199  0.00  0.00    +0.041 A 
ATOM     16 CL   LIG    1       -2.022 -11.070   2.770  0.00  0.00    -0.084 Cl
ATOM     17  C   LIG    1       -3.066  -9.300   4.532  0.00  0.00    +0.020 A 
ATOM     18  C   LIG    1       -3.774  -8.168   4.878  0.00  0.00    +0.011 A 
ENDBRANCH  11  12
BRANCH   1  19
ATOM     19  C   LIG    1       -4.103  -4.616   2.489  0.00  0.00    +0.133 C 
BRANCH  19  21
ATOM     20  N   LIG    1       -4.202  -4.630   0.017  0.00  0.00    -0.301 N 
ATOM     21  C   LIG    1       -4.823  -4.870   1.189  0.00  0.00    +0.220 C 
ATOM     22  O   LIG    1       -5.960  -5.289   1.198  0.00  0.00    -0.275 OA
BRANCH  20  23
ATOM     23  C   LIG    1       -2.827  -4.123   0.007  0.00  0.00    +0.108 C 
BRANCH  23  24
ATOM     24  C   LIG    1       -2.848  -2.593   0.015  0.00  0.00    +0.019 C 
BRANCH  24  25
ATOM     25  C   LIG    1       -1.413  -2.063   0.004  0.00  0.00    +0.002 C 
BRANCH  25  26
ATOM     26  C   LIG    1       -1.433  -0.534   0.013  0.00  0.00    -0.000 C 
BRANCH  26  28
ATOM     27  C   LIG    1       -0.019   1.526   0.010  0.00  0.00    +0.004 C 
ATOM     28  C   LIG    1        0.002  -0.004   0.002  0.00  0.00    -0.003 C 
ENDBRANCH  26  28
ENDBRANCH  25  26
ENDBRANCH  24  25
ENDBRANCH  23  24
ENDBRANCH  20  23
BRANCH  20  29
ATOM     29  C   LIG    1       -4.901  -4.877  -1.246  0.00  0.00    +0.108 C 
BRANCH  29  30
ATOM     30  C   LIG    1       -4.645  -6.316  -1.698  0.00  0.00    +0.019 C 
BRANCH  30  31
ATOM     31  C   LIG    1       -5.375  -6.574  -3.018  0.00  0.00    +0.002 C 
BRANCH  31  32
ATOM     32  C   LIG    1       -5.120  -8.013  -3.469  0.00  0.00    -0.000 C 
BRANCH  32  33
ATOM     33  C   LIG    1       -5.850  -8.271  -4.789  0.00  0.00    -0.003 C 
ATOM     34  C   LIG    1       -5.594  -9.710  -5.241  0.00  0.00    +0.004 C 
ENDBRANCH  32  33
ENDBRANCH  31  32
ENDBRANCH  30  31
ENDBRANCH  29  30
ENDBRANCH  20  29
ENDBRANCH  19  21
ENDBRANCH   1  19
TORSDOF 13
