REMARK  Name = ZINC03801027
REMARK                            x       y       z     vdW  Elec       q    Type
REMARK                         _______ _______ _______ _____ _____    ______ ____
ROOT
ATOM      1  C   LIG    1       -1.275  -0.761  -0.021  0.00  0.00    +0.160 C 
ENDROOT
BRANCH   1   2
ATOM      2  N   LIG    1       -0.230   0.237  -0.264  0.00  0.00    -0.300 N 
ATOM      3  H   LIG    1        0.681  -0.047  -0.435  0.00  0.00    +0.150 HD
ATOM      4  C   LIG    1       -0.536   1.549  -0.250  0.00  0.00    +0.245 C 
ATOM      5  O   LIG    1       -1.679   1.905  -0.041  0.00  0.00    -0.270 OA
BRANCH   4   6
ATOM      6  C   LIG    1        0.518   2.556  -0.495  0.00  0.00    +0.038 A 
ATOM      7  C   LIG    1        1.832   2.150  -0.736  0.00  0.00    +0.014 A 
ATOM      8  C   LIG    1        2.811   3.093  -0.969  0.00  0.00    +0.022 A 
ATOM      9  C   LIG    1        2.495   4.442  -0.954  0.00  0.00    +0.059 A 
ATOM     10 CL   LIG    1        3.734   5.623  -1.242  0.00  0.00    -0.082 Cl
ATOM     11  C   LIG    1        1.193   4.851  -0.711  0.00  0.00    +0.060 A 
ATOM     12 CL   LIG    1        0.806   6.543  -0.695  0.00  0.00    -0.082 Cl
ATOM     13  C   LIG    1        0.204   3.916  -0.482  0.00  0.00    +0.034 A 
ENDBRANCH   4   6
ENDBRANCH   1   2
BRANCH   1  15
ATOM     14  N   LIG    1       -1.766  -3.083  -0.720  0.00  0.00    -0.300 N 
ATOM     15  C   LIG    1       -0.883  -2.066  -0.665  0.00  0.00    +0.236 C 
ATOM     16  O   LIG    1        0.228  -2.201  -1.134  0.00  0.00    -0.274 OA
BRANCH  14  17
ATOM     17  C   LIG    1       -3.143  -2.882  -0.264  0.00  0.00    +0.108 C 
BRANCH  17  18
ATOM     18  C   LIG    1       -3.971  -2.269  -1.396  0.00  0.00    +0.019 C 
BRANCH  18  19
ATOM     19  C   LIG    1       -5.410  -2.059  -0.920  0.00  0.00    +0.001 C 
BRANCH  19  21
ATOM     20  C   LIG    1       -7.675  -1.236  -1.577  0.00  0.00    +0.004 C 
ATOM     21  C   LIG    1       -6.237  -1.446  -2.052  0.00  0.00    -0.003 C 
ENDBRANCH  19  21
ENDBRANCH  18  19
ENDBRANCH  17  18
ENDBRANCH  14  17
BRANCH  14  22
ATOM     22  C   LIG    1       -1.348  -4.389  -1.234  0.00  0.00    +0.110 C 
BRANCH  22  23
ATOM     23  C   LIG    1       -0.821  -5.247  -0.082  0.00  0.00    +0.047 C 
BRANCH  23  24
ATOM     24  C   LIG    1       -0.385  -6.611  -0.620  0.00  0.00    +0.161 C 
BRANCH  24  25
ATOM     25  O   LIG    1        0.108  -7.412   0.456  0.00  0.00    -0.383 OA
ATOM     26  C   LIG    1        0.544  -8.714   0.060  0.00  0.00    +0.193 C 
ENDBRANCH  24  25
ENDBRANCH  23  24
ENDBRANCH  22  23
ENDBRANCH  14  22
ENDBRANCH   1  15
BRANCH   1  27
ATOM     27  C   LIG    1       -1.444  -0.966   1.486  0.00  0.00    +0.043 C 
BRANCH  27  28
ATOM     28  C   LIG    1       -1.936   0.333   2.126  0.00  0.00    +0.123 C 
BRANCH  28  29
ATOM     29  C   LIG    1       -2.102   0.131   3.610  0.00  0.00    +0.305 C 
ATOM     30  O   LIG    1       -1.852  -0.942   4.105  0.00  0.00    -0.251 OA
BRANCH  29  31
ATOM     31  O   LIG    1       -2.527   1.144   4.381  0.00  0.00    -0.481 OA
ATOM     32  H   LIG    1       -2.721   1.976   3.997  0.00  0.00    +0.295 HD
ENDBRANCH  29  31
ENDBRANCH  28  29
ENDBRANCH  27  28
ENDBRANCH   1  27
TORSDOF 15
