REMARK  Name = ZINC03861661
REMARK                            x       y       z     vdW  Elec       q    Type
REMARK                         _______ _______ _______ _____ _____    ______ ____
ROOT
ATOM      1  C   LIG    1        0.001   1.526   0.021  0.00  0.00    +0.012 C 
ATOM      2  C   LIG    1        0.023  -0.004   0.013  0.00  0.00    -0.026 C 
ATOM      3  C   LIG    1       -1.412  -0.535   0.033  0.00  0.00    +0.010 C 
ATOM      4  C   LIG    1       -2.121  -0.047   1.297  0.00  0.00    +0.032 C 
ATOM      5  C   LIG    1       -1.373  -0.556   2.531  0.00  0.00    +0.115 C 
ATOM      6  C   LIG    1        0.061  -0.023   2.512  0.00  0.00    +0.035 C 
ATOM      7  C   LIG    1        0.733  -0.498  -1.248  0.00  0.00    -0.001 C 
ATOM      8  C   LIG    1       -0.043  -0.066  -2.487  0.00  0.00    +0.005 C 
ATOM      9  C   LIG    1        0.692  -0.468  -3.776  0.00  0.00    +0.015 C 
ATOM     10  C   LIG    1        2.069   0.163  -3.727  0.00  0.00    +0.029 C 
ATOM     11  C   LIG    1        1.935   1.670  -3.496  0.00  0.00    +0.019 C 
ATOM     12  C   LIG    1        2.846  -0.448  -2.531  0.00  0.00    +0.006 C 
ATOM     13  C   LIG    1        4.266   0.077  -2.776  0.00  0.00    +0.012 C 
ATOM     14  C   LIG    1        4.412  -0.052  -4.316  0.00  0.00    +0.075 C 
ATOM     15  C   LIG    1        2.975  -0.089  -4.895  0.00  0.00    +0.139 C 
ATOM     16  O   LIG    1        2.650  -0.244  -6.048  0.00  0.00    -0.297 OA
ATOM     17  C   LIG    1        2.171   0.045  -1.265  0.00  0.00    -0.003 C 
ATOM     18  C   LIG    1        2.916  -0.467  -0.031  0.00  0.00    +0.004 C 
ATOM     19  C   LIG    1        2.205   0.021   1.232  0.00  0.00    +0.004 C 
ATOM     20  C   LIG    1        0.770  -0.510   1.249  0.00  0.00    -0.002 C 
ENDROOT
BRANCH   5  21
ATOM     21  O   LIG    1       -2.035  -0.100   3.712  0.00  0.00    -0.392 OA
ATOM     22  H   LIG    1       -2.951  -0.401   3.790  0.00  0.00    +0.210 HD
ENDBRANCH   5  21
TORSDOF 1
