REMARK  Name = ZINC03780900
REMARK                            x       y       z     vdW  Elec       q    Type
REMARK                         _______ _______ _______ _____ _____    ______ ____
ROOT
ATOM      1  C   LIG    1       -0.591   2.301  -5.967  0.00  0.00    +0.124 A 
ATOM      2  C   LIG    1       -1.734   3.071  -6.152  0.00  0.00    +0.046 A 
ATOM      3  C   LIG    1       -2.292   3.186  -7.404  0.00  0.00    +0.015 A 
ATOM      4  C   LIG    1       -1.709   2.527  -8.492  0.00  0.00    +0.023 A 
ATOM      5  C   LIG    1       -0.560   1.754  -8.301  0.00  0.00    +0.019 A 
ATOM      6  C   LIG    1       -0.004   1.649  -7.045  0.00  0.00    -0.005 A 
ENDROOT
BRANCH   4   7
ATOM      7  C   LIG    1       -2.304   2.648  -9.836  0.00  0.00    +0.193 C 
ATOM      8  O   LIG    1       -1.589   2.652 -10.819  0.00  0.00    -0.287 OA
BRANCH   7   9
ATOM      9  C   LIG    1       -3.769   2.765  -9.987  0.00  0.00    +0.023 A 
ATOM     10  C   LIG    1       -4.604   2.597  -8.879  0.00  0.00    +0.012 A 
ATOM     11  C   LIG    1       -5.973   2.710  -9.018  0.00  0.00    +0.001 A 
ATOM     12  C   LIG    1       -6.528   2.979 -10.253  0.00  0.00    +0.015 A 
ATOM     13  C   LIG    1       -5.706   3.144 -11.371  0.00  0.00    +0.060 A 
ATOM     14  C   LIG    1       -4.323   3.037 -11.237  0.00  0.00    +0.026 A 
BRANCH  13  15
ATOM     15  C   LIG    1       -6.302   3.432 -12.692  0.00  0.00    +0.337 C 
ATOM     16  O   LIG    1       -5.586   3.575 -13.663  0.00  0.00    -0.245 OA
BRANCH  15  17
ATOM     17  O   LIG    1       -7.639   3.536 -12.820  0.00  0.00    -0.477 OA
ATOM     18  H   LIG    1       -8.191   3.425 -12.071  0.00  0.00    +0.295 HD
ENDBRANCH  15  17
ENDBRANCH  13  15
ENDBRANCH   7   9
ENDBRANCH   4   7
BRANCH   1  19
ATOM     19  O   LIG    1       -0.043   2.190  -4.730  0.00  0.00    -0.492 OA
BRANCH  19  20
ATOM     20  C   LIG    1       -0.693   2.890  -3.667  0.00  0.00    +0.229 C 
BRANCH  20  21
ATOM     21  C   LIG    1        0.063   2.648  -2.360  0.00  0.00    +0.041 C 
BRANCH  21  22
ATOM     22  C   LIG    1       -0.633   3.398  -1.222  0.00  0.00    +0.007 C 
BRANCH  22  23
ATOM     23  C   LIG    1        0.123   3.155   0.086  0.00  0.00    +0.027 C 
BRANCH  23  25
ATOM     24  C   LIG    1       -0.949   3.240   2.293  0.00  0.00    +0.004 C 
ATOM     25  C   LIG    1       -0.562   3.894   1.207  0.00  0.00    -0.026 C 
BRANCH  24  29
ATOM     26  C   LIG    1       -2.881   5.322   5.452  0.00  0.00    +0.120 A 
ATOM     27  C   LIG    1       -2.655   3.957   5.560  0.00  0.00    +0.046 A 
ATOM     28  C   LIG    1       -2.028   3.277   4.537  0.00  0.00    +0.011 A 
ATOM     29  C   LIG    1       -1.621   3.964   3.392  0.00  0.00    -0.025 A 
ATOM     30  C   LIG    1       -1.844   5.338   3.291  0.00  0.00    +0.011 A 
ATOM     31  C   LIG    1       -2.477   6.009   4.315  0.00  0.00    +0.046 A 
BRANCH  26  33
ATOM     32  C   LIG    1       -3.700   7.392   6.286  0.00  0.00    +0.277 C 
ATOM     33  O   LIG    1       -3.499   5.988   6.463  0.00  0.00    -0.495 OA
ENDBRANCH  26  33
ENDBRANCH  24  29
ENDBRANCH  23  25
ENDBRANCH  22  23
ENDBRANCH  21  22
ENDBRANCH  20  21
ENDBRANCH  19  20
ENDBRANCH   1  19
BRANCH   6  34
ATOM     34  C   LIG    1        1.238   0.821  -6.839  0.00  0.00    +0.050 C 
BRANCH  34  35
ATOM     35  C   LIG    1        0.844  -0.587  -6.390  0.00  0.00    +0.125 C 
BRANCH  35  36
ATOM     36  C   LIG    1        2.086  -1.415  -6.184  0.00  0.00    +0.305 C 
ATOM     37  O   LIG    1        3.175  -0.929  -6.377  0.00  0.00    -0.251 OA
BRANCH  36  38
ATOM     38  O   LIG    1        1.983  -2.693  -5.787  0.00  0.00    -0.481 OA
ATOM     39  H   LIG    1        1.138  -3.070  -5.637  0.00  0.00    +0.295 HD
ENDBRANCH  36  38
ENDBRANCH  35  36
ENDBRANCH  34  35
ENDBRANCH   6  34
TORSDOF 16
