REMARK  Name = ZINC03784397
REMARK                            x       y       z     vdW  Elec       q    Type
REMARK                         _______ _______ _______ _____ _____    ______ ____
ROOT
ATOM      1  C   LIG    1       -4.492  -6.351   0.127  0.00  0.00    -0.024 A 
ATOM      2  C   LIG    1       -3.956  -7.006   1.222  0.00  0.00    +0.005 A 
ATOM      3  C   LIG    1       -4.096  -8.376   1.355  0.00  0.00    +0.001 A 
ATOM      4  C   LIG    1       -4.770  -9.100   0.394  0.00  0.00    +0.008 A 
ATOM      5  C   LIG    1       -5.314  -8.446  -0.715  0.00  0.00    -0.025 A 
ATOM      6  C   LIG    1       -5.173  -7.061  -0.839  0.00  0.00    +0.013 A 
ENDROOT
BRANCH   5   7
ATOM      7  C   LIG    1       -6.035  -9.213  -1.746  0.00  0.00    +0.010 C 
ATOM      8  C   LIG    1       -6.172 -10.544  -1.621  0.00  0.00    +0.028 C 
BRANCH   8   9
ATOM      9  C   LIG    1       -6.893 -11.309  -2.651  0.00  0.00    +0.065 A 
ATOM     10  C   LIG    1       -7.032 -12.702  -2.503  0.00  0.00    +0.028 A 
ATOM     11  C   LIG    1       -7.697 -13.421  -3.449  0.00  0.00    +0.012 A 
ATOM     12  C   LIG    1       -8.230 -12.734  -4.560  0.00  0.00    +0.001 A 
ATOM     13  C   LIG    1       -8.926 -13.416  -5.570  0.00  0.00    +0.011 A 
ATOM     14  C   LIG    1       -9.428 -12.722  -6.629  0.00  0.00    +0.021 A 
ATOM     15  C   LIG    1       -9.259 -11.341  -6.724  0.00  0.00    +0.043 A 
ATOM     16 CL   LIG    1       -9.913 -10.493  -8.091  0.00  0.00    -0.083 Cl
ATOM     17  C   LIG    1       -8.588 -10.648  -5.763  0.00  0.00    +0.048 A 
ATOM     18  C   LIG    1       -8.056 -11.330  -4.654  0.00  0.00    +0.073 A 
ATOM     19  N   LIG    1       -7.400 -10.673  -3.694  0.00  0.00    -0.247 NA
ENDBRANCH   8   9
ENDBRANCH   5   7
BRANCH   1  20
ATOM     20  C   LIG    1       -4.334  -4.859  -0.008  0.00  0.00    +0.133 C 
BRANCH  20  21
ATOM     21  S   LIG    1       -2.570  -4.440  -0.072  0.00  0.00    -0.141 S 
BRANCH  21  22
ATOM     22  C   LIG    1       -2.068  -4.912  -1.750  0.00  0.00    +0.080 C 
BRANCH  22  23
ATOM     23  C   LIG    1       -0.615  -4.494  -1.984  0.00  0.00    +0.106 C 
BRANCH  23  26
ATOM     24  C   LIG    1        1.457  -4.996  -5.164  0.00  0.00    +0.131 C 
ATOM     25  N   LIG    1        1.051  -4.615  -3.809  0.00  0.00    -0.308 N 
ATOM     26  C   LIG    1       -0.197  -4.886  -3.378  0.00  0.00    +0.216 C 
ATOM     27  O   LIG    1       -0.985  -5.444  -4.112  0.00  0.00    -0.276 OA
ATOM     28  C   LIG    1        2.002  -3.941  -2.922  0.00  0.00    +0.131 C 
ENDBRANCH  23  26
ENDBRANCH  22  23
ENDBRANCH  21  22
ENDBRANCH  20  21
BRANCH  20  29
ATOM     29  S   LIG    1       -5.099  -4.039   1.417  0.00  0.00    -0.141 S 
BRANCH  29  30
ATOM     30  C   LIG    1       -4.980  -2.272   1.024  0.00  0.00    +0.081 C 
BRANCH  30  31
ATOM     31  C   LIG    1       -5.707  -1.460   2.097  0.00  0.00    +0.131 C 
BRANCH  31  32
ATOM     32  C   LIG    1       -5.609   0.008   1.770  0.00  0.00    +0.305 C 
ATOM     33  O   LIG    1       -5.012   0.371   0.770  0.00  0.00    -0.251 OA
BRANCH  32  34
ATOM     34  O   LIG    1       -6.126   0.832   2.504  0.00  0.00    -0.481 OA
ATOM     35  H   LIG    1       -6.584   0.553   3.272  0.00  0.00    +0.295 HD
ENDBRANCH  32  34
ENDBRANCH  31  32
ENDBRANCH  30  31
ENDBRANCH  29  30
ENDBRANCH  20  29
ENDBRANCH   1  20
TORSDOF 12
