REMARK  Name = ZINC03821385
REMARK                            x       y       z     vdW  Elec       q    Type
REMARK                         _______ _______ _______ _____ _____    ______ ____
ROOT
ATOM      1  C   LIG    1        1.185   1.790   0.000  0.00  0.00    -0.018 A 
ATOM      2  C   LIG    1       -0.013   1.076   0.008  0.00  0.00    +0.012 A 
ATOM      3  C   LIG    1       -1.215   1.750   0.017  0.00  0.00    +0.046 A 
ATOM      4  C   LIG    1       -1.235   3.138   0.031  0.00  0.00    +0.121 A 
ATOM      5  C   LIG    1       -0.044   3.852   0.023  0.00  0.00    +0.046 A 
ATOM      6  C   LIG    1        1.162   3.185   0.008  0.00  0.00    +0.012 A 
ENDROOT
BRANCH   1   9
ATOM      7  C   LIG    1        4.880   1.118  -0.039  0.00  0.00    +0.019 A 
ATOM      8  C   LIG    1        3.677   1.786  -0.024  0.00  0.00    +0.010 A 
ATOM      9  C   LIG    1        2.480   1.069  -0.016  0.00  0.00    -0.018 A 
ATOM     10  C   LIG    1        2.501  -0.326  -0.019  0.00  0.00    +0.010 A 
ATOM     11  C   LIG    1        3.702  -0.997  -0.040  0.00  0.00    +0.019 A 
ATOM     12  C   LIG    1        4.902  -0.280  -0.047  0.00  0.00    +0.052 A 
BRANCH  12  13
ATOM     13  C   LIG    1        6.153  -0.977  -0.063  0.00  0.00    +0.099 C 
ATOM     14  N   LIG    1        7.146  -1.529  -0.075  0.00  0.00    -0.191 NA
ENDBRANCH  12  13
ENDBRANCH   1   9
BRANCH   4  15
ATOM     15  O   LIG    1       -2.422   3.799   0.046  0.00  0.00    -0.492 OA
BRANCH  15  16
ATOM     16  C   LIG    1       -3.608   3.002   0.054  0.00  0.00    +0.229 C 
BRANCH  16  17
ATOM     17  C   LIG    1       -4.835   3.915   0.070  0.00  0.00    +0.041 C 
BRANCH  17  18
ATOM     18  C   LIG    1       -6.106   3.062   0.078  0.00  0.00    +0.003 C 
BRANCH  18  19
ATOM     19  C   LIG    1       -7.333   3.975   0.095  0.00  0.00    +0.001 C 
BRANCH  19  20
ATOM     20  C   LIG    1       -8.603   3.122   0.103  0.00  0.00    +0.009 C 
BRANCH  20  21
ATOM     21  C   LIG    1       -9.831   4.035   0.120  0.00  0.00    +0.098 C 
BRANCH  21  22
ATOM     22  C   LIG    1      -11.082   3.195   0.128  0.00  0.00    +0.235 C 
ATOM     23  N   LIG    1      -12.292   3.788   0.142  0.00  0.00    -0.197 N 
ATOM     24  H   LIG    1      -12.358   4.756   0.148  0.00  0.00    +0.182 HD
ATOM     25  O   LIG    1      -11.000   1.985   0.121  0.00  0.00    -0.274 OA
BRANCH  23  26
ATOM     26  O   LIG    1      -13.467   2.999   0.150  0.00  0.00    -0.295 OA
ATOM     27  H   LIG    1      -14.286   3.513   0.161  0.00  0.00    +0.241 HD
ENDBRANCH  23  26
ENDBRANCH  21  22
ENDBRANCH  20  21
ENDBRANCH  19  20
ENDBRANCH  18  19
ENDBRANCH  17  18
ENDBRANCH  16  17
ENDBRANCH  15  16
ENDBRANCH   4  15
TORSDOF 11
