REMARK  Name = ZINC03824080
REMARK                            x       y       z     vdW  Elec       q    Type
REMARK                         _______ _______ _______ _____ _____    ______ ____
ROOT
ATOM      1  C   LIG    1       -0.686  -7.261  -7.077  0.00  0.00    +0.250 C 
ATOM      2  N   LIG    1       -0.490  -8.389  -6.367  0.00  0.00    -0.297 N 
ATOM      3  C   LIG    1       -0.091  -9.635  -7.035  0.00  0.00    +0.110 C 
ATOM      4  C   LIG    1       -1.074 -10.743  -6.641  0.00  0.00    +0.042 C 
ATOM      5  C   LIG    1       -1.139 -10.841  -5.115  0.00  0.00    +0.088 C 
ATOM      6  C   LIG    1       -1.647  -9.518  -4.538  0.00  0.00    +0.042 C 
ATOM      7  C   LIG    1       -0.665  -8.395  -4.908  0.00  0.00    +0.110 C 
ATOM      8  O   LIG    1       -0.631  -7.290  -8.292  0.00  0.00    -0.270 OA
ENDROOT
BRANCH   5   9
ATOM      9  N   LIG    1       -2.053 -11.922  -4.735  0.00  0.00    -0.234 N 
ATOM     10  C   LIG    1       -1.593 -13.002  -3.973  0.00  0.00    +0.046 A 
ATOM     11  C   LIG    1       -0.383 -12.943  -3.301  0.00  0.00    +0.024 A 
ATOM     12  C   LIG    1        0.041 -14.027  -2.557  0.00  0.00    +0.002 A 
ATOM     13  C   LIG    1       -0.738 -15.167  -2.483  0.00  0.00    +0.000 A 
ATOM     14  C   LIG    1       -1.947 -15.229  -3.154  0.00  0.00    +0.009 A 
ATOM     15  C   LIG    1       -2.374 -14.151  -3.898  0.00  0.00    +0.011 A 
ATOM     16  C   LIG    1       -3.684 -14.190  -4.644  0.00  0.00    +0.271 C 
ATOM     17  O   LIG    1       -4.199 -12.859  -4.743  0.00  0.00    -0.445 OA
ATOM     18  C   LIG    1       -3.348 -11.884  -5.111  0.00  0.00    +0.408 C 
ATOM     19  O   LIG    1       -3.749 -10.962  -5.793  0.00  0.00    -0.226 OA
ENDBRANCH   5   9
BRANCH   1  23
ATOM     20  C   LIG    1       -1.494  -3.603  -5.074  0.00  0.00    +0.124 A 
ATOM     21  C   LIG    1       -0.427  -4.399  -4.668  0.00  0.00    +0.046 A 
ATOM     22  C   LIG    1       -0.162  -5.584  -5.314  0.00  0.00    +0.020 A 
ATOM     23  C   LIG    1       -0.967  -5.992  -6.382  0.00  0.00    +0.079 A 
ATOM     24  C   LIG    1       -2.042  -5.189  -6.790  0.00  0.00    +0.136 A 
ATOM     25  C   LIG    1       -2.302  -4.001  -6.129  0.00  0.00    +0.092 A 
BRANCH  24  26
ATOM     26  O   LIG    1       -2.828  -5.577  -7.826  0.00  0.00    -0.494 OA
ATOM     27  C   LIG    1       -3.904  -4.708  -8.186  0.00  0.00    +0.277 C 
ENDBRANCH  24  26
BRANCH  20  28
ATOM     28  O   LIG    1       -1.749  -2.435  -4.431  0.00  0.00    -0.489 OA
BRANCH  28  34
ATOM     29  C   LIG    1       -0.856  -1.324   1.651  0.00  0.00    +0.109 C 
ATOM     30  C   LIG    1       -0.634  -0.470   0.429  0.00  0.00    +0.212 C 
ATOM     31  N   LIG    1       -0.373  -1.049  -0.759  0.00  0.00    -0.301 N 
ATOM     32  C   LIG    1       -0.017  -0.233  -1.928  0.00  0.00    +0.111 C 
ATOM     33  C   LIG    1       -0.955  -0.592  -3.085  0.00  0.00    +0.063 C 
ATOM     34  C   LIG    1       -0.899  -2.101  -3.332  0.00  0.00    +0.176 C 
ATOM     35  C   LIG    1       -1.371  -2.843  -2.079  0.00  0.00    +0.063 C 
ATOM     36  C   LIG    1       -0.432  -2.510  -0.909  0.00  0.00    +0.111 C 
ATOM     37  O   LIG    1       -0.692   0.739   0.515  0.00  0.00    -0.276 OA
ENDBRANCH  28  34
ENDBRANCH  20  28
ENDBRANCH   1  23
TORSDOF 5
