REMARK  Name = ZINC03872167
REMARK                            x       y       z     vdW  Elec       q    Type
REMARK                         _______ _______ _______ _____ _____    ______ ____
ROOT
ATOM      1  C   LIG    1       -1.154  -0.671  -0.295  0.00  0.00    +0.147 C 
ATOM      2  C   LIG    1       -2.304   0.066  -0.244  0.00  0.00    +0.042 C 
ATOM      3  C   LIG    1       -3.543  -0.585  -0.197  0.00  0.00    +0.040 C 
ATOM      4  C   LIG    1       -3.598  -2.000  -0.203  0.00  0.00    +0.065 C 
ATOM      5  N   LIG    1       -4.798  -2.601  -0.159  0.00  0.00    -0.286 NA
ATOM      6  H   LIG    1       -4.853  -3.569  -0.163  0.00  0.00    +0.125 HD
ATOM      7  C   LIG    1       -5.903  -1.882  -0.110  0.00  0.00    +0.198 C 
ATOM      8  N   LIG    1       -5.895  -0.552  -0.102  0.00  0.00    -0.273 NA
ATOM      9  H   LIG    1       -6.374  -0.266   0.752  0.00  0.00    +0.126 HD
ATOM     10  C   LIG    1       -2.407  -2.735  -0.257  0.00  0.00    +0.053 C 
ATOM     11  C   LIG    1       -4.762   0.134  -0.143  0.00  0.00    +0.126 C 
ATOM     12  C   LIG    1       -1.201  -2.071  -0.307  0.00  0.00    +0.148 C 
ENDROOT
BRANCH   7  13
ATOM     13  N   LIG    1       -7.120  -2.539  -0.064  0.00  0.00    -0.269 NA
ATOM     14  C   LIG    1       -7.199  -4.003  -0.200  0.00  0.00    +0.106 C 
ATOM     15  C   LIG    1       -8.171  -4.356  -1.331  0.00  0.00    +0.124 C 
ATOM     16  N   LIG    1       -9.411  -3.579  -1.169  0.00  0.00    -0.289 N 
ATOM     17  C   LIG    1      -10.612  -4.189  -1.122  0.00  0.00    +0.282 C 
ATOM     18  O   LIG    1      -11.631  -3.524  -1.103  0.00  0.00    -0.267 OA
ATOM     19  C   LIG    1       -9.297  -2.123  -1.061  0.00  0.00    +0.094 C 
ATOM     20  C   LIG    1      -10.652  -1.465  -0.816  0.00  0.00    +0.024 C 
ATOM     21  C   LIG    1      -10.456   0.056  -0.723  0.00  0.00    +0.002 C 
ATOM     22  C   LIG    1       -9.484   0.403   0.404  0.00  0.00    +0.002 C 
ATOM     23  C   LIG    1       -8.138  -0.294   0.175  0.00  0.00    +0.021 C 
ATOM     24  C   LIG    1       -8.371  -1.801   0.126  0.00  0.00    +0.080 C 
BRANCH  17  25
ATOM     25  C   LIG    1      -10.691  -5.653  -1.093  0.00  0.00    +0.189 A 
ATOM     26  C   LIG    1      -11.833  -6.397  -1.183  0.00  0.00    +0.054 A 
ATOM     27  C   LIG    1      -11.443  -7.743  -1.113  0.00  0.00    +0.042 A 
ATOM     28  C   LIG    1      -10.098  -7.762  -0.984  0.00  0.00    +0.196 A 
ATOM     29  O   LIG    1       -9.648  -6.501  -0.978  0.00  0.00    -0.458 OA
ENDBRANCH  17  25
ENDBRANCH   7  13
BRANCH  11  30
ATOM     30  N   LIG    1       -4.770   1.513  -0.134  0.00  0.00    -0.315 NA
ATOM     31  H   LIG    1       -5.612   1.993  -0.097  0.00  0.00    +0.120 HD
ATOM     32  H   LIG    1       -3.933   2.003  -0.164  0.00  0.00    +0.120 HD
ENDBRANCH  11  30
BRANCH   1  34
ATOM     33  C   LIG    1        0.031   1.391  -0.326  0.00  0.00    +0.194 C 
ATOM     34  O   LIG    1        0.049  -0.038  -0.341  0.00  0.00    -0.377 OA
ENDBRANCH   1  34
BRANCH  12  35
ATOM     35  O   LIG    1       -0.045  -2.782  -0.364  0.00  0.00    -0.377 OA
ATOM     36  C   LIG    1       -0.159  -4.206  -0.374  0.00  0.00    +0.194 C 
ENDBRANCH  12  35
TORSDOF 5
