REMARK  Name = ZINC03776578
REMARK                            x       y       z     vdW  Elec       q    Type
REMARK                         _______ _______ _______ _____ _____    ______ ____
ROOT
ATOM      1  C   LIG    1        4.641  -0.155  -1.571  0.00  0.00    +0.070 C 
ATOM      2  C   LIG    1        4.471   1.309  -1.161  0.00  0.00    +0.186 C 
ATOM      3  C   LIG    1        5.847   1.966  -0.932  0.00  0.00    +0.214 C 
ATOM      4  C   LIG    1        5.692   2.784   0.366  0.00  0.00    +0.106 C 
ATOM      5  C   LIG    1        4.234   2.557   0.814  0.00  0.00    +0.226 C 
ATOM      6  N   LIG    1        3.436   3.735   0.457  0.00  0.00    -0.311 N 
ATOM      7  C   LIG    1        3.090   4.782   1.272  0.00  0.00    +0.052 A 
ATOM      8  C   LIG    1        3.457   5.074   2.585  0.00  0.00    +0.026 A 
ATOM      9  C   LIG    1        2.905   6.206   3.159  0.00  0.00    +0.002 A 
ATOM     10  C   LIG    1        2.025   7.027   2.474  0.00  0.00    +0.001 A 
ATOM     11  C   LIG    1        1.649   6.764   1.168  0.00  0.00    +0.010 A 
ATOM     12  C   LIG    1        2.198   5.629   0.569  0.00  0.00    +0.008 A 
ATOM     13  C   LIG    1        2.039   5.060  -0.766  0.00  0.00    +0.022 A 
ATOM     14  C   LIG    1        1.318   5.416  -1.929  0.00  0.00    +0.052 A 
ATOM     15  C   LIG    1        0.365   6.504  -2.198  0.00  0.00    +0.245 C 
ATOM     16  N   LIG    1       -0.054   6.456  -3.474  0.00  0.00    -0.307 N 
ATOM     17  H   LIG    1       -0.682   7.070  -3.887  0.00  0.00    +0.149 HD
ATOM     18  C   LIG    1        0.595   5.320  -4.137  0.00  0.00    +0.141 C 
ATOM     19  O   LIG    1        0.008   7.332  -1.381  0.00  0.00    -0.270 OA
ATOM     20  C   LIG    1        1.470   4.668  -3.094  0.00  0.00    -0.008 A 
ATOM     21  C   LIG    1        2.318   3.566  -3.129  0.00  0.00    +0.015 A 
ATOM     22  C   LIG    1        2.765   2.629  -4.161  0.00  0.00    +0.008 A 
ATOM     23  C   LIG    1        2.459   2.526  -5.518  0.00  0.00    +0.010 A 
ATOM     24  C   LIG    1        3.091   1.519  -6.228  0.00  0.00    +0.001 A 
ATOM     25  C   LIG    1        3.983   0.651  -5.624  0.00  0.00    +0.002 A 
ATOM     26  C   LIG    1        4.293   0.731  -4.276  0.00  0.00    +0.026 A 
ATOM     27  C   LIG    1        3.670   1.736  -3.538  0.00  0.00    +0.053 A 
ATOM     28  C   LIG    1        2.985   3.175  -1.960  0.00  0.00    +0.077 A 
ATOM     29  C   LIG    1        2.849   3.925  -0.787  0.00  0.00    +0.077 A 
ATOM     30  N   LIG    1        3.753   2.050  -2.204  0.00  0.00    -0.306 N 
ATOM     31  O   LIG    1        3.781   1.414   0.085  0.00  0.00    -0.327 OA
ENDROOT
BRANCH   3  32
ATOM     32  O   LIG    1        6.177   2.826  -2.025  0.00  0.00    -0.374 OA
ATOM     33  H   LIG    1        7.013   3.299  -1.915  0.00  0.00    +0.211 HD
ENDBRANCH   3  32
BRANCH   3  34
ATOM     34  C   LIG    1        6.909   0.910  -0.761  0.00  0.00    +0.344 C 
ATOM     35  O   LIG    1        7.168   0.487   0.341  0.00  0.00    -0.247 OA
BRANCH  34  36
ATOM     36  O   LIG    1        7.566   0.439  -1.832  0.00  0.00    -0.466 OA
ATOM     37  C   LIG    1        8.575  -0.577  -1.592  0.00  0.00    +0.280 C 
ENDBRANCH  34  36
ENDBRANCH   3  34
TORSDOF 3
