REMARK  Name = ZINC03777839
REMARK                            x       y       z     vdW  Elec       q    Type
REMARK                         _______ _______ _______ _____ _____    ______ ____
ROOT
ATOM      1  C   LIG    1       -1.271  -0.352  -2.600  0.00  0.00    -0.038 A 
ATOM      2  C   LIG    1       -0.774   0.932  -2.822  0.00  0.00    +0.006 A 
ATOM      3  C   LIG    1       -0.081   1.210  -3.981  0.00  0.00    +0.026 A 
ATOM      4  C   LIG    1        0.122   0.213  -4.928  0.00  0.00    +0.060 A 
ATOM      5  C   LIG    1       -0.374  -1.067  -4.709  0.00  0.00    +0.143 A 
ATOM      6  C   LIG    1       -1.062  -1.352  -3.548  0.00  0.00    +0.038 A 
ENDROOT
BRANCH   1   8
ATOM      7  C   LIG    1       -1.371  -0.672  -0.120  0.00  0.00    +0.066 C 
ATOM      8  C   LIG    1       -2.017  -0.654  -1.354  0.00  0.00    +0.067 C 
ATOM      9  C   LIG    1       -3.397  -0.930  -1.387  0.00  0.00    +0.130 C 
ATOM     10  N   LIG    1       -4.025  -1.195  -0.248  0.00  0.00    -0.273 NA
ATOM     11  H   LIG    1       -4.438  -2.121  -0.352  0.00  0.00    +0.126 HD
ATOM     12  C   LIG    1       -3.368  -1.200   0.902  0.00  0.00    +0.193 C 
ATOM     13  N   LIG    1       -2.069  -0.951   0.969  0.00  0.00    -0.286 NA
ATOM     14  H   LIG    1       -1.623  -0.968   1.830  0.00  0.00    +0.125 HD
BRANCH   9  15
ATOM     15  N   LIG    1       -4.087  -0.924  -2.587  0.00  0.00    -0.315 NA
ATOM     16  H   LIG    1       -5.037  -1.115  -2.600  0.00  0.00    +0.120 HD
ATOM     17  H   LIG    1       -3.619  -0.729  -3.414  0.00  0.00    +0.120 HD
ENDBRANCH   9  15
BRANCH  12  18
ATOM     18  N   LIG    1       -4.059  -1.481   2.068  0.00  0.00    -0.303 NA
ATOM     19  H   LIG    1       -3.592  -1.489   2.919  0.00  0.00    +0.121 HD
ATOM     20  H   LIG    1       -5.010  -1.669   2.036  0.00  0.00    +0.121 HD
ENDBRANCH  12  18
BRANCH   7  22
ATOM     21  C   LIG    1        0.893  -1.671  -0.283  0.00  0.00    +0.005 C 
ATOM     22  C   LIG    1        0.106  -0.384  -0.028  0.00  0.00    +0.016 C 
ENDBRANCH   7  22
ENDBRANCH   1   8
BRANCH   4  23
ATOM     23  N   LIG    1        0.824   0.497  -6.101  0.00  0.00    -0.327 N 
ATOM     24  C   LIG    1        2.278   0.325  -6.145  0.00  0.00    +0.129 C 
BRANCH  23  25
ATOM     25  C   LIG    1        0.106   0.969  -7.288  0.00  0.00    +0.140 C 
BRANCH  25  26
ATOM     26  C   LIG    1        0.032   2.474  -7.266  0.00  0.00    -0.030 A 
ATOM     27  C   LIG    1       -1.032   3.105  -6.650  0.00  0.00    +0.005 A 
ATOM     28  C   LIG    1       -1.099   4.485  -6.629  0.00  0.00    +0.000 A 
ATOM     29  C   LIG    1       -0.102   5.235  -7.225  0.00  0.00    +0.000 A 
ATOM     30  C   LIG    1        0.962   4.604  -7.841  0.00  0.00    +0.000 A 
ATOM     31  C   LIG    1        1.032   3.223  -7.857  0.00  0.00    +0.005 A 
ENDBRANCH  25  26
ENDBRANCH  23  25
ENDBRANCH   4  23
BRANCH   5  32
ATOM     32  N   LIG    1       -0.157  -2.127  -5.719  0.00  0.00    +0.008 N 
ATOM     33  O   LIG    1       -0.588  -3.240  -5.529  0.00  0.00    -0.130 OA
BRANCH  32  34
ATOM     34  O   LIG    1        0.450  -1.879  -6.735  0.00  0.00    -0.396 OA
ATOM     35  H   LIG    1        0.784  -1.016  -6.882  0.00  0.00    +0.329 HD
ENDBRANCH  32  34
ENDBRANCH   5  32
TORSDOF 9
