REMARK  Name = ZINC03815794
REMARK                            x       y       z     vdW  Elec       q    Type
REMARK                         _______ _______ _______ _____ _____    ______ ____
ROOT
ATOM      1  C   LIG    1        4.101  -0.513  -0.040  0.00  0.00    +0.122 A 
ATOM      2  C   LIG    1        3.347  -1.684  -0.039  0.00  0.00    +0.048 A 
ATOM      3  C   LIG    1        1.971  -1.627  -0.026  0.00  0.00    +0.032 A 
ATOM      4  C   LIG    1        1.329  -0.396  -0.013  0.00  0.00    +0.074 A 
ATOM      5  C   LIG    1        2.083   0.789  -0.014  0.00  0.00    +0.093 A 
ATOM      6  N   LIG    1        1.200   1.821   0.000  0.00  0.00    -0.235 NA
ATOM      7  C   LIG    1       -0.016   1.358   0.009  0.00  0.00    +0.205 A 
ATOM      8  N   LIG    1        0.002  -0.004   0.002  0.00  0.00    -0.299 N 
ATOM      9  C   LIG    1        3.479   0.719  -0.027  0.00  0.00    +0.075 A 
ENDROOT
BRANCH   8  10
ATOM     10  C   LIG    1       -1.116  -0.852   0.009  0.00  0.00    +0.048 A 
ATOM     11  C   LIG    1       -1.214  -1.879  -0.921  0.00  0.00    +0.028 A 
ATOM     12  C   LIG    1       -2.312  -2.716  -0.911  0.00  0.00    +0.025 A 
ATOM     13  C   LIG    1       -3.324  -2.523   0.021  0.00  0.00    +0.025 A 
ATOM     14  C   LIG    1       -3.228  -1.493   0.947  0.00  0.00    +0.025 A 
ATOM     15  C   LIG    1       -2.127  -0.659   0.941  0.00  0.00    +0.028 A 
BRANCH  13  16
ATOM     16  N   LIG    1       -4.439  -3.367   0.026  0.00  0.00    -0.358 N 
ATOM     17  H   LIG    1       -4.506  -4.087  -0.621  0.00  0.00    +0.142 HD
ATOM     18  H   LIG    1       -5.146  -3.233   0.677  0.00  0.00    +0.142 HD
ENDBRANCH  13  16
ENDBRANCH   8  10
BRANCH   1  20
ATOM     19  C   LIG    1        6.040  -1.890  -0.066  0.00  0.00    +0.277 C 
ATOM     20  O   LIG    1        5.459  -0.584  -0.054  0.00  0.00    -0.495 OA
ENDBRANCH   1  20
TORSDOF 3
