REMARK  Name = ZINC03788703
REMARK                            x       y       z     vdW  Elec       q    Type
REMARK                         _______ _______ _______ _____ _____    ______ ____
ROOT
ATOM      1  C   UNK A  0       -0.092   1.749   0.003  0.00  0.00    +0.026 C 
ATOM      2  C   UNK A  0        1.379   2.171   0.021  0.00  0.00    -0.037 C 
ATOM      3  C   UNK A  0        2.037   1.670   1.308  0.00  0.00    +0.132 C 
ATOM      4  C   UNK A  0        1.943   0.144   1.368  0.00  0.00    +0.173 C 
ATOM      5  C   UNK A  0        0.473  -0.278   1.351  0.00  0.00    +0.179 C 
ATOM      6  C   UNK A  0       -0.186   0.223   0.064  0.00  0.00    +0.116 C 
ENDROOT
BRANCH   2   7
ATOM      7  N   SER A  1        2.068   1.591  -1.140  0.00  0.00    +0.388 N 
ATOM      8  H1  SER A  1        1.994   0.585  -1.107  0.00  0.00    -0.085 HD
ATOM      9  H2  SER A  1        3.041   1.857  -1.121  0.00  0.00    -0.085 HD
BRANCH   7  10
ATOM     10  CA  SER A  1        1.449   2.088  -2.376  0.00  0.00    -0.020 C 
BRANCH  10  11
ATOM     11  C   SER A  1        2.074   1.380  -3.580  0.00  0.00    +0.142 C 
BRANCH  11  12
ATOM     12  O   SER A  1        3.454   1.737  -3.678  0.00  0.00    -0.397 OA
ATOM     13  H   SER A  1        3.915   1.324  -4.421  0.00  0.00    +0.209 HD
ENDBRANCH  11  12
ENDBRANCH  10  11
BRANCH  10  14
ATOM     14  CB  SER A  1        1.682   3.596  -2.493  0.00  0.00    +0.142 C 
BRANCH  14  15
ATOM     15  OG  SER A  1        3.084   3.854  -2.599  0.00  0.00    -0.397 OA
ATOM     16  H   SER A  1        3.306   4.792  -2.677  0.00  0.00    +0.209 HD
ENDBRANCH  14  15
ENDBRANCH  10  14
ENDBRANCH   7  10
ENDBRANCH   2   7
BRANCH   3  17
ATOM     17  O   UNK A  0        3.411   2.063   1.324  0.00  0.00    -0.391 OA
ATOM     18  H   UNK A  0        3.911   1.716   2.076  0.00  0.00    +0.210 HD
ENDBRANCH   3  17
BRANCH   4  19
ATOM     19  O   UNK A  0        2.558  -0.324   2.570  0.00  0.00    -0.387 OA
ATOM     20  H   UNK A  0        2.536  -1.285   2.675  0.00  0.00    +0.210 HD
ENDBRANCH   4  19
BRANCH   5  21
ATOM     21  O   UNK A  0        0.385  -1.703   1.407  0.00  0.00    -0.386 OA
ATOM     22  H   UNK A  0        0.783  -2.090   2.199  0.00  0.00    +0.210 HD
ENDBRANCH   5  21
BRANCH   6  23
ATOM     23  O   UNK A  0        0.485  -0.341  -1.065  0.00  0.00    -0.384 OA
ATOM     24  H   UNK A  0        0.465  -1.307  -1.092  0.00  0.00    +0.210 HD
ENDBRANCH   6  23
BRANCH   6  25
ATOM     25  C   UNK A  0       -1.657  -0.198   0.046  0.00  0.00    +0.193 C 
BRANCH  25  26
ATOM     26  O   UNK A  0       -1.749  -1.613   0.220  0.00  0.00    -0.392 OA
ATOM     27  H   UNK A  0       -2.655  -1.952   0.219  0.00  0.00    +0.210 HD
ENDBRANCH  25  26
ENDBRANCH   6  25
TORSDOF 12
