REMARK  Name = ZINC03650259
REMARK                            x       y       z     vdW  Elec       q    Type
REMARK                         _______ _______ _______ _____ _____    ______ ____
ROOT
ATOM      1  C   LIG    1       -3.876   2.979   0.587  0.00  0.00    -0.064 C 
ATOM      2  C   LIG    1       -4.014   1.655  -0.175  0.00  0.00    -0.010 C 
ATOM      3  C   LIG    1       -2.988   0.670   0.381  0.00  0.00    +0.034 C 
ATOM      4  C   LIG    1       -1.616   1.292   0.400  0.00  0.00    -0.041 A 
ATOM      5  C   LIG    1       -0.523   0.443   0.522  0.00  0.00    +0.004 A 
ATOM      6  C   LIG    1        0.760   0.948   0.564  0.00  0.00    +0.004 A 
ATOM      7  C   LIG    1        0.964   2.313   0.488  0.00  0.00    +0.046 A 
ATOM      8  C   LIG    1       -0.122   3.163   0.367  0.00  0.00    +0.123 A 
ATOM      9  C   LIG    1       -1.418   2.651   0.325  0.00  0.00    -0.004 A 
ATOM     10  C   LIG    1       -2.554   3.630   0.185  0.00  0.00    +0.024 C 
ENDROOT
BRANCH   1  11
ATOM     11  N   LIG    1       -4.992   3.873   0.209  0.00  0.00    +0.382 N 
ATOM     12  H   LIG    1       -4.982   4.006  -0.808  0.00  0.00    -0.081 HD
BRANCH  11  13
ATOM     13  C   LIG    1       -6.280   3.265   0.602  0.00  0.00    -0.079 C 
BRANCH  13  15
ATOM     14  C   LIG    1       -7.664   2.401   2.495  0.00  0.00    +0.002 C 
ATOM     15  C   LIG    1       -6.295   2.959   2.102  0.00  0.00    -0.022 C 
ENDBRANCH  13  15
ENDBRANCH  11  13
BRANCH  11  16
ATOM     16  C   LIG    1       -4.831   5.186   0.868  0.00  0.00    -0.079 C 
BRANCH  16  17
ATOM     17  C   LIG    1       -5.923   6.130   0.361  0.00  0.00    -0.022 C 
ATOM     18  C   LIG    1       -5.679   7.536   0.914  0.00  0.00    +0.002 C 
ENDBRANCH  16  17
ENDBRANCH  11  16
ENDBRANCH   1  11
BRANCH   8  19
ATOM     19  O   LIG    1        0.077   4.505   0.291  0.00  0.00    -0.495 OA
ATOM     20  C   LIG    1        1.429   4.965   0.341  0.00  0.00    +0.277 C 
ENDBRANCH   8  19
TORSDOF 6
