REMARK  Name = ZINC03804898
REMARK                            x       y       z     vdW  Elec       q    Type
REMARK                         _______ _______ _______ _____ _____    ______ ____
ROOT
ATOM      1  C   LIG    1       -7.186   2.206   2.582  0.00  0.00    +0.015 C 
ATOM      2  C   LIG    1       -7.551   1.780   1.158  0.00  0.00    +0.011 C 
ATOM      3  C   LIG    1       -6.706   0.590   0.747  0.00  0.00    +0.011 C 
ATOM      4  C   LIG    1       -5.233   0.986   0.946  0.00  0.00    +0.005 C 
ATOM      5  C   LIG    1       -4.883   2.245   0.159  0.00  0.00    -0.001 C 
ATOM      6  C   LIG    1       -5.823   3.401   0.465  0.00  0.00    -0.004 C 
ATOM      7  C   LIG    1       -5.455   4.579  -0.443  0.00  0.00    +0.004 C 
ATOM      8  C   LIG    1       -4.028   5.015  -0.120  0.00  0.00    +0.005 C 
ATOM      9  C   LIG    1       -3.043   3.870  -0.382  0.00  0.00    +0.001 C 
ATOM     10  C   LIG    1       -1.645   4.361   0.041  0.00  0.00    +0.061 C 
ATOM     11  C   LIG    1       -0.691   3.196   0.025  0.00  0.00    +0.068 A 
ATOM     12  N   LIG    1        0.611   3.215   0.012  0.00  0.00    -0.155 NA
ATOM     13  N   LIG    1        1.067   1.889   0.002  0.00  0.00    -0.141 N 
ATOM     14  C   LIG    1       -0.013   1.076   0.008  0.00  0.00    +0.139 A 
ATOM     15  C   LIG    1       -1.110   1.856   0.017  0.00  0.00    -0.004 A 
ATOM     16  C   LIG    1       -2.556   1.439   0.017  0.00  0.00    +0.045 C 
ATOM     17  C   LIG    1       -3.428   2.636   0.435  0.00  0.00    -0.022 C 
ATOM     18  C   LIG    1       -3.229   2.923   1.925  0.00  0.00    +0.012 C 
ATOM     19  C   LIG    1       -9.062   1.618   1.040  0.00  0.00    +0.132 C 
ATOM     20  C   LIG    1       -9.597   3.023   0.666  0.00  0.00    +0.049 C 
ATOM     21  C   LIG    1       -8.351   3.935   0.495  0.00  0.00    +0.008 C 
ATOM     22  C   LIG    1       -7.236   2.935   0.169  0.00  0.00    +0.002 C 
ENDROOT
BRANCH  13  23
ATOM     23  S   LIG    1        2.651   1.404  -0.014  0.00  0.00    +0.067 S 
ATOM     24  C   LIG    1        3.081   1.276  -1.772  0.00  0.00    +0.223 C 
ATOM     25  O   LIG    1        2.641   0.115   0.583  0.00  0.00    -0.152 OA
ATOM     26  O   LIG    1        3.364   2.476   0.587  0.00  0.00    -0.152 OA
ENDBRANCH  13  23
BRANCH  19  27
ATOM     27  O   LIG    1       -9.614   1.194   2.288  0.00  0.00    -0.376 OA
ATOM     28  H   LIG    1      -10.573   1.073   2.273  0.00  0.00    +0.211 HD
ENDBRANCH  19  27
BRANCH  19  29
ATOM     29  C   LIG    1       -9.389   0.649  -0.019  0.00  0.00    -0.070 C 
ATOM     30  C   LIG    1       -9.650  -0.123  -0.864  0.00  0.00    +0.007 C 
ENDBRANCH  19  29
TORSDOF 3
