REMARK  Name = ZINC03832073
REMARK                            x       y       z     vdW  Elec       q    Type
REMARK                         _______ _______ _______ _____ _____    ______ ____
ROOT
ATOM      1  C   LIG    1       -1.177  -0.957   0.078  0.00  0.00    +0.074 A 
ATOM      2  C   LIG    1       -2.161  -0.989   1.166  0.00  0.00    +0.280 A 
ATOM      3  O   LIG    1       -1.993  -0.595   2.305  0.00  0.00    -0.265 OA
ATOM      4  N   LIG    1       -3.287  -1.535   0.665  0.00  0.00    -0.219 N 
ATOM      5  N   LIG    1       -3.072  -1.859  -0.678  0.00  0.00    -0.289 N 
ATOM      6  H   LIG    1       -3.725  -2.268  -1.268  0.00  0.00    +0.187 HD
ATOM      7  C   LIG    1       -1.792  -1.509  -1.032  0.00  0.00    +0.076 A 
ENDROOT
BRANCH   1  14
ATOM      8  C   LIG    1        0.437   0.920   0.364  0.00  0.00    +0.011 A 
ATOM      9  C   LIG    1        1.730   1.396   0.436  0.00  0.00    +0.039 A 
ATOM     10  C   LIG    1        2.800   0.526   0.300  0.00  0.00    +0.123 A 
ATOM     11  F   LIG    1        4.064   0.997   0.371  0.00  0.00    -0.205 F 
ATOM     12  C   LIG    1        2.578  -0.826   0.093  0.00  0.00    +0.039 A 
ATOM     13  C   LIG    1        1.289  -1.312   0.020  0.00  0.00    +0.011 A 
ATOM     14  C   LIG    1        0.208  -0.441   0.155  0.00  0.00    -0.010 A 
ENDBRANCH   1  14
BRANCH   4  15
ATOM     15  C   LIG    1       -4.475  -1.747   1.374  0.00  0.00    +0.067 A 
ATOM     16  C   LIG    1       -4.564  -1.373   2.709  0.00  0.00    +0.029 A 
ATOM     17  C   LIG    1       -5.737  -1.583   3.406  0.00  0.00    +0.022 A 
ATOM     18  C   LIG    1       -6.823  -2.166   2.777  0.00  0.00    +0.041 A 
ATOM     19 CL   LIG    1       -8.296  -2.429   3.657  0.00  0.00    -0.084 Cl
ATOM     20  C   LIG    1       -6.737  -2.539   1.447  0.00  0.00    +0.022 A 
ATOM     21  C   LIG    1       -5.568  -2.326   0.743  0.00  0.00    +0.029 A 
ENDBRANCH   4  15
BRANCH   7  22
ATOM     22  C   LIG    1       -1.181  -1.688  -2.364  0.00  0.00    +0.003 A 
ATOM     23  C   LIG    1       -1.308  -2.897  -3.058  0.00  0.00    +0.030 A 
ATOM     24  C   LIG    1       -0.721  -3.021  -4.301  0.00  0.00    +0.111 A 
ATOM     25  N   LIG    1       -0.047  -2.020  -4.834  0.00  0.00    -0.263 NA
ATOM     26  C   LIG    1        0.099  -0.864  -4.215  0.00  0.00    +0.111 A 
ATOM     27  C   LIG    1       -0.461  -0.651  -2.971  0.00  0.00    +0.030 A 
ENDBRANCH   7  22
TORSDOF 3
