REMARK  Name = ZINC03798763
REMARK                            x       y       z     vdW  Elec       q    Type
REMARK                         _______ _______ _______ _____ _____    ______ ____
ROOT
ATOM      1  C   LIG    1       -2.445  -4.399  -1.064  0.00  0.00    +0.187 C 
ATOM      2  C   LIG    1       -1.990  -5.189   0.161  0.00  0.00    +0.080 C 
ATOM      3  C   LIG    1       -2.134  -6.686  -0.148  0.00  0.00    +0.141 C 
ATOM      4  C   LIG    1       -3.594  -6.960  -0.403  0.00  0.00    +0.008 C 
ATOM      5  C   LIG    1       -4.365  -6.050  -0.968  0.00  0.00    -0.042 C 
ATOM      6  C   LIG    1       -5.808  -6.331  -1.150  0.00  0.00    -0.000 C 
ATOM      7  C   LIG    1       -6.638  -5.342  -1.424  0.00  0.00    -0.023 C 
ATOM      8  C   LIG    1       -6.218  -3.914  -1.595  0.00  0.00    +0.012 C 
ATOM      9  C   LIG    1       -6.149  -3.591  -3.088  0.00  0.00    +0.012 C 
ATOM     10  C   LIG    1       -4.851  -3.646  -0.963  0.00  0.00    +0.007 C 
ATOM     11  C   LIG    1       -3.870  -4.718  -1.444  0.00  0.00    +0.063 C 
ENDROOT
BRANCH   3  12
ATOM     12  O   LIG    1       -1.367  -7.018  -1.307  0.00  0.00    -0.388 OA
ATOM     13  H   LIG    1       -1.415  -7.950  -1.557  0.00  0.00    +0.210 HD
ENDBRANCH   3  12
BRANCH   1  14
ATOM     14  O   LIG    1       -2.341  -3.002  -0.781  0.00  0.00    -0.460 OA
BRANCH  14  15
ATOM     15  C   LIG    1       -1.167  -2.411  -1.052  0.00  0.00    +0.310 C 
ATOM     16  O   LIG    1       -0.258  -3.058  -1.515  0.00  0.00    -0.251 OA
BRANCH  15  17
ATOM     17  C   LIG    1       -0.983  -0.940  -0.780  0.00  0.00    +0.094 C 
ATOM     18  C   LIG    1       -1.198  -0.666   0.710  0.00  0.00    +0.019 C 
BRANCH  17  20
ATOM     19  C   LIG    1        0.583   0.993  -1.017  0.00  0.00    +0.004 C 
ATOM     20  C   LIG    1        0.435  -0.522  -1.176  0.00  0.00    +0.011 C 
ENDBRANCH  17  20
ENDBRANCH  15  17
ENDBRANCH  14  15
ENDBRANCH   1  14
BRANCH  10  21
ATOM     21  C   LIG    1       -4.348  -2.264  -1.386  0.00  0.00    +0.007 C 
BRANCH  21  22
ATOM     22  C   LIG    1       -5.507  -1.266  -1.347  0.00  0.00    +0.032 C 
BRANCH  22  23
ATOM     23  C   LIG    1       -5.005   0.116  -1.770  0.00  0.00    +0.117 C 
BRANCH  23  24
ATOM     24  O   LIG    1       -4.587   0.074  -3.136  0.00  0.00    -0.392 OA
ATOM     25  H   LIG    1       -5.288  -0.176  -3.754  0.00  0.00    +0.210 HD
ENDBRANCH  23  24
BRANCH  23  26
ATOM     26  C   LIG    1       -6.131   1.139  -1.613  0.00  0.00    +0.063 C 
BRANCH  26  27
ATOM     27  C   LIG    1       -5.595   2.539  -1.915  0.00  0.00    +0.128 C 
BRANCH  27  28
ATOM     28  O   LIG    1       -5.206   2.614  -3.288  0.00  0.00    -0.391 OA
ATOM     29  H   LIG    1       -5.926   2.443  -3.911  0.00  0.00    +0.210 HD
ENDBRANCH  27  28
BRANCH  27  30
ATOM     30  C   LIG    1       -6.687   3.575  -1.638  0.00  0.00    +0.151 C 
BRANCH  30  31
ATOM     31  C   LIG    1       -6.123   4.960  -1.818  0.00  0.00    +0.307 C 
ATOM     32  O   LIG    1       -4.956   5.106  -2.138  0.00  0.00    -0.251 OA
BRANCH  31  33
ATOM     33  O   LIG    1       -6.833   5.936  -1.643  0.00  0.00    -0.481 OA
ATOM     34  H   LIG    1       -7.731   5.823  -1.396  0.00  0.00    +0.295 HD
ENDBRANCH  31  33
ENDBRANCH  30  31
ENDBRANCH  27  30
ENDBRANCH  26  27
ENDBRANCH  23  26
ENDBRANCH  22  23
ENDBRANCH  21  22
ENDBRANCH  10  21
TORSDOF 15
