REMARK  Name = ZINC03830569
REMARK                            x       y       z     vdW  Elec       q    Type
REMARK                         _______ _______ _______ _____ _____    ______ ____
ROOT
ATOM      1  C   LIG    1       -0.018   1.505   0.010  0.00  0.00    +0.161 C 
ATOM      2  C   LIG    1        1.510   1.502  -0.004  0.00  0.00    +0.274 C 
ATOM      3  N   LIG    1        1.354   0.035   0.078  0.00  0.00    -0.245 N 
ATOM      4  C   LIG    1        1.972  -0.324   1.379  0.00  0.00    +0.253 C 
ATOM      5  C   LIG    1        1.870   0.982   2.160  0.00  0.00    +0.130 C 
ATOM      6  C   LIG    1        1.601   1.148   3.439  0.00  0.00    +0.044 C 
ATOM      7  O   LIG    1        2.125   1.956   1.208  0.00  0.00    -0.472 OA
ATOM      8  C   LIG    1        0.002  -0.004   0.002  0.00  0.00    +0.224 C 
ATOM      9  O   LIG    1       -0.836  -0.879  -0.050  0.00  0.00    -0.275 OA
ENDROOT
BRANCH   4  10
ATOM     10  C   LIG    1        3.411  -0.732   1.194  0.00  0.00    +0.333 C 
ATOM     11  O   LIG    1        4.069  -0.252   0.286  0.00  0.00    -0.248 OA
BRANCH  10  12
ATOM     12  O   LIG    1        3.918  -1.541   1.952  0.00  0.00    -0.479 OA
ATOM     13  H   LIG    1        3.413  -1.909   2.650  0.00  0.00    +0.295 HD
ENDBRANCH  10  12
ENDBRANCH   4  10
BRANCH   6  14
ATOM     14  C   LIG    1        1.546   2.537   4.022  0.00  0.00    +0.186 C 
BRANCH  14  15
ATOM     15  O   LIG    1        0.394   2.656   4.859  0.00  0.00    -0.391 OA
ATOM     16  H   LIG    1        0.294   3.526   5.270  0.00  0.00    +0.210 HD
ENDBRANCH  14  15
ENDBRANCH   6  14
TORSDOF 4
