REMARK  Name = ZINC03869855
REMARK                            x       y       z     vdW  Elec       q    Type
REMARK                         _______ _______ _______ _____ _____    ______ ____
ROOT
ATOM      1  C   LIG    1        2.628  -4.245  -0.046  0.00  0.00    +0.092 C 
ENDROOT
BRANCH   1   8
ATOM      2  C   LIG    1       -0.017   1.373   0.010  0.00  0.00    +0.001 A 
ATOM      3  C   LIG    1        1.171   2.090   0.002  0.00  0.00    +0.004 A 
ATOM      4  C   LIG    1        2.386   1.437  -0.013  0.00  0.00    +0.047 A 
ATOM      5  C   LIG    1        2.427   0.049  -0.021  0.00  0.00    +0.143 A 
ATOM      6  C   LIG    1        1.225  -0.678  -0.013  0.00  0.00    +0.059 A 
ATOM      7  C   LIG    1        1.282  -2.148  -0.022  0.00  0.00    +0.138 A 
ATOM      8  C   LIG    1        2.514  -2.742  -0.037  0.00  0.00    +0.084 A 
ATOM      9  C   LIG    1        3.670  -1.948  -0.044  0.00  0.00    +0.344 A 
ATOM     10  O   LIG    1        4.762  -2.490  -0.057  0.00  0.00    -0.245 OA
ATOM     11  O   LIG    1        3.608  -0.607  -0.036  0.00  0.00    -0.422 OA
ATOM     12  C   LIG    1        0.002  -0.004   0.002  0.00  0.00    +0.015 A 
BRANCH   7  13
ATOM     13  O   LIG    1        0.151  -2.889  -0.015  0.00  0.00    -0.506 OA
ATOM     14  H   LIG    1       -0.685  -2.467  -0.004  0.00  0.00    +0.292 HD
ENDBRANCH   7  13
ENDBRANCH   1   8
BRANCH   1  15
ATOM     15  C   LIG    1        2.776  -4.729  -1.465  0.00  0.00    +0.084 A 
ATOM     16  C   LIG    1        4.019  -4.964  -1.985  0.00  0.00    +0.138 A 
ATOM     17  C   LIG    1        4.109  -5.436  -3.375  0.00  0.00    +0.059 A 
ATOM     18  C   LIG    1        5.346  -5.695  -3.969  0.00  0.00    +0.015 A 
ATOM     19  C   LIG    1        5.395  -6.136  -5.273  0.00  0.00    +0.001 A 
ATOM     20  C   LIG    1        4.225  -6.322  -5.994  0.00  0.00    +0.004 A 
ATOM     21  C   LIG    1        2.997  -6.069  -5.420  0.00  0.00    +0.047 A 
ATOM     22  C   LIG    1        2.925  -5.624  -4.106  0.00  0.00    +0.143 A 
ATOM     23  O   LIG    1        1.731  -5.372  -3.527  0.00  0.00    -0.422 OA
ATOM     24  C   LIG    1        1.639  -4.947  -2.257  0.00  0.00    +0.344 A 
ATOM     25  O   LIG    1        0.536  -4.739  -1.781  0.00  0.00    -0.245 OA
BRANCH  16  26
ATOM     26  O   LIG    1        5.133  -4.768  -1.242  0.00  0.00    -0.506 OA
ATOM     27  H   LIG    1        5.957  -4.964  -1.709  0.00  0.00    +0.292 HD
ENDBRANCH  16  26
ENDBRANCH   1  15
TORSDOF 4
