REMARK  Name = ZINC03831405
REMARK                            x       y       z     vdW  Elec       q    Type
REMARK                         _______ _______ _______ _____ _____    ______ ____
ROOT
ATOM      1  C   LIG    1       -1.305  -5.265  -1.081  0.00  0.00    +0.132 C 
ENDROOT
BRANCH   1   7
ATOM      2  C   LIG    1       -1.250  -1.120  -2.144  0.00  0.00    +0.121 A 
ATOM      3  C   LIG    1       -2.363  -0.306  -1.912  0.00  0.00    +0.048 A 
ATOM      4  C   LIG    1       -3.492  -0.808  -1.343  0.00  0.00    +0.032 A 
ATOM      5  C   LIG    1       -3.548  -2.165  -0.980  0.00  0.00    +0.072 A 
ATOM      6  C   LIG    1       -2.419  -2.990  -1.215  0.00  0.00    +0.009 A 
ATOM      7  C   LIG    1       -2.479  -4.349  -0.850  0.00  0.00    -0.010 A 
ATOM      8  C   LIG    1       -3.631  -4.813  -0.281  0.00  0.00    +0.026 A 
ATOM      9  C   LIG    1       -4.704  -3.948  -0.077  0.00  0.00    +0.112 A 
ATOM     10  N   LIG    1       -4.645  -2.684  -0.419  0.00  0.00    -0.255 NA
ATOM     11  C   LIG    1       -1.271  -2.444  -1.809  0.00  0.00    +0.056 A 
BRANCH   2  13
ATOM     12  C   LIG    1       -0.176   0.801  -3.042  0.00  0.00    +0.277 C 
ATOM     13  O   LIG    1       -0.137  -0.589  -2.715  0.00  0.00    -0.495 OA
ENDBRANCH   2  13
ENDBRANCH   1   7
BRANCH   1  14
ATOM     14  C   LIG    1       -0.331  -5.152   0.094  0.00  0.00    -0.035 C 
ATOM     15  C   LIG    1       -0.966  -5.772   1.341  0.00  0.00    -0.009 C 
ATOM     16  C   LIG    1       -0.077  -6.926   1.826  0.00  0.00    -0.009 C 
ATOM     17  C   LIG    1        1.312  -6.362   2.151  0.00  0.00    -0.015 C 
ATOM     18  C   LIG    1        1.886  -5.707   0.893  0.00  0.00    -0.078 C 
ATOM     19  C   LIG    1        0.046  -7.951   0.692  0.00  0.00    -0.003 C 
ATOM     20  C   LIG    1        0.645  -7.263  -0.531  0.00  0.00    -0.071 C 
ATOM     21  N   LIG    1        0.911  -5.854  -0.236  0.00  0.00    +0.384 N 
ATOM     22  H   LIG    1        1.307  -5.431  -1.062  0.00  0.00    -0.081 HD
BRANCH  19  23
ATOM     23  C   LIG    1       -1.318  -8.492   0.349  0.00  0.00    -0.033 C 
ATOM     24  C   LIG    1       -1.489  -9.780   0.183  0.00  0.00    +0.004 C 
ENDBRANCH  19  23
ENDBRANCH   1  14
BRANCH   1  25
ATOM     25  O   LIG    1       -1.767  -6.613  -1.189  0.00  0.00    -0.389 OA
ATOM     26  H   LIG    1       -2.595  -6.784  -0.718  0.00  0.00    +0.210 HD
ENDBRANCH   1  25
TORSDOF 5
