REMARK  Name = ZINC03804505
REMARK                            x       y       z     vdW  Elec       q    Type
REMARK                         _______ _______ _______ _____ _____    ______ ____
ROOT
ATOM      1  C   LIG    1        0.034  -4.179  -2.650  0.00  0.00    -0.002 C 
ENDROOT
BRANCH   1   2
ATOM      2  C   LIG    1        0.013  -2.650  -2.641  0.00  0.00    +0.042 C 
BRANCH   2   3
ATOM      3  C   LIG    1        0.020  -2.147  -1.196  0.00  0.00    +0.223 C 
BRANCH   3   4
ATOM      4  N   LIG    1        0.000  -0.683  -1.188  0.00  0.00    -0.241 N 
ATOM      5  H   LIG    1       -0.015  -0.193  -2.026  0.00  0.00    +0.291 HD
BRANCH   4   7
ATOM      6  C   LIG    1       -0.018   1.503   0.010  0.00  0.00    +0.139 C 
ATOM      7  C   LIG    1        0.002  -0.004   0.002  0.00  0.00    +0.233 C 
ATOM      8  N   LIG    1        0.021  -0.657   1.118  0.00  0.00    -0.293 N 
ATOM      9  H   LIG    1        0.035  -1.627   1.113  0.00  0.00    +0.301 HD
ATOM     10  H   LIG    1        0.023  -0.176   1.961  0.00  0.00    +0.301 HD
ENDBRANCH   4   7
ENDBRANCH   3   4
ENDBRANCH   2   3
ENDBRANCH   1   2
BRANCH   1  11
ATOM     11  CA  LIG    1        0.027  -4.682  -4.095  0.00  0.00    +0.036 C 
BRANCH  11  12
ATOM     12  N   LIG    1       -1.240  -4.307  -4.738  0.00  0.00    +0.387 N 
ATOM     13  H1  LIG    1       -1.244  -4.638  -5.691  0.00  0.00    -0.089 HD
ATOM     14  H2  LIG    1       -1.336  -3.302  -4.730  0.00  0.00    -0.089 HD
ATOM     15  H3  LIG    1       -2.009  -4.722  -4.234  0.00  0.00    -0.089 HD
ENDBRANCH  11  12
BRANCH  11  16
ATOM     16  C   LIG    1        0.171  -6.182  -4.106  0.00  0.00    +0.290 C 
ATOM     17  O   LIG    1       -0.821  -6.890  -4.071  0.00  0.00    -0.253 OA
BRANCH  16  18
ATOM     18  OXT LIG    1        1.280  -6.687  -4.151  0.00  0.00    -0.482 OA
ATOM     19  HXT LIG    1        2.042  -6.143  -4.178  0.00  0.00    +0.295 HD
ENDBRANCH  16  18
ENDBRANCH  11  16
ENDBRANCH   1  11
TORSDOF 8
