REMARK  Name = ZINC03637289
REMARK                            x       y       z     vdW  Elec       q    Type
REMARK                         _______ _______ _______ _____ _____    ______ ____
ROOT
ATOM      1  C   LIG    1       -0.352   1.070   0.533  0.00  0.00    +0.001 A 
ATOM      2  C   LIG    1        0.737   1.897   0.309  0.00  0.00    +0.004 A 
ATOM      3  C   LIG    1        1.986   1.367   0.064  0.00  0.00    +0.046 A 
ATOM      4  C   LIG    1        2.169  -0.012   0.040  0.00  0.00    +0.132 A 
ATOM      5  C   LIG    1        1.067  -0.845   0.277  0.00  0.00    +0.064 A 
ATOM      6  C   LIG    1        1.263  -2.317   0.285  0.00  0.00    +0.196 C 
ATOM      7  C   LIG    1        2.607  -2.766  -0.143  0.00  0.00    +0.038 C 
ATOM      8  C   LIG    1        3.740  -1.823   0.227  0.00  0.00    +0.268 C 
ATOM      9  C   LIG    1        2.811  -3.923  -0.811  0.00  0.00    +0.018 C 
ATOM     10  O   LIG    1        0.386  -3.094   0.617  0.00  0.00    -0.287 OA
ATOM     11  O   LIG    1        3.399  -0.511  -0.220  0.00  0.00    -0.487 OA
ATOM     12  C   LIG    1       -0.192  -0.300   0.517  0.00  0.00    +0.015 A 
ENDROOT
BRANCH   9  13
ATOM     13  C   LIG    1        4.179  -4.399  -1.056  0.00  0.00    -0.024 A 
ATOM     14  C   LIG    1        5.187  -4.154  -0.116  0.00  0.00    +0.011 A 
ATOM     15  C   LIG    1        6.467  -4.603  -0.350  0.00  0.00    +0.046 A 
ATOM     16  C   LIG    1        6.760  -5.298  -1.518  0.00  0.00    +0.117 A 
ATOM     17  C   LIG    1        5.763  -5.544  -2.455  0.00  0.00    +0.046 A 
ATOM     18  C   LIG    1        4.478  -5.105  -2.228  0.00  0.00    +0.011 A 
BRANCH  16  19
ATOM     19  O   LIG    1        8.024  -5.738  -1.744  0.00  0.00    -0.507 OA
ATOM     20  H   LIG    1        8.197  -6.627  -1.404  0.00  0.00    +0.292 HD
ENDBRANCH  16  19
ENDBRANCH   9  13
TORSDOF 2
