REMARK  Name = ZINC03870318
REMARK                            x       y       z     vdW  Elec       q    Type
REMARK                         _______ _______ _______ _____ _____    ______ ____
ROOT
ATOM      1  N   LIG    1        1.360  -1.541   1.580  0.00  0.00    +0.383 N 
ATOM      2  H   LIG    1        0.557  -2.137   1.441  0.00  0.00    -0.081 HD
ATOM      3  C   LIG    1        1.308  -1.023   2.936  0.00  0.00    -0.074 C 
ATOM      4  C   LIG    1        1.111  -2.154   3.950  0.00  0.00    +0.018 C 
ATOM      5  C   LIG    1        2.472  -2.727   4.290  0.00  0.00    -0.023 A 
ATOM      6  C   LIG    1        3.168  -3.440   3.344  0.00  0.00    -0.034 A 
ATOM      7  C   LIG    1        2.570  -3.648   1.967  0.00  0.00    +0.033 C 
ATOM      8  C   LIG    1        4.411  -3.969   3.640  0.00  0.00    +0.053 A 
ATOM      9  C   LIG    1        4.956  -3.778   4.901  0.00  0.00    +0.160 A 
ATOM     10  C   LIG    1        4.251  -3.056   5.859  0.00  0.00    +0.177 A 
ATOM     11  C   LIG    1        3.005  -2.529   5.551  0.00  0.00    +0.089 A 
ATOM     12 CL   LIG    1        2.120  -1.627   6.742  0.00  0.00    -0.079 Cl
ATOM     13  C   LIG    1        2.552  -2.298   1.244  0.00  0.00    -0.066 C 
ENDROOT
BRANCH   7  14
ATOM     14  C   LIG    1        1.164  -4.174   2.098  0.00  0.00    -0.042 A 
ATOM     15  C   LIG    1        0.260  -3.995   1.068  0.00  0.00    +0.004 A 
ATOM     16  C   LIG    1       -1.030  -4.477   1.188  0.00  0.00    +0.000 A 
ATOM     17  C   LIG    1       -1.416  -5.139   2.339  0.00  0.00    +0.000 A 
ATOM     18  C   LIG    1       -0.512  -5.319   3.369  0.00  0.00    +0.000 A 
ATOM     19  C   LIG    1        0.779  -4.840   3.247  0.00  0.00    +0.004 A 
ENDBRANCH   7  14
BRANCH   9  20
ATOM     20  O   LIG    1        6.177  -4.295   5.200  0.00  0.00    -0.503 OA
ATOM     21  H   LIG    1        6.914  -3.700   5.008  0.00  0.00    +0.292 HD
ENDBRANCH   9  20
BRANCH  10  22
ATOM     22  O   LIG    1        4.784  -2.867   7.096  0.00  0.00    -0.502 OA
ATOM     23  H   LIG    1        5.322  -2.067   7.175  0.00  0.00    +0.292 HD
ENDBRANCH  10  22
BRANCH   1  24
ATOM     24  C   LIG    1        1.255  -0.409   0.650  0.00  0.00    -0.052 C 
BRANCH  24  26
ATOM     25  C   LIG    1       -0.024   1.611   1.146  0.00  0.00    +0.002 C 
ATOM     26  C   LIG    1       -0.038   0.325   0.896  0.00  0.00    -0.053 C 
ENDBRANCH  24  26
ENDBRANCH   1  24
TORSDOF 5
