REMARK  Name = ZINC03812988
REMARK                            x       y       z     vdW  Elec       q    Type
REMARK                         _______ _______ _______ _____ _____    ______ ____
ROOT
ATOM      1  C   LIG    1       -2.271  -3.202  -1.372  0.00  0.00    +0.045 A 
ATOM      2  C   LIG    1       -1.183  -2.521  -1.875  0.00  0.00    +0.007 A 
ATOM      3  C   LIG    1       -1.132  -1.133  -1.824  0.00  0.00    -0.045 A 
ATOM      4  C   LIG    1       -2.185  -0.435  -1.276  0.00  0.00    -0.032 A 
ATOM      5  C   LIG    1       -2.192   1.072  -1.212  0.00  0.00    +0.022 C 
ATOM      6  C   LIG    1       -2.908   1.547   0.046  0.00  0.00    +0.014 C 
ATOM      7  C   LIG    1       -2.161   1.042   1.284  0.00  0.00    +0.001 C 
ATOM      8  C   LIG    1       -0.729   1.579   1.267  0.00  0.00    +0.003 C 
ATOM      9  C   LIG    1       -0.013   1.086   0.008  0.00  0.00    +0.034 C 
ATOM     10  C   LIG    1       -2.917   1.564  -2.451  0.00  0.00    -0.004 C 
ATOM     11  C   LIG    1       -2.208   0.977  -3.678  0.00  0.00    -0.077 C 
ATOM     12  N   LIG    1       -0.804   1.460  -3.707  0.00  0.00    +0.384 N 
ATOM     13  H   LIG    1       -0.812   2.486  -3.752  0.00  0.00    -0.081 HD
ATOM     14  C   LIG    1       -0.076   1.046  -2.490  0.00  0.00    -0.031 C 
ATOM     15  C   LIG    1       -0.753   1.593  -1.232  0.00  0.00    +0.064 C 
ATOM     16  C   LIG    1       -3.279  -1.115  -0.765  0.00  0.00    +0.050 A 
ATOM     17  C   LIG    1        0.097  -0.458  -2.372  0.00  0.00    +0.023 C 
ATOM     18  C   LIG    1       -3.326  -2.499  -0.810  0.00  0.00    +0.117 A 
ENDROOT
BRANCH  15  19
ATOM     19  O   LIG    1       -0.741   3.021  -1.255  0.00  0.00    -0.389 OA
ATOM     20  H   LIG    1        0.145   3.407  -1.279  0.00  0.00    +0.210 HD
ENDBRANCH  15  19
BRANCH  18  21
ATOM     21  O   LIG    1       -4.399  -3.164  -0.306  0.00  0.00    -0.507 OA
ATOM     22  H   LIG    1       -4.316  -3.395   0.629  0.00  0.00    +0.292 HD
ENDBRANCH  18  21
BRANCH  12  23
ATOM     23  C   LIG    1       -0.121   0.939  -4.899  0.00  0.00    -0.075 C 
BRANCH  23  24
ATOM     24  C   LIG    1       -0.776   1.553  -6.137  0.00  0.00    -0.028 C 
ATOM     25  C   LIG    1       -1.965   0.737  -6.673  0.00  0.00    +0.002 C 
ATOM     26  C   LIG    1       -1.444   1.053  -8.085  0.00  0.00    +0.000 C 
ATOM     27  C   LIG    1       -0.052   1.212  -7.450  0.00  0.00    +0.002 C 
ENDBRANCH  23  24
ENDBRANCH  12  23
TORSDOF 4
