REMARK  Name = ZINC03816310
REMARK                            x       y       z     vdW  Elec       q    Type
REMARK                         _______ _______ _______ _____ _____    ______ ____
ROOT
ATOM      1  C   LIG    1       -3.632   3.474  -1.790  0.00  0.00    +0.032 A 
ATOM      2  C   LIG    1       -3.619   2.617  -2.888  0.00  0.00    +0.025 A 
ATOM      3  C   LIG    1       -3.669   3.116  -4.159  0.00  0.00    +0.032 A 
ATOM      4  C   LIG    1       -3.736   4.497  -4.365  0.00  0.00    +0.090 A 
ATOM      5  C   LIG    1       -3.751   5.364  -3.259  0.00  0.00    +0.068 A 
ATOM      6  N   LIG    1       -3.820   6.647  -3.772  0.00  0.00    -0.338 N 
ATOM      7  C   LIG    1       -3.845   6.535  -5.139  0.00  0.00    +0.146 A 
ATOM      8  H   LIG    1       -3.846   7.496  -3.245  0.00  0.00    +0.167 HD
ATOM      9  N   LIG    1       -3.796   5.269  -5.481  0.00  0.00    -0.227 NA
ATOM     10  C   LIG    1       -3.704   4.845  -1.973  0.00  0.00    +0.051 A 
ENDROOT
BRANCH   7  11
ATOM     11  C   LIG    1       -3.916   7.665  -6.080  0.00  0.00    +0.103 A 
ATOM     12  C   LIG    1       -4.056   7.431  -7.450  0.00  0.00    +0.053 A 
ATOM     13  C   LIG    1       -4.123   8.590  -8.348  0.00  0.00    +0.055 A 
ATOM     14  C   LIG    1       -4.045   9.883  -7.800  0.00  0.00    +0.054 A 
ATOM     15  N   LIG    1       -3.908  10.047  -6.435  0.00  0.00    -0.321 N 
ATOM     16  H   LIG    1       -3.850  10.972  -6.059  0.00  0.00    +0.169 HD
ATOM     17  C   LIG    1       -4.108  10.986  -8.643  0.00  0.00    +0.026 A 
ATOM     18  C   LIG    1       -4.246  10.808 -10.004  0.00  0.00    +0.005 A 
ATOM     19  C   LIG    1       -4.323   9.535 -10.547  0.00  0.00    +0.039 A 
ATOM     20  C   LIG    1       -4.263   8.424  -9.730  0.00  0.00    +0.134 A 
ATOM     21  F   LIG    1       -4.339   7.184 -10.262  0.00  0.00    -0.205 F 
ATOM     22  C   LIG    1       -3.850   8.995  -5.602  0.00  0.00    +0.262 A 
ATOM     23  O   LIG    1       -3.733   9.191  -4.405  0.00  0.00    -0.267 OA
BRANCH  12  24
ATOM     24  N   LIG    1       -4.129   6.150  -7.944  0.00  0.00    -0.357 N 
ATOM     25  H   LIG    1       -3.987   5.986  -8.889  0.00  0.00    +0.142 HD
ATOM     26  H   LIG    1       -4.322   5.410  -7.347  0.00  0.00    +0.142 HD
ENDBRANCH  12  24
ENDBRANCH   7  11
BRANCH   1  32
ATOM     27  C   LIG    1       -4.467   0.849   3.063  0.00  0.00    -0.096 C 
ATOM     28  N   LIG    1       -4.546   1.394   1.691  0.00  0.00    +0.380 N 
ATOM     29  H   LIG    1       -5.403   1.049   1.244  0.00  0.00    -0.082 HD
ATOM     30  C   LIG    1       -4.588   2.871   1.735  0.00  0.00    -0.060 C 
ATOM     31  C   LIG    1       -4.724   3.403   0.306  0.00  0.00    +0.086 C 
ATOM     32  N   LIG    1       -3.580   2.947  -0.495  0.00  0.00    -0.333 N 
ATOM     33  C   LIG    1       -3.515   1.479  -0.526  0.00  0.00    +0.086 C 
ATOM     34  C   LIG    1       -3.379   0.946   0.902  0.00  0.00    -0.060 C 
ENDBRANCH   1  32
TORSDOF 3
