REMARK  Name = ZINC03778441
REMARK                            x       y       z     vdW  Elec       q    Type
REMARK                         _______ _______ _______ _____ _____    ______ ____
ROOT
ATOM      1  N   LIG    1       -1.021   3.692  -0.313  0.00  0.00    +0.383 N 
ATOM      2  H   LIG    1       -1.962   3.281  -0.327  0.00  0.00    -0.081 HD
ATOM      3  C   LIG    1       -0.264   3.194  -1.487  0.00  0.00    -0.061 C 
ATOM      4  C   LIG    1       -1.034   3.630  -2.737  0.00  0.00    +0.020 C 
ATOM      5  C   LIG    1       -0.501   2.949  -3.968  0.00  0.00    -0.042 A 
ATOM      6  C   LIG    1       -0.818   3.500  -5.203  0.00  0.00    +0.004 A 
ATOM      7  C   LIG    1       -0.366   2.919  -6.370  0.00  0.00    +0.004 A 
ATOM      8  C   LIG    1        0.409   1.776  -6.313  0.00  0.00    +0.046 A 
ATOM      9  C   LIG    1        0.730   1.226  -5.084  0.00  0.00    +0.120 A 
ATOM     10  C   LIG    1        0.277   1.816  -3.905  0.00  0.00    -0.003 A 
ATOM     11  C   LIG    1        0.676   1.182  -2.602  0.00  0.00    +0.041 C 
ATOM     12  C   LIG    1       -0.218   1.662  -1.456  0.00  0.00    -0.018 C 
ATOM     13  C   LIG    1        0.404   1.186  -0.139  0.00  0.00    +0.021 C 
ATOM     14  C   LIG    1       -0.375   1.767   1.042  0.00  0.00    +0.061 C 
ATOM     15  C   LIG    1       -0.347   3.296   0.945  0.00  0.00    -0.058 C 
ENDROOT
BRANCH   9  16
ATOM     16  O   LIG    1        1.493   0.102  -5.026  0.00  0.00    -0.506 OA
ATOM     17  H   LIG    1        0.984  -0.720  -5.042  0.00  0.00    +0.292 HD
ENDBRANCH   9  16
BRANCH  14  18
ATOM     18  N   LIG    1       -1.761   1.295   0.997  0.00  0.00    -0.178 NA
ATOM     19  H   LIG    1       -2.207   1.180   0.143  0.00  0.00    +0.149 HD
BRANCH  18  20
ATOM     20  S   LIG    1       -2.567   0.958   2.404  0.00  0.00    +0.097 S 
ATOM     21  O   LIG    1       -3.863   0.508   2.031  0.00  0.00    -0.141 OA
ATOM     22  O   LIG    1       -2.366   2.071   3.264  0.00  0.00    -0.141 OA
BRANCH  20  23
ATOM     23  N   LIG    1       -1.803  -0.330   3.110  0.00  0.00    -0.167 NA
BRANCH  23  24
ATOM     24  C   LIG    1       -2.144  -1.696   2.704  0.00  0.00    +0.107 C 
ATOM     25  C   LIG    1       -1.133  -2.187   1.666  0.00  0.00    +0.022 C 
ENDBRANCH  23  24
BRANCH  23  26
ATOM     26  C   LIG    1       -0.786  -0.104   4.140  0.00  0.00    +0.107 C 
ATOM     27  C   LIG    1       -1.433  -0.197   5.523  0.00  0.00    +0.022 C 
ENDBRANCH  23  26
ENDBRANCH  20  23
ENDBRANCH  18  20
ENDBRANCH  14  18
BRANCH   1  28
ATOM     28  C   LIG    1       -1.139   5.160  -0.376  0.00  0.00    -0.079 C 
BRANCH  28  30
ATOM     29  C   LIG    1       -2.068   7.164   0.792  0.00  0.00    +0.002 C 
ATOM     30  C   LIG    1       -1.803   5.662   0.908  0.00  0.00    -0.022 C 
ENDBRANCH  28  30
ENDBRANCH   1  28
TORSDOF 8
