REMARK  Name = ZINC03796262
REMARK                            x       y       z     vdW  Elec       q    Type
REMARK                         _______ _______ _______ _____ _____    ______ ____
ROOT
ATOM      1  C   LIG    1       -1.943   8.619  -1.791  0.00  0.00    +0.247 C 
ATOM      2  N   LIG    1       -1.786   7.473  -1.099  0.00  0.00    -0.297 N 
ATOM      3  C   LIG    1       -0.531   7.194  -0.387  0.00  0.00    +0.110 C 
ATOM      4  C   LIG    1       -0.001   5.829  -0.837  0.00  0.00    +0.042 C 
ATOM      5  C   LIG    1       -1.089   4.772  -0.633  0.00  0.00    +0.084 C 
ATOM      6  C   LIG    1       -2.309   5.121  -1.487  0.00  0.00    +0.042 C 
ATOM      7  C   LIG    1       -2.866   6.478  -1.044  0.00  0.00    +0.110 C 
ATOM      8  O   LIG    1       -1.069   9.464  -1.774  0.00  0.00    -0.270 OA
ENDROOT
BRANCH   5   9
ATOM      9  N   LIG    1       -0.574   3.459  -1.031  0.00  0.00    -0.268 N 
ATOM     10  C   LIG    1       -0.520   2.421  -0.096  0.00  0.00    +0.040 A 
ATOM     11  C   LIG    1       -1.280   2.487   1.064  0.00  0.00    +0.024 A 
ATOM     12  C   LIG    1       -1.221   1.459   1.984  0.00  0.00    +0.002 A 
ATOM     13  C   LIG    1       -0.408   0.364   1.750  0.00  0.00    +0.000 A 
ATOM     14  C   LIG    1        0.349   0.296   0.596  0.00  0.00    +0.005 A 
ATOM     15  C   LIG    1        0.295   1.321  -0.328  0.00  0.00    -0.025 A 
ATOM     16  C   LIG    1        1.120   1.251  -1.587  0.00  0.00    +0.046 C 
ATOM     17  C   LIG    1        0.359   1.917  -2.734  0.00  0.00    +0.101 C 
ATOM     18  C   LIG    1       -0.156   3.261  -2.295  0.00  0.00    +0.220 C 
ATOM     19  O   LIG    1       -0.196   4.176  -3.090  0.00  0.00    -0.275 OA
ENDBRANCH   5   9
BRANCH   1  23
ATOM     20  C   LIG    1       -5.489   9.278  -4.032  0.00  0.00    +0.121 A 
ATOM     21  C   LIG    1       -5.573   8.887  -2.701  0.00  0.00    +0.046 A 
ATOM     22  C   LIG    1       -4.426   8.673  -1.971  0.00  0.00    +0.016 A 
ATOM     23  C   LIG    1       -3.175   8.848  -2.570  0.00  0.00    +0.037 A 
ATOM     24  C   LIG    1       -3.095   9.245  -3.907  0.00  0.00    +0.016 A 
ATOM     25  C   LIG    1       -4.248   9.452  -4.633  0.00  0.00    +0.046 A 
BRANCH  20  26
ATOM     26  O   LIG    1       -6.622   9.489  -4.749  0.00  0.00    -0.492 OA
BRANCH  26  27
ATOM     27  C   LIG    1       -6.464   9.888  -6.112  0.00  0.00    +0.230 C 
BRANCH  27  28
ATOM     28  C   LIG    1       -7.841  10.077  -6.751  0.00  0.00    +0.060 C 
BRANCH  28  29
ATOM     29  C   LIG    1       -7.671  10.504  -8.210  0.00  0.00    +0.107 C 
BRANCH  29  32
ATOM     30  C   LIG    1      -10.443  11.249 -10.743  0.00  0.00    +0.109 C 
ATOM     31  C   LIG    1       -9.087  11.063 -10.113  0.00  0.00    +0.210 C 
ATOM     32  N   LIG    1       -8.989  10.685  -8.823  0.00  0.00    -0.315 N 
ATOM     33  H   LIG    1       -9.792  10.532  -8.300  0.00  0.00    +0.149 HD
ATOM     34  O   LIG    1       -8.083  11.254 -10.767  0.00  0.00    -0.276 OA
ENDBRANCH  29  32
ENDBRANCH  28  29
ENDBRANCH  27  28
ENDBRANCH  26  27
ENDBRANCH  20  26
ENDBRANCH   1  23
TORSDOF 7
