REMARK  Name = ZINC03871576
REMARK                            x       y       z     vdW  Elec       q    Type
REMARK                         _______ _______ _______ _____ _____    ______ ____
ROOT
ATOM      1  C   LIG    1       -1.264  -0.761   0.011  0.00  0.00    +0.139 A 
ATOM      2  C   LIG    1       -1.213  -2.120   0.008  0.00  0.00    +0.098 A 
ATOM      3  C   LIG    1       -2.418  -2.863   0.017  0.00  0.00    +0.197 A 
ATOM      4  C   LIG    1       -3.681  -2.106   0.028  0.00  0.00    +0.105 A 
ATOM      5  C   LIG    1       -4.920  -2.759   0.037  0.00  0.00    +0.135 A 
ATOM      6  C   LIG    1       -6.083  -2.012   0.048  0.00  0.00    +0.091 A 
ATOM      7  C   LIG    1       -6.021  -0.623   0.049  0.00  0.00    +0.124 A 
ATOM      8  C   LIG    1       -4.798   0.030   0.040  0.00  0.00    +0.092 A 
ATOM      9  C   LIG    1       -3.621  -0.702   0.029  0.00  0.00    +0.146 A 
ATOM     10  O   LIG    1       -2.410  -4.084   0.016  0.00  0.00    -0.287 OA
ATOM     11  O   LIG    1       -2.422  -0.082   0.026  0.00  0.00    -0.454 OA
ENDROOT
BRANCH   1  17
ATOM     12  C   LIG    1       -0.017   1.393   0.010  0.00  0.00    +0.015 A 
ATOM     13  C   LIG    1        1.168   2.096   0.002  0.00  0.00    +0.046 A 
ATOM     14  C   LIG    1        2.380   1.418  -0.013  0.00  0.00    +0.117 A 
ATOM     15  C   LIG    1        2.404   0.028  -0.021  0.00  0.00    +0.046 A 
ATOM     16  C   LIG    1        1.224  -0.682  -0.013  0.00  0.00    +0.015 A 
ATOM     17  C   LIG    1        0.002  -0.004   0.002  0.00  0.00    +0.018 A 
BRANCH  14  18
ATOM     18  O   LIG    1        3.546   2.115  -0.022  0.00  0.00    -0.507 OA
ATOM     19  H   LIG    1        3.892   2.312   0.859  0.00  0.00    +0.292 HD
ENDBRANCH  14  18
ENDBRANCH   1  17
BRANCH   5  20
ATOM     20  O   LIG    1       -4.978  -4.115   0.036  0.00  0.00    -0.506 OA
ATOM     21  H   LIG    1       -4.987  -4.509   0.918  0.00  0.00    +0.292 HD
ENDBRANCH   5  20
BRANCH   7  22
ATOM     22  O   LIG    1       -7.170   0.101   0.059  0.00  0.00    -0.507 OA
ATOM     23  H   LIG    1       -7.495   0.310   0.946  0.00  0.00    +0.292 HD
ENDBRANCH   7  22
TORSDOF 4
