REMARK  Name = ZINC03806987
REMARK                            x       y       z     vdW  Elec       q    Type
REMARK                         _______ _______ _______ _____ _____    ______ ____
ROOT
ATOM      1  C   UNK A  0        1.015   1.676   3.167  0.00  0.00    +0.012 A 
ATOM      2  C   UNK A  0        1.542   1.049   4.269  0.00  0.00    +0.021 A 
ATOM      3  C   UNK A  0        1.002  -0.180   4.615  0.00  0.00    +0.074 A 
ATOM      4  S   UNK A  0       -0.248  -0.397   3.361  0.00  0.00    -0.089 S 
ATOM      5  C   UNK A  0        0.000   1.080   2.488  0.00  0.00    -0.009 A 
ENDROOT
BRANCH   3   6
ATOM      6  C   UNK A  0        1.364  -1.069   5.723  0.00  0.00    +0.251 C 
ATOM      7  N   GLU A  1        0.710  -2.235   5.892  0.00  0.00    -0.298 N 
ATOM      8  H   GLU A  1        0.001  -2.486   5.280  0.00  0.00    +0.150 HD
ATOM      9  O   UNK A  0        2.254  -0.753   6.491  0.00  0.00    -0.270 OA
BRANCH   7  10
ATOM     10  CA  GLU A  1        1.071  -3.123   7.000  0.00  0.00    +0.182 C 
BRANCH  10  11
ATOM     11  C   GLU A  1        2.228  -3.997   6.586  0.00  0.00    +0.325 C 
ATOM     12  O   GLU A  1        2.701  -3.889   5.480  0.00  0.00    -0.249 OA
BRANCH  11  13
ATOM     13  OXT GLU A  1        2.731  -4.896   7.447  0.00  0.00    -0.479 OA
ATOM     14  HXT GLU A  1        2.364  -4.980   8.305  0.00  0.00    +0.295 HD
ENDBRANCH  11  13
ENDBRANCH  10  11
BRANCH  10  15
ATOM     15  CB  GLU A  1       -0.128  -4.002   7.361  0.00  0.00    +0.045 C 
BRANCH  15  16
ATOM     16  CG  GLU A  1       -1.260  -3.124   7.899  0.00  0.00    +0.123 C 
BRANCH  16  17
ATOM     17  CD  GLU A  1       -2.441  -3.989   8.254  0.00  0.00    +0.305 C 
ATOM     18  OE1 GLU A  1       -2.384  -5.186   8.094  0.00  0.00    -0.251 OA
BRANCH  17  19
ATOM     19  OE2 GLU A  1       -3.557  -3.431   8.749  0.00  0.00    -0.481 OA
ATOM     20  HE2 GLU A  1       -3.601  -2.504   8.874  0.00  0.00    +0.295 HD
ENDBRANCH  17  19
ENDBRANCH  16  17
ENDBRANCH  15  16
ENDBRANCH  10  15
ENDBRANCH   7  10
ENDBRANCH   3   6
BRANCH   5  21
ATOM     21  C   UNK A  0       -0.729   1.579   1.267  0.00  0.00    +0.043 C 
BRANCH  21  22
ATOM     22  C   UNK A  0       -0.013   1.086   0.008  0.00  0.00    +0.021 C 
BRANCH  22  23
ATOM     23  C   UNK A  0       -0.753   1.593  -1.232  0.00  0.00    +0.069 C 
ATOM     24  C   UNK A  0        0.027   1.208  -2.499  0.00  0.00    +0.117 C 
ATOM     25  N   UNK A  0       -0.644   1.787  -3.658  0.00  0.00    -0.327 N 
ATOM     26  H   UNK A  0       -0.127   2.346  -4.259  0.00  0.00    +0.148 HD
ATOM     27  C   UNK A  0       -1.977   1.577  -3.943  0.00  0.00    +0.141 A 
ATOM     28  C   UNK A  0       -2.889   1.144  -2.995  0.00  0.00    +0.112 A 
ATOM     29  C   UNK A  0       -4.231   0.970  -3.362  0.00  0.00    +0.268 A 
ATOM     30  N   UNK A  0       -4.596   1.226  -4.636  0.00  0.00    -0.294 N 
ATOM     31  C   UNK A  0       -3.663   1.640  -5.536  0.00  0.00    +0.195 A 
ATOM     32  H   UNK A  0       -5.548   1.112  -4.917  0.00  0.00    +0.172 HD
ATOM     33  O   UNK A  0       -5.056   0.593  -2.543  0.00  0.00    -0.267 OA
ATOM     34  N   UNK A  0       -2.405   1.806  -5.198  0.00  0.00    -0.200 NA
ATOM     35  S   UNK A  0       -2.390   0.807  -1.338  0.00  0.00    -0.112 S 
BRANCH  31  36
ATOM     36  N   UNK A  0       -4.046   1.889  -6.830  0.00  0.00    -0.329 N 
ATOM     37  H   UNK A  0       -3.391   2.185  -7.482  0.00  0.00    +0.145 HD
ATOM     38  H   UNK A  0       -4.972   1.770  -7.093  0.00  0.00    +0.145 HD
ENDBRANCH  31  36
ENDBRANCH  22  23
ENDBRANCH  21  22
ENDBRANCH   5  21
TORSDOF 12
