REMARK  Name = ZINC03797930
REMARK                            x       y       z     vdW  Elec       q    Type
REMARK                         _______ _______ _______ _____ _____    ______ ____
ROOT
ATOM      1  C   LIG    1        2.478  -3.150  -2.464  0.00  0.00    +0.013 A 
ATOM      2  C   LIG    1        3.436  -3.275  -1.502  0.00  0.00    +0.095 A 
ATOM      3  N   LIG    1        4.564  -2.619  -1.891  0.00  0.00    -0.346 N 
ATOM      4  C   LIG    1        4.378  -2.040  -3.129  0.00  0.00    +0.050 A 
ATOM      5  C   LIG    1        5.197  -1.277  -3.955  0.00  0.00    +0.026 A 
ATOM      6  C   LIG    1        4.727  -0.840  -5.175  0.00  0.00    +0.002 A 
ATOM      7  C   LIG    1        3.437  -1.142  -5.585  0.00  0.00    +0.001 A 
ATOM      8  C   LIG    1        2.609  -1.893  -4.780  0.00  0.00    +0.010 A 
ATOM      9  C   LIG    1        3.073  -2.348  -3.548  0.00  0.00    +0.008 A 
ENDROOT
BRANCH   1  11
ATOM     10  C   LIG    1        0.040  -3.248  -1.685  0.00  0.00    +0.059 C 
ATOM     11  C   LIG    1        1.117  -3.712  -2.430  0.00  0.00    +0.059 C 
ATOM     12  C   LIG    1        0.621  -4.884  -3.181  0.00  0.00    +0.252 C 
ATOM     13  N   LIG    1       -0.674  -5.073  -2.875  0.00  0.00    -0.248 N 
ATOM     14  H   LIG    1       -1.230  -5.779  -3.238  0.00  0.00    +0.158 HD
ATOM     15  O   LIG    1        1.275  -5.564  -3.946  0.00  0.00    -0.270 OA
ATOM     16  C   LIG    1       -1.090  -4.149  -1.992  0.00  0.00    +0.252 C 
ATOM     17  O   LIG    1       -2.209  -4.067  -1.526  0.00  0.00    -0.270 OA
BRANCH  10  21
ATOM     18  C   LIG    1       -0.018   1.461   0.010  0.00  0.00    +0.149 C 
ATOM     19  N   LIG    1        0.002  -0.004   0.002  0.00  0.00    -0.349 N 
ATOM     20  C   LIG    1        0.008  -0.776  -1.119  0.00  0.00    +0.095 A 
ATOM     21  C   LIG    1        0.028  -2.094  -0.770  0.00  0.00    +0.013 A 
ATOM     22  C   LIG    1        0.035  -2.137   0.703  0.00  0.00    +0.008 A 
ATOM     23  C   LIG    1        0.054  -3.168   1.640  0.00  0.00    +0.010 A 
ATOM     24  C   LIG    1        0.068  -2.868   2.985  0.00  0.00    +0.001 A 
ATOM     25  C   LIG    1        0.053  -1.546   3.407  0.00  0.00    +0.002 A 
ATOM     26  C   LIG    1        0.031  -0.516   2.492  0.00  0.00    +0.026 A 
ATOM     27  C   LIG    1        0.024  -0.798   1.130  0.00  0.00    +0.049 A 
ENDBRANCH  10  21
ENDBRANCH   1  11
BRANCH   3  28
ATOM     28  C   LIG    1        5.799  -2.539  -1.107  0.00  0.00    +0.122 C 
BRANCH  28  29
ATOM     29  C   LIG    1        5.802  -1.244  -0.291  0.00  0.00    +0.033 C 
BRANCH  29  30
ATOM     30  C   LIG    1        7.092  -1.161   0.528  0.00  0.00    +0.079 C 
BRANCH  30  31
ATOM     31  S   LIG    1        7.096   0.374   1.494  0.00  0.00    -0.093 S 
BRANCH  31  32
ATOM     32  C   LIG    1        8.624   0.322   2.370  0.00  0.00    +0.123 C 
ATOM     33  N   LIG    1        9.248   1.455   2.690  0.00  0.00    -0.382 N 
ATOM     34  H   LIG    1       10.089   1.427   3.172  0.00  0.00    +0.158 HD
ATOM     35  H   LIG    1        8.861   2.309   2.441  0.00  0.00    +0.158 HD
BRANCH  32  36
ATOM     36  N   LIG    1        9.156  -0.852   2.713  0.00  0.00    -0.340 N 
ATOM     37  H   LIG    1        9.997  -0.880   3.196  0.00  0.00    +0.144 HD
ATOM     38  H   LIG    1        8.702  -1.677   2.481  0.00  0.00    +0.144 HD
ENDBRANCH  32  36
ENDBRANCH  31  32
ENDBRANCH  30  31
ENDBRANCH  29  30
ENDBRANCH  28  29
ENDBRANCH   3  28
TORSDOF 8
