REMARK  Name = ZINC03861295
REMARK                            x       y       z     vdW  Elec       q    Type
REMARK                         _______ _______ _______ _____ _____    ______ ____
ROOT
ATOM      1  C   LIG    1       -2.250   2.777  -3.394  0.00  0.00    +0.000 A 
ATOM      2  C   LIG    1       -2.680   1.704  -2.636  0.00  0.00    +0.000 A 
ATOM      3  C   LIG    1       -1.943   1.298  -1.543  0.00  0.00    +0.002 A 
ATOM      4  C   LIG    1       -0.771   1.958  -1.198  0.00  0.00    -0.059 A 
ATOM      5  C   LIG    1       -0.340   3.024  -1.955  0.00  0.00    -0.046 A 
ATOM      6  C   LIG    1        0.924   3.782  -1.643  0.00  0.00    +0.035 C 
ATOM      7  C   LIG    1        1.376   3.506  -0.211  0.00  0.00    +0.003 C 
ATOM      8  C   LIG    1        1.417   1.988  -0.001  0.00  0.00    -0.011 C 
ATOM      9  C   LIG    1       -0.018   1.465   0.010  0.00  0.00    -0.044 C 
ATOM     10  C   LIG    1       -1.085   3.433  -3.054  0.00  0.00    +0.004 A 
ENDROOT
BRANCH   9  11
ATOM     11  N   LIG    1        0.014  -0.008   0.024  0.00  0.00    +0.383 N 
ATOM     12  H   LIG    1        0.485  -0.328   0.879  0.00  0.00    -0.089 HD
ATOM     13  H   LIG    1        0.526  -0.354  -0.786  0.00  0.00    -0.089 HD
ATOM     14  H   LIG    1       -0.935  -0.378   0.009  0.00  0.00    -0.089 HD
ENDBRANCH   9  11
TORSDOF 1
