REMARK  Name = ZINC03870325
REMARK                            x       y       z     vdW  Elec       q    Type
REMARK                         _______ _______ _______ _____ _____    ______ ____
ROOT
ATOM      1  C   LIG    1       -1.440  -0.412  -0.252  0.00  0.00    +0.085 C 
ENDROOT
BRANCH   1   2
ATOM      2  C   LIG    1       -1.742   0.033  -1.660  0.00  0.00    -0.020 A 
ATOM      3  C   LIG    1       -0.733   0.546  -2.452  0.00  0.00    +0.054 A 
ATOM      4  C   LIG    1       -1.006   0.957  -3.748  0.00  0.00    +0.165 A 
ATOM      5  C   LIG    1       -2.298   0.851  -4.250  0.00  0.00    +0.204 A 
ATOM      6  C   LIG    1       -3.310   0.334  -3.451  0.00  0.00    +0.165 A 
ATOM      7  C   LIG    1       -3.027  -0.079  -2.158  0.00  0.00    +0.054 A 
BRANCH   4   8
ATOM      8  O   LIG    1       -0.012   1.463  -4.526  0.00  0.00    -0.491 OA
ATOM      9  C   LIG    1        1.291   1.542  -3.944  0.00  0.00    +0.277 C 
ENDBRANCH   4   8
BRANCH   5  10
ATOM     10  O   LIG    1       -2.570   1.254  -5.522  0.00  0.00    -0.488 OA
ATOM     11  C   LIG    1       -2.439   0.275  -6.554  0.00  0.00    +0.277 C 
ENDBRANCH   5  10
BRANCH   6  12
ATOM     12  O   LIG    1       -4.575   0.229  -3.938  0.00  0.00    -0.491 OA
ATOM     13  C   LIG    1       -5.565  -0.311  -3.060  0.00  0.00    +0.277 C 
ENDBRANCH   6  12
ENDBRANCH   1   2
BRANCH   1  15
ATOM     14  C   LIG    1        0.980  -0.727  -0.785  0.00  0.00    +0.009 C 
ATOM     15  C   LIG    1       -0.015   0.003   0.119  0.00  0.00    +0.007 C 
ATOM     16  C   LIG    1        0.140   1.514  -0.065  0.00  0.00    +0.009 C 
ENDBRANCH   1  15
BRANCH   1  17
ATOM     17  C   LIG    1       -1.565  -1.876  -0.163  0.00  0.00    +0.074 C 
ATOM     18  N   LIG    1       -1.660  -3.006  -0.094  0.00  0.00    -0.196 NA
ENDBRANCH   1  17
BRANCH   1  19
ATOM     19  C   LIG    1       -2.430   0.244   0.713  0.00  0.00    +0.025 C 
BRANCH  19  20
ATOM     20  C   LIG    1       -2.152  -0.242   2.137  0.00  0.00    -0.017 C 
BRANCH  20  21
ATOM     21  C   LIG    1       -3.220   0.311   3.082  0.00  0.00    -0.079 C 
BRANCH  21  22
ATOM     22  N   LIG    1       -2.953  -0.155   4.449  0.00  0.00    +0.378 N 
ATOM     23  H   LIG    1       -2.892  -1.162   4.456  0.00  0.00    -0.082 HD
ATOM     24  C   LIG    1       -1.683   0.415   4.921  0.00  0.00    -0.096 C 
BRANCH  22  25
ATOM     25  C   LIG    1       -4.042   0.276   5.336  0.00  0.00    -0.075 C 
BRANCH  25  26
ATOM     26  C   LIG    1       -3.828  -0.314   6.731  0.00  0.00    +0.017 C 
BRANCH  26  27
ATOM     27  C   LIG    1       -4.946   0.128   7.640  0.00  0.00    -0.045 A 
ATOM     28  C   LIG    1       -4.825   1.300   8.363  0.00  0.00    +0.007 A 
ATOM     29  C   LIG    1       -5.847   1.709   9.198  0.00  0.00    +0.049 A 
ATOM     30  C   LIG    1       -6.997   0.945   9.312  0.00  0.00    +0.161 A 
ATOM     31  C   LIG    1       -7.119  -0.235   8.584  0.00  0.00    +0.162 A 
ATOM     32  C   LIG    1       -6.093  -0.637   7.745  0.00  0.00    +0.053 A 
BRANCH  30  33
ATOM     33  O   LIG    1       -8.004   1.346  10.133  0.00  0.00    -0.491 OA
ATOM     34  C   LIG    1       -7.809   2.567  10.850  0.00  0.00    +0.277 C 
ENDBRANCH  30  33
BRANCH  31  35
ATOM     35  O   LIG    1       -8.246  -0.989   8.692  0.00  0.00    -0.491 OA
ATOM     36  C   LIG    1       -8.302  -2.187   7.915  0.00  0.00    +0.277 C 
ENDBRANCH  31  35
ENDBRANCH  26  27
ENDBRANCH  25  26
ENDBRANCH  22  25
ENDBRANCH  21  22
ENDBRANCH  20  21
ENDBRANCH  19  20
ENDBRANCH   1  19
TORSDOF 15
