REMARK  Name = ZINC03871140
REMARK                            x       y       z     vdW  Elec       q    Type
REMARK                         _______ _______ _______ _____ _____    ______ ____
ROOT
ATOM      1  C   LIG    1       -0.017   1.367   0.010  0.00  0.00    +0.105 A 
ATOM      2  C   LIG    1        1.241   1.839   0.000  0.00  0.00    +0.044 A 
ATOM      3  I   LIG    1        1.820   3.853   0.005  0.00  0.00    -0.041 I 
ATOM      4  C   LIG    1        2.128   0.677  -0.015  0.00  0.00    +0.071 A 
ATOM      5  C   LIG    1        3.519   0.488  -0.029  0.00  0.00    +0.130 A 
ATOM      6  N   LIG    1        3.986  -0.756  -0.041  0.00  0.00    -0.220 NA
ATOM      7  C   LIG    1        3.166  -1.792  -0.039  0.00  0.00    +0.225 A 
ATOM      8  N   LIG    1        1.857  -1.662  -0.025  0.00  0.00    -0.218 NA
ATOM      9  C   LIG    1        1.293  -0.455  -0.013  0.00  0.00    +0.149 A 
ATOM     10  N   LIG    1        0.002  -0.004   0.002  0.00  0.00    -0.302 N 
ENDROOT
BRANCH  10  11
ATOM     11  C1* LIG    1       -1.187  -0.860   0.009  0.00  0.00    +0.252 C 
ATOM     12  C2* LIG    1       -1.555  -1.256   1.462  0.00  0.00    +0.195 C 
ATOM     13  C3* LIG    1       -3.073  -1.550   1.311  0.00  0.00    +0.178 C 
ATOM     14  C4* LIG    1       -3.500  -0.523   0.240  0.00  0.00    +0.177 C 
ATOM     15  O4* LIG    1       -2.325  -0.137  -0.485  0.00  0.00    -0.346 OA
BRANCH  12  16
ATOM     16  O2* LIG    1       -0.842  -2.424   1.874  0.00  0.00    -0.385 OA
ATOM     17  H2* LIG    1       -1.042  -2.709   2.776  0.00  0.00    +0.210 HD
ENDBRANCH  12  16
BRANCH  13  18
ATOM     18  O3* LIG    1       -3.289  -2.886   0.855  0.00  0.00    -0.386 OA
ATOM     19  H3* LIG    1       -4.222  -3.118   0.745  0.00  0.00    +0.210 HD
ENDBRANCH  13  18
BRANCH  14  20
ATOM     20  C5* LIG    1       -4.513  -1.159  -0.714  0.00  0.00    +0.190 C 
BRANCH  20  21
ATOM     21  O5* LIG    1       -4.991  -0.171  -1.629  0.00  0.00    -0.392 OA
ATOM     22  H5* LIG    1       -5.639  -0.505  -2.265  0.00  0.00    +0.210 HD
ENDBRANCH  20  21
ENDBRANCH  14  20
ENDBRANCH  10  11
BRANCH   5  23
ATOM     23  N   LIG    1        4.381   1.570  -0.032  0.00  0.00    -0.343 N 
ATOM     24  H   LIG    1        5.340   1.425  -0.042  0.00  0.00    +0.144 HD
ATOM     25  H   LIG    1        4.027   2.473  -0.024  0.00  0.00    +0.144 HD
ENDBRANCH   5  23
TORSDOF 6
