REMARK  Name = ZINC03785147
REMARK                            x       y       z     vdW  Elec       q    Type
REMARK                         _______ _______ _______ _____ _____    ______ ____
ROOT
ATOM      1  C   LIG    1        2.525   6.184   0.013  0.00  0.00    +0.044 C 
ENDROOT
BRANCH   1   2
ATOM      2  C   LIG    1        3.590   5.086  -0.003  0.00  0.00    +0.229 C 
BRANCH   2   3
ATOM      3  O   LIG    1        2.954   3.806  -0.004  0.00  0.00    -0.492 OA
BRANCH   3   6
ATOM      4  C   LIG    1        4.029   0.333  -0.033  0.00  0.00    +0.019 A 
ATOM      5  C   LIG    1        3.210   1.442  -0.019  0.00  0.00    +0.046 A 
ATOM      6  C   LIG    1        3.764   2.716  -0.018  0.00  0.00    +0.121 A 
ATOM      7  C   LIG    1        5.143   2.877  -0.030  0.00  0.00    +0.046 A 
ATOM      8  C   LIG    1        5.968   1.773  -0.044  0.00  0.00    +0.019 A 
ATOM      9  C   LIG    1        5.415   0.491  -0.045  0.00  0.00    +0.061 A 
BRANCH   9  10
ATOM     10  C   LIG    1        6.297  -0.696  -0.060  0.00  0.00    +0.266 C 
ATOM     11  N   LIG    1        5.709  -1.883  -0.060  0.00  0.00    -0.288 N 
ATOM     12  H   LIG    1        4.684  -1.949  -0.050  0.00  0.00    +0.301 HD
ATOM     13  H   LIG    1        6.274  -2.733  -0.070  0.00  0.00    +0.301 HD
BRANCH  10  14
ATOM     14  N   LIG    1        7.666  -0.538  -0.072  0.00  0.00    -0.250 N 
ATOM     15  H   LIG    1        8.244  -1.317  -0.081  0.00  0.00    +0.288 HD
ATOM     16  H   LIG    1        8.051   0.352  -0.071  0.00  0.00    +0.288 HD
ENDBRANCH  10  14
ENDBRANCH   9  10
ENDBRANCH   3   6
ENDBRANCH   2   3
ENDBRANCH   1   2
BRANCH   1  17
ATOM     17  C   LIG    1        3.205   7.554   0.014  0.00  0.00    +0.044 C 
BRANCH  17  18
ATOM     18  C   LIG    1        2.140   8.652   0.030  0.00  0.00    +0.229 C 
BRANCH  18  19
ATOM     19  O   LIG    1        2.775   9.932   0.031  0.00  0.00    -0.492 OA
BRANCH  19  20
ATOM     20  C   LIG    1        1.966  11.022   0.044  0.00  0.00    +0.121 A 
ATOM     21  C   LIG    1        0.586  10.861   0.051  0.00  0.00    +0.046 A 
ATOM     22  C   LIG    1       -0.238  11.965   0.070  0.00  0.00    +0.019 A 
ATOM     23  C   LIG    1        0.315  13.247   0.071  0.00  0.00    +0.061 A 
ATOM     24  C   LIG    1        1.701  13.405   0.059  0.00  0.00    +0.019 A 
ATOM     25  C   LIG    1        2.520  12.297   0.046  0.00  0.00    +0.046 A 
BRANCH  23  26
ATOM     26  C   LIG    1       -0.567  14.434   0.086  0.00  0.00    +0.266 C 
ATOM     27  N   LIG    1        0.021  15.621   0.087  0.00  0.00    -0.288 N 
ATOM     28  H   LIG    1        1.045  15.687   0.078  0.00  0.00    +0.301 HD
ATOM     29  H   LIG    1       -0.545  16.471   0.097  0.00  0.00    +0.301 HD
BRANCH  26  30
ATOM     30  N   LIG    1       -1.936  14.276   0.098  0.00  0.00    -0.250 N 
ATOM     31  H   LIG    1       -2.514  15.055   0.107  0.00  0.00    +0.288 HD
ATOM     32  H   LIG    1       -2.321  13.386   0.096  0.00  0.00    +0.288 HD
ENDBRANCH  26  30
ENDBRANCH  23  26
ENDBRANCH  19  20
ENDBRANCH  18  19
ENDBRANCH  17  18
ENDBRANCH   1  17
TORSDOF 11
