REMARK  Name = ZINC03813668
REMARK                            x       y       z     vdW  Elec       q    Type
REMARK                         _______ _______ _______ _____ _____    ______ ____
ROOT
ATOM      1  C   LIG    1       -0.013   1.086   0.008  0.00  0.00    -0.074 C 
ATOM      2  N   LIG    1       -0.718   1.579  -1.190  0.00  0.00    +0.381 N 
ATOM      3  H   LIG    1       -0.749   2.605  -1.166  0.00  0.00    -0.086 HD
ATOM      4  H   LIG    1       -0.213   1.273  -2.030  0.00  0.00    -0.086 HD
ATOM      5  C   LIG    1       -2.095   1.052  -1.231  0.00  0.00    -0.048 C 
ATOM      6  C   LIG    1       -2.873   1.544  -0.009  0.00  0.00    +0.126 C 
ATOM      7  C   LIG    1       -2.170   1.064   1.264  0.00  0.00    +0.145 C 
ATOM      8  C   LIG    1       -0.729   1.579   1.267  0.00  0.00    +0.028 C 
ENDROOT
BRANCH   6   9
ATOM      9  O   LIG    1       -4.202   1.021  -0.046  0.00  0.00    -0.391 OA
ATOM     10  H   LIG    1       -4.706   1.283  -0.829  0.00  0.00    +0.210 HD
ENDBRANCH   6   9
BRANCH   7  11
ATOM     11  O   LIG    1       -2.860   1.568   2.410  0.00  0.00    -0.389 OA
ATOM     12  H   LIG    1       -3.783   1.285   2.469  0.00  0.00    +0.210 HD
ENDBRANCH   7  11
BRANCH   8  13
ATOM     13  C   LIG    1       -0.002   1.054   2.507  0.00  0.00    +0.160 C 
BRANCH  13  14
ATOM     14  O   LIG    1        1.307   1.624   2.569  0.00  0.00    -0.395 OA
ATOM     15  H   LIG    1        1.827   1.335   3.331  0.00  0.00    +0.209 HD
ENDBRANCH  13  14
ENDBRANCH   8  13
TORSDOF 4
