REMARK  Name = ZINC03777403
REMARK                            x       y       z     vdW  Elec       q    Type
REMARK                         _______ _______ _______ _____ _____    ______ ____
ROOT
ATOM      1  C   LIG    1        0.855   5.804   0.025  0.00  0.00    +0.177 C 
ATOM      2  C   LIG    1        2.166   5.300   0.113  0.00  0.00    +0.160 C 
ATOM      3  C   LIG    1        2.331   3.932   0.102  0.00  0.00    +0.064 C 
ATOM      4  C   LIG    1        1.143   3.176   0.002  0.00  0.00    +0.062 A 
ATOM      5  C   LIG    1        1.166   1.770  -0.019  0.00  0.00    +0.131 A 
ATOM      6  C   LIG    1       -0.009   1.077  -0.116  0.00  0.00    +0.091 A 
ATOM      7  C   LIG    1       -1.227   1.754  -0.199  0.00  0.00    +0.124 A 
ATOM      8  C   LIG    1       -1.277   3.131  -0.176  0.00  0.00    +0.092 A 
ATOM      9  C   LIG    1       -0.089   3.872  -0.077  0.00  0.00    +0.143 A 
ATOM     10  O   LIG    1       -0.117   5.089  -0.058  0.00  0.00    -0.451 OA
ENDROOT
BRANCH   1  12
ATOM     11  C   LIG    1        0.658   7.984  -1.163  0.00  0.00    +0.061 A 
ATOM     12  C   LIG    1        0.658   7.270   0.036  0.00  0.00    +0.028 A 
ATOM     13  C   LIG    1        0.466   7.941   1.245  0.00  0.00    +0.061 A 
ATOM     14  C   LIG    1        0.287   9.312   1.253  0.00  0.00    +0.163 A 
ATOM     15  C   LIG    1        0.288  10.022   0.056  0.00  0.00    +0.201 A 
ATOM     16  C   LIG    1        0.473   9.355  -1.151  0.00  0.00    +0.163 A 
BRANCH  14  17
ATOM     17  O   LIG    1        0.105   9.967   2.431  0.00  0.00    -0.503 OA
ATOM     18  H   LIG    1       -0.037  11.058   2.438  0.00  0.00    +0.292 HD
ENDBRANCH  14  17
BRANCH  15  19
ATOM     19  O   LIG    1        0.107  11.370   0.066  0.00  0.00    -0.501 OA
ATOM     20  H   LIG    1        0.107  11.932  -0.880  0.00  0.00    +0.292 HD
ENDBRANCH  15  19
BRANCH  16  21
ATOM     21  O   LIG    1        0.473  10.051  -2.320  0.00  0.00    -0.503 OA
ATOM     22  H   LIG    1        0.326  11.141  -2.310  0.00  0.00    +0.292 HD
ENDBRANCH  16  21
ENDBRANCH   1  12
BRANCH   2  23
ATOM     23  O   LIG    1        3.234   6.135   0.206  0.00  0.00    -0.503 OA
ATOM     24  H   LIG    1        4.251   5.721   0.274  0.00  0.00    +0.292 HD
ENDBRANCH   2  23
BRANCH   5  25
ATOM     25  O   LIG    1        2.346   1.105   0.057  0.00  0.00    -0.506 OA
ATOM     26  H   LIG    1        2.360   0.005   0.041  0.00  0.00    +0.292 HD
ENDBRANCH   5  25
BRANCH   7  27
ATOM     27  O   LIG    1       -2.381   1.045  -0.300  0.00  0.00    -0.507 OA
ATOM     28  H   LIG    1       -3.345   1.570  -0.367  0.00  0.00    +0.292 HD
ENDBRANCH   7  27
TORSDOF 7
