REMARK  Name = ZINC03844702
REMARK                            x       y       z     vdW  Elec       q    Type
REMARK                         _______ _______ _______ _____ _____    ______ ____
ROOT
ATOM      1  C   LIG    1        5.409  -1.657  -1.752  0.00  0.00    +0.216 C 
ATOM      2  O   LIG    1        6.103  -2.045  -0.842  0.00  0.00    -0.287 OA
ENDROOT
BRANCH   1   3
ATOM      3  C   LIG    1        4.136  -0.945  -1.464  0.00  0.00    +0.204 C 
ATOM      4  O   LIG    1        3.442  -0.557  -2.373  0.00  0.00    -0.289 OA
BRANCH   3   5
ATOM      5  C   LIG    1        3.711  -0.707  -0.038  0.00  0.00    +0.118 C 
BRANCH   5   9
ATOM      6  C   LIG    1       -0.017   1.378   0.010  0.00  0.00    +0.000 A 
ATOM      7  C   LIG    1        1.171   2.086   0.002  0.00  0.00    +0.000 A 
ATOM      8  C   LIG    1        2.377   1.411  -0.014  0.00  0.00    +0.004 A 
ATOM      9  C   LIG    1        2.396   0.029  -0.021  0.00  0.00    -0.040 A 
ATOM     10  C   LIG    1        1.208  -0.679  -0.014  0.00  0.00    +0.004 A 
ATOM     11  C   LIG    1        0.002  -0.004   0.002  0.00  0.00    +0.000 A 
ENDBRANCH   5   9
ENDBRANCH   3   5
ENDBRANCH   1   3
BRANCH   1  12
ATOM     12  C   LIG    1        5.833  -1.894  -3.178  0.00  0.00    +0.160 C 
ATOM     13 BR   LIG    1        5.283  -0.368  -4.288  0.00  0.00    -0.074 Br
BRANCH  12  14
ATOM     14  C   LIG    1        5.182  -3.151  -3.693  0.00  0.00    -0.026 A 
ATOM     15  C   LIG    1        3.807  -3.213  -3.827  0.00  0.00    +0.005 A 
ATOM     16  C   LIG    1        3.210  -4.365  -4.304  0.00  0.00    +0.000 A 
ATOM     17  C   LIG    1        3.986  -5.458  -4.639  0.00  0.00    +0.000 A 
ATOM     18  C   LIG    1        5.360  -5.399  -4.500  0.00  0.00    +0.000 A 
ATOM     19  C   LIG    1        5.958  -4.245  -4.027  0.00  0.00    +0.005 A 
ENDBRANCH  12  14
ENDBRANCH   1  12
TORSDOF 5
