REMARK  Name = ZINC03848516
REMARK                            x       y       z     vdW  Elec       q    Type
REMARK                         _______ _______ _______ _____ _____    ______ ____
ROOT
ATOM      1  C   LIG    1        0.008  -0.691  -1.213  0.00  0.00    +0.135 A 
ATOM      2  C   LIG    1       -0.256  -2.128  -1.172  0.00  0.00    +0.015 A 
ATOM      3  C   LIG    1       -0.531  -2.854  -2.337  0.00  0.00    +0.011 A 
ATOM      4  C   LIG    1       -0.776  -4.193  -2.254  0.00  0.00    +0.001 A 
ATOM      5  C   LIG    1       -0.756  -4.849  -1.026  0.00  0.00    +0.001 A 
ATOM      6  C   LIG    1       -0.492  -4.173   0.126  0.00  0.00    +0.010 A 
ATOM      7  C   LIG    1       -0.234  -2.793   0.079  0.00  0.00    +0.012 A 
ATOM      8  C   LIG    1        0.042  -2.062   1.248  0.00  0.00    +0.128 A 
ATOM      9  C   LIG    1        0.289  -0.726   1.191  0.00  0.00    +0.077 A 
ATOM     10  C   LIG    1        0.280  -0.028  -0.015  0.00  0.00    +0.146 A 
ENDROOT
BRANCH   8  11
ATOM     11  S   LIG    1        0.068  -2.887   2.804  0.00  0.00    +0.110 S 
ATOM     12  O   LIG    1        0.722  -2.014   3.716  0.00  0.00    -0.142 OA
ATOM     13  O   LIG    1        0.524  -4.209   2.556  0.00  0.00    -0.142 OA
BRANCH  11  14
ATOM     14  O   LIG    1       -1.375  -3.005   3.275  0.00  0.00    -0.250 OA
ATOM     15  H   LIG    1       -1.862  -3.595   2.679  0.00  0.00    +0.245 HD
ENDBRANCH  11  14
ENDBRANCH   8  11
BRANCH   1  17
ATOM     16  N   LIG    1        0.231   1.254  -2.415  0.00  0.00    -0.142 NA
ATOM     17  N   LIG    1       -0.008  -0.014  -2.395  0.00  0.00    -0.145 NA
BRANCH  16  20
ATOM     18  C   LIG    1        0.765   4.305  -2.687  0.00  0.00    +0.070 C 
ATOM     19  C   LIG    1        0.450   3.313  -3.777  0.00  0.00    +0.091 A 
ATOM     20  C   LIG    1        0.215   1.930  -3.597  0.00  0.00    +0.170 A 
ATOM     21  C   LIG    1       -0.041   1.393  -4.854  0.00  0.00    +0.244 A 
ATOM     22  N   LIG    1        0.043   2.407  -5.745  0.00  0.00    -0.198 N 
ATOM     23  N   LIG    1        0.352   3.582  -5.050  0.00  0.00    -0.166 NA
BRANCH  22  24
ATOM     24  C   LIG    1       -0.146   2.299  -7.129  0.00  0.00    +0.069 A 
ATOM     25  C   LIG    1        0.266   1.155  -7.800  0.00  0.00    +0.028 A 
ATOM     26  C   LIG    1        0.073   1.049  -9.164  0.00  0.00    +0.002 A 
ATOM     27  C   LIG    1       -0.520   2.085  -9.862  0.00  0.00    +0.000 A 
ATOM     28  C   LIG    1       -0.926   3.228  -9.197  0.00  0.00    +0.002 A 
ATOM     29  C   LIG    1       -0.741   3.337  -7.833  0.00  0.00    +0.028 A 
ENDBRANCH  22  24
BRANCH  21  30
ATOM     30  O   LIG    1       -0.323   0.098  -5.133  0.00  0.00    -0.491 OA
ATOM     31  H   LIG    1       -1.266  -0.114  -5.108  0.00  0.00    +0.294 HD
ENDBRANCH  21  30
ENDBRANCH  16  20
ENDBRANCH   1  17
BRANCH  10  32
ATOM     32  O   LIG    1        0.532   1.306  -0.025  0.00  0.00    -0.505 OA
ATOM     33  H   LIG    1        1.467   1.528  -0.129  0.00  0.00    +0.292 HD
ENDBRANCH  10  32
TORSDOF 7
