REMARK  Name = ZINC03869768
REMARK                            x       y       z     vdW  Elec       q    Type
REMARK                         _______ _______ _______ _____ _____    ______ ____
ROOT
ATOM      1  C   LIG    1       -1.263  -0.761   0.011  0.00  0.00    +0.181 A 
ATOM      2  C   LIG    1       -1.217  -2.118  -0.096  0.00  0.00    +0.208 A 
ATOM      3  C   LIG    1       -2.426  -2.861  -0.089  0.00  0.00    +0.238 A 
ATOM      4  C   LIG    1       -3.683  -2.107   0.035  0.00  0.00    +0.109 A 
ATOM      5  C   LIG    1       -4.923  -2.759   0.052  0.00  0.00    +0.135 A 
ATOM      6  C   LIG    1       -6.082  -2.014   0.170  0.00  0.00    +0.091 A 
ATOM      7  C   LIG    1       -6.016  -0.629   0.272  0.00  0.00    +0.124 A 
ATOM      8  C   LIG    1       -4.793   0.023   0.256  0.00  0.00    +0.092 A 
ATOM      9  C   LIG    1       -3.619  -0.706   0.139  0.00  0.00    +0.147 A 
ATOM     10  O   LIG    1       -2.423  -4.078  -0.181  0.00  0.00    -0.283 OA
ATOM     11  O   LIG    1       -2.420  -0.086   0.128  0.00  0.00    -0.451 OA
ENDROOT
BRANCH   1  17
ATOM     12  C   LIG    1        0.975  -0.275  -0.965  0.00  0.00    +0.015 A 
ATOM     13  C   LIG    1        2.155   0.435  -0.969  0.00  0.00    +0.046 A 
ATOM     14  C   LIG    1        2.380   1.419  -0.015  0.00  0.00    +0.117 A 
ATOM     15  C   LIG    1        1.416   1.692   0.949  0.00  0.00    +0.046 A 
ATOM     16  C   LIG    1        0.233   0.987   0.961  0.00  0.00    +0.015 A 
ATOM     17  C   LIG    1        0.002  -0.004   0.002  0.00  0.00    +0.021 A 
BRANCH  14  18
ATOM     18  O   LIG    1        3.545   2.116  -0.022  0.00  0.00    -0.507 OA
ATOM     19  H   LIG    1        3.519   2.919  -0.559  0.00  0.00    +0.292 HD
ENDBRANCH  14  18
ENDBRANCH   1  17
BRANCH   2  20
ATOM     20  O   LIG    1       -0.020  -2.757  -0.208  0.00  0.00    -0.501 OA
ATOM     21  H   LIG    1       -0.093  -3.719  -0.278  0.00  0.00    +0.292 HD
ENDBRANCH   2  20
BRANCH   5  22
ATOM     22  O   LIG    1       -4.986  -4.110  -0.049  0.00  0.00    -0.506 OA
ATOM     23  H   LIG    1       -4.958  -4.570   0.802  0.00  0.00    +0.292 HD
ENDBRANCH   5  22
BRANCH   7  24
ATOM     24  O   LIG    1       -7.160   0.092   0.388  0.00  0.00    -0.507 OA
ATOM     25  H   LIG    1       -7.445   0.234   1.301  0.00  0.00    +0.292 HD
ENDBRANCH   7  24
TORSDOF 5
