REMARK  Name = ZINC03811314
REMARK                            x       y       z     vdW  Elec       q    Type
REMARK                         _______ _______ _______ _____ _____    ______ ____
ROOT
ATOM      1  C   LIG    1        4.064   6.619   1.072  0.00  0.00    +0.159 C 
ENDROOT
BRANCH   1   3
ATOM      2  C   LIG    1        2.456   8.145   2.083  0.00  0.00    +0.225 C 
ATOM      3  N   LIG    1        3.494   7.957   1.244  0.00  0.00    -0.303 N 
ATOM      4  H   LIG    1        3.864   8.708   0.754  0.00  0.00    +0.149 HD
ATOM      5  O   LIG    1        1.994   7.206   2.696  0.00  0.00    -0.275 OA
BRANCH   2   6
ATOM      6  C   LIG    1        1.871   9.522   2.261  0.00  0.00    +0.135 C 
BRANCH   6  10
ATOM      7  C   LIG    1        0.430  10.951  -1.499  0.00  0.00    +0.000 A 
ATOM      8  C   LIG    1        1.280  11.735  -0.741  0.00  0.00    +0.000 A 
ATOM      9  C   LIG    1        1.746  11.273   0.476  0.00  0.00    +0.005 A 
ATOM     10  C   LIG    1        1.362  10.026   0.934  0.00  0.00    -0.031 A 
ATOM     11  C   LIG    1        0.517   9.240   0.174  0.00  0.00    +0.005 A 
ATOM     12  C   LIG    1        0.047   9.704  -1.040  0.00  0.00    +0.000 A 
ENDBRANCH   6  10
BRANCH   6  13
ATOM     13  C   LIG    1        0.731   9.460   3.245  0.00  0.00    -0.031 A 
ATOM     14  C   LIG    1       -0.305   8.566   3.048  0.00  0.00    +0.005 A 
ATOM     15  C   LIG    1       -1.347   8.505   3.953  0.00  0.00    +0.000 A 
ATOM     16  C   LIG    1       -1.360   9.347   5.050  0.00  0.00    +0.000 A 
ATOM     17  C   LIG    1       -0.328  10.246   5.244  0.00  0.00    +0.000 A 
ATOM     18  C   LIG    1        0.718  10.302   4.341  0.00  0.00    +0.005 A 
ENDBRANCH   6  13
ENDBRANCH   2   6
ENDBRANCH   1   3
BRANCH   1  19
ATOM     19  C   LIG    1        4.732   6.526  -0.275  0.00  0.00    +0.234 C 
ATOM     20  N   LIG    1        5.329   5.379  -0.655  0.00  0.00    -0.310 N 
ATOM     21  H   LIG    1        5.329   4.613  -0.060  0.00  0.00    +0.149 HD
ATOM     22  O   LIG    1        4.732   7.485  -1.019  0.00  0.00    -0.274 OA
BRANCH  20  23
ATOM     23  C   LIG    1        5.979   5.290  -1.965  0.00  0.00    +0.139 C 
BRANCH  23  24
ATOM     24  C   LIG    1        6.565   3.913  -2.142  0.00  0.00    -0.030 A 
ATOM     25  C   LIG    1        5.804   2.906  -2.708  0.00  0.00    +0.009 A 
ATOM     26  C   LIG    1        6.338   1.643  -2.871  0.00  0.00    +0.046 A 
ATOM     27  C   LIG    1        7.640   1.385  -2.467  0.00  0.00    +0.117 A 
ATOM     28  C   LIG    1        8.402   2.396  -1.900  0.00  0.00    +0.046 A 
ATOM     29  C   LIG    1        7.862   3.658  -1.738  0.00  0.00    +0.009 A 
BRANCH  27  30
ATOM     30  O   LIG    1        8.168   0.143  -2.626  0.00  0.00    -0.507 OA
ATOM     31  H   LIG    1        8.615   0.011  -3.474  0.00  0.00    +0.292 HD
ENDBRANCH  27  30
ENDBRANCH  23  24
ENDBRANCH  20  23
ENDBRANCH   1  19
BRANCH   1  32
ATOM     32  C   LIG    1        5.096   6.358   2.172  0.00  0.00    +0.035 C 
BRANCH  32  33
ATOM     33  C   LIG    1        4.395   6.328   3.531  0.00  0.00    +0.039 C 
BRANCH  33  34
ATOM     34  C   LIG    1        5.426   6.067   4.631  0.00  0.00    +0.196 C 
BRANCH  34  35
ATOM     35  N   LIG    1        4.755   6.038   5.933  0.00  0.00    -0.279 N 
ATOM     36  H   LIG    1        3.797   6.175   5.988  0.00  0.00    +0.258 HD
BRANCH  35  37
ATOM     37  C   LIG    1        5.485   5.818   7.077  0.00  0.00    +0.341 C 
ATOM     38  N   LIG    1        6.790   5.639   6.935  0.00  0.00    -0.292 N 
ATOM     39  H   LIG    1        7.214   5.668   6.000  0.00  0.00    +0.255 HD
ATOM     40  H   LIG    1        7.375   5.472   7.755  0.00  0.00    +0.255 HD
BRANCH  37  41
ATOM     41  N   LIG    1        4.856   5.791   8.299  0.00  0.00    -0.292 N 
ATOM     42  H   LIG    1        5.370   5.636   9.107  0.00  0.00    +0.255 HD
ATOM     43  H   LIG    1        3.897   5.927   8.354  0.00  0.00    +0.255 HD
ENDBRANCH  37  41
ENDBRANCH  35  37
ENDBRANCH  34  35
ENDBRANCH  33  34
ENDBRANCH  32  33
ENDBRANCH   1  32
TORSDOF 14
