REMARK  Name = ZINC03794711
REMARK                            x       y       z     vdW  Elec       q    Type
REMARK                         _______ _______ _______ _____ _____    ______ ____
ROOT
ATOM      1  N   LIG    1        1.355  -2.512  -2.431  0.00  0.00    +0.386 N 
ATOM      2  H   LIG    1        2.215  -1.990  -2.495  0.00  0.00    -0.081 HD
ATOM      3  C   LIG    1        0.525  -2.230  -3.609  0.00  0.00    -0.044 C 
ATOM      4  C   LIG    1        1.306  -2.568  -4.880  0.00  0.00    +0.129 C 
ATOM      5  C   LIG    1        1.681  -4.053  -4.862  0.00  0.00    +0.168 C 
ATOM      6  C   LIG    1        2.483  -4.351  -3.592  0.00  0.00    +0.134 C 
ATOM      7  C   LIG    1        1.658  -3.947  -2.368  0.00  0.00    -0.011 C 
ENDROOT
BRANCH   4   8
ATOM      8  O   LIG    1        0.496  -2.294  -6.025  0.00  0.00    -0.391 OA
ATOM      9  H   LIG    1        0.929  -2.486  -6.869  0.00  0.00    +0.210 HD
ENDBRANCH   4   8
BRANCH   5  10
ATOM     10  O   LIG    1        2.472  -4.360  -6.012  0.00  0.00    -0.387 OA
ATOM     11  H   LIG    1        2.027  -4.189  -6.853  0.00  0.00    +0.210 HD
ENDBRANCH   5  10
BRANCH   6  12
ATOM     12  O   LIG    1        2.776  -5.749  -3.530  0.00  0.00    -0.391 OA
ATOM     13  H   LIG    1        3.295  -6.075  -4.278  0.00  0.00    +0.210 HD
ENDBRANCH   6  12
BRANCH   1  14
ATOM     14  C   LIG    1        0.630  -2.112  -1.217  0.00  0.00    -0.078 C 
BRANCH  14  15
ATOM     15  C   LIG    1        0.411  -0.598  -1.229  0.00  0.00    -0.019 C 
BRANCH  15  17
ATOM     16  C   LIG    1       -0.563   1.332   0.024  0.00  0.00    +0.004 C 
ATOM     17  C   LIG    1       -0.343  -0.182   0.035  0.00  0.00    -0.005 C 
ENDBRANCH  15  17
ENDBRANCH  14  15
ENDBRANCH   1  14
BRANCH   7  18
ATOM     18  C   LIG    1        2.455  -4.243  -1.096  0.00  0.00    +0.143 C 
BRANCH  18  19
ATOM     19  O   LIG    1        3.710  -3.562  -1.151  0.00  0.00    -0.397 OA
ATOM     20  H   LIG    1        4.269  -3.705  -0.375  0.00  0.00    +0.209 HD
ENDBRANCH  18  19
ENDBRANCH   7  18
TORSDOF 8
