REMARK  Name = ZINC03782183
REMARK                            x       y       z     vdW  Elec       q    Type
REMARK                         _______ _______ _______ _____ _____    ______ ____
ROOT
ATOM      1  C   LIG    1       -1.909  -6.367  -0.965  0.00  0.00    +0.160 C 
ENDROOT
BRANCH   1   2
ATOM      2  N   LIG    1       -1.250  -7.056  -2.077  0.00  0.00    -0.300 N 
ATOM      3  H   LIG    1       -1.456  -6.807  -2.992  0.00  0.00    +0.150 HD
ATOM      4  C   LIG    1       -0.357  -8.034  -1.829  0.00  0.00    +0.245 C 
ATOM      5  O   LIG    1       -0.099  -8.345  -0.683  0.00  0.00    -0.270 OA
BRANCH   4   6
ATOM      6  C   LIG    1        0.309  -8.729  -2.951  0.00  0.00    +0.038 A 
ATOM      7  C   LIG    1        0.018  -8.369  -4.269  0.00  0.00    +0.014 A 
ATOM      8  C   LIG    1        0.642  -9.021  -5.312  0.00  0.00    +0.022 A 
ATOM      9  C   LIG    1        1.555 -10.030  -5.056  0.00  0.00    +0.059 A 
ATOM     10 CL   LIG    1        2.335 -10.846  -6.374  0.00  0.00    -0.082 Cl
ATOM     11  C   LIG    1        1.848 -10.392  -3.750  0.00  0.00    +0.060 A 
ATOM     12 CL   LIG    1        2.993 -11.658  -3.438  0.00  0.00    -0.082 Cl
ATOM     13  C   LIG    1        1.234  -9.742  -2.698  0.00  0.00    +0.034 A 
ENDBRANCH   4   6
ENDBRANCH   1   2
BRANCH   1  15
ATOM     14  N   LIG    1       -2.430  -3.991  -0.515  0.00  0.00    -0.300 N 
ATOM     15  C   LIG    1       -2.344  -4.995  -1.410  0.00  0.00    +0.236 C 
ATOM     16  O   LIG    1       -2.616  -4.793  -2.575  0.00  0.00    -0.274 OA
BRANCH  14  17
ATOM     17  C   LIG    1       -2.708  -2.626  -0.969  0.00  0.00    +0.108 C 
BRANCH  17  18
ATOM     18  C   LIG    1       -1.399  -1.948  -1.376  0.00  0.00    +0.019 C 
BRANCH  18  19
ATOM     19  C   LIG    1       -1.701  -0.568  -1.964  0.00  0.00    +0.001 C 
BRANCH  19  21
ATOM     20  C   LIG    1       -0.694   1.491  -2.959  0.00  0.00    +0.004 C 
ATOM     21  C   LIG    1       -0.392   0.111  -2.371  0.00  0.00    -0.003 C 
ENDBRANCH  19  21
ENDBRANCH  18  19
ENDBRANCH  17  18
ENDBRANCH  14  17
BRANCH  14  22
ATOM     22  C   LIG    1       -2.246  -4.266   0.912  0.00  0.00    +0.108 C 
BRANCH  22  23
ATOM     23  C   LIG    1       -3.613  -4.423   1.582  0.00  0.00    +0.019 C 
BRANCH  23  24
ATOM     24  C   LIG    1       -3.421  -4.852   3.038  0.00  0.00    +0.001 C 
BRANCH  24  25
ATOM     25  C   LIG    1       -4.788  -5.010   3.708  0.00  0.00    -0.003 C 
ATOM     26  C   LIG    1       -4.596  -5.439   5.164  0.00  0.00    +0.004 C 
ENDBRANCH  24  25
ENDBRANCH  23  24
ENDBRANCH  22  23
ENDBRANCH  14  22
ENDBRANCH   1  15
BRANCH   1  27
ATOM     27  C   LIG    1       -3.134  -7.171  -0.521  0.00  0.00    +0.043 C 
BRANCH  27  28
ATOM     28  C   LIG    1       -2.687  -8.546  -0.021  0.00  0.00    +0.123 C 
BRANCH  28  29
ATOM     29  C   LIG    1       -3.893  -9.338   0.415  0.00  0.00    +0.305 C 
ATOM     30  O   LIG    1       -5.006  -8.848   0.334  0.00  0.00    -0.251 OA
BRANCH  29  31
ATOM     31  O   LIG    1       -3.755 -10.469   0.850  0.00  0.00    -0.481 OA
ATOM     32  H   LIG    1       -2.899 -10.846   0.912  0.00  0.00    +0.295 HD
ENDBRANCH  29  31
ENDBRANCH  28  29
ENDBRANCH  27  28
ENDBRANCH   1  27
TORSDOF 15
