REMARK  Name = ZINC03814408
REMARK                            x       y       z     vdW  Elec       q    Type
REMARK                         _______ _______ _______ _____ _____    ______ ____
ROOT
ATOM      1  C   LIG    1       -0.974   3.465   1.554  0.00  0.00    +0.032 C 
ATOM      2  C   LIG    1        0.348   4.234   1.598  0.00  0.00    +0.019 C 
ATOM      3  C   LIG    1       -1.914   4.076   0.487  0.00  0.00    +0.015 C 
ATOM      4  C   LIG    1       -3.147   4.628   1.256  0.00  0.00    +0.005 C 
ATOM      5  C   LIG    1       -2.596   4.868   2.669  0.00  0.00    +0.003 C 
ATOM      6  C   LIG    1       -3.647   4.879   3.770  0.00  0.00    +0.019 C 
ATOM      7  C   LIG    1       -4.542   6.093   3.582  0.00  0.00    +0.013 C 
ATOM      8  C   LIG    1       -5.355   6.398   4.839  0.00  0.00    +0.036 C 
ATOM      9  C   LIG    1       -4.386   6.602   5.976  0.00  0.00    -0.041 C 
ATOM     10  C   LIG    1       -4.540   7.603   6.870  0.00  0.00    +0.050 C 
ATOM     11  C   LIG    1       -3.612   7.798   7.892  0.00  0.00    +0.157 C 
ATOM     12  O   LIG    1       -3.847   8.603   8.770  0.00  0.00    -0.293 OA
ATOM     13  C   LIG    1       -2.304   7.054   7.903  0.00  0.00    +0.083 C 
ATOM     14  C   LIG    1       -2.515   5.619   7.409  0.00  0.00    +0.043 C 
ATOM     15  C   LIG    1       -3.271   5.664   6.101  0.00  0.00    -0.044 C 
ATOM     16  C   LIG    1       -2.925   4.865   5.093  0.00  0.00    -0.063 C 
ATOM     17  C   LIG    1       -1.764   3.918   5.321  0.00  0.00    +0.032 C 
ATOM     18  C   LIG    1       -0.839   3.877   4.095  0.00  0.00    +0.012 C 
ATOM     19  C   LIG    1       -1.714   3.609   2.883  0.00  0.00    -0.016 C 
ATOM     20  C   LIG    1       -2.586   2.377   3.131  0.00  0.00    +0.012 C 
ENDROOT
BRANCH   1  21
ATOM     21  C   LIG    1       -0.721   2.010   1.254  0.00  0.00    +0.139 C 
ATOM     22  O   LIG    1       -1.296   1.474   0.338  0.00  0.00    -0.297 OA
BRANCH  21  24
ATOM     23  C   LIG    1        0.222  -0.245   1.673  0.00  0.00    +0.012 C 
ATOM     24  C   LIG    1        0.251   1.225   2.097  0.00  0.00    +0.071 C 
ENDBRANCH  21  24
ENDBRANCH   1  21
TORSDOF 2
