REMARK  Name = ZINC03790774
REMARK                            x       y       z     vdW  Elec       q    Type
REMARK                         _______ _______ _______ _____ _____    ______ ____
ROOT
ATOM      1  C   LIG    1       -1.966   2.433   3.540  0.00  0.00    +0.248 C 
ATOM      2  N   LIG    1       -2.543   2.831   4.690  0.00  0.00    -0.311 N 
ATOM      3  H   LIG    1       -2.160   2.568   5.542  0.00  0.00    +0.149 HD
ATOM      4  O   LIG    1       -2.446   2.763   2.472  0.00  0.00    -0.270 OA
ENDROOT
BRANCH   1  11
ATOM      5  C   LIG    1       -0.150   1.183   2.378  0.00  0.00    +0.134 A 
ATOM      6  C   LIG    1        0.987   0.395   2.421  0.00  0.00    +0.070 A 
ATOM      7  C   LIG    1        1.530   0.029   3.646  0.00  0.00    +0.047 A 
ATOM      8  C   LIG    1        0.927   0.445   4.833  0.00  0.00    +0.062 A 
ATOM      9 CL   LIG    1        1.609  -0.025   6.359  0.00  0.00    -0.082 Cl
ATOM     10  C   LIG    1       -0.198   1.218   4.801  0.00  0.00    +0.038 A 
ATOM     11  C   LIG    1       -0.753   1.599   3.575  0.00  0.00    +0.080 A 
BRANCH   7  12
ATOM     12  N   LIG    1        2.676  -0.759   3.690  0.00  0.00    -0.357 N 
ATOM     13  H   LIG    1        3.096  -1.049   2.865  0.00  0.00    +0.142 HD
ATOM     14  H   LIG    1        3.054  -1.018   4.545  0.00  0.00    +0.142 HD
ENDBRANCH   7  12
BRANCH   5  16
ATOM     15  C   LIG    1       -0.013   1.086   0.008  0.00  0.00    +0.277 C 
ATOM     16  O   LIG    1       -0.682   1.547   1.184  0.00  0.00    -0.494 OA
ENDBRANCH   5  16
ENDBRANCH   1  11
BRANCH   2  17
ATOM     17  C   LIG    1       -3.750   3.661   4.656  0.00  0.00    +0.106 C 
BRANCH  17  18
ATOM     18  C   LIG    1       -4.198   3.970   6.085  0.00  0.00    -0.009 C 
ATOM     19  C   LIG    1       -4.693   2.682   6.782  0.00  0.00    -0.015 C 
ATOM     20  C   LIG    1       -5.897   3.185   7.619  0.00  0.00    -0.078 C 
ATOM     21  N   LIG    1       -6.497   4.216   6.756  0.00  0.00    +0.382 N 
ATOM     22  H   LIG    1       -7.125   3.780   6.070  0.00  0.00    -0.081 HD
ATOM     23  C   LIG    1       -7.254   5.183   7.583  0.00  0.00    -0.078 C 
ATOM     24  C   LIG    1       -6.537   6.542   7.434  0.00  0.00    -0.020 C 
ATOM     25  C   LIG    1       -5.113   6.137   6.973  0.00  0.00    -0.017 C 
ATOM     26  C   LIG    1       -5.410   4.915   6.072  0.00  0.00    -0.064 C 
ENDBRANCH  17  18
ENDBRANCH   2  17
TORSDOF 5
