REMARK  Name = ZINC03870797
REMARK                            x       y       z     vdW  Elec       q    Type
REMARK                         _______ _______ _______ _____ _____    ______ ____
ROOT
ATOM      1  C   LIG    1       -0.027   1.463  -2.496  0.00  0.00    +0.148 C 
ATOM      2  C   LIG    1       -0.830   1.930  -3.714  0.00  0.00    +0.165 C 
ATOM      3  C   LIG    1       -1.202   3.378  -3.544  0.00  0.00    +0.059 C 
ATOM      4  C   LIG    1       -1.163   3.986  -2.367  0.00  0.00    +0.203 C 
ATOM      5  O   LIG    1       -0.779   3.362  -1.227  0.00  0.00    -0.478 OA
ATOM      6  C   LIG    1       -0.757   1.932  -1.230  0.00  0.00    +0.228 C 
ENDROOT
BRANCH   1   9
ATOM      7  C   LIG    1        3.679   2.034  -3.267  0.00  0.00    +0.109 C 
ATOM      8  C   LIG    1        2.298   1.433  -3.225  0.00  0.00    +0.210 C 
ATOM      9  N   LIG    1        1.316   2.048  -2.536  0.00  0.00    -0.306 N 
ATOM     10  H   LIG    1        1.498   2.877  -2.067  0.00  0.00    +0.149 HD
ATOM     11  O   LIG    1        2.070   0.396  -3.812  0.00  0.00    -0.276 OA
ENDBRANCH   1   9
BRANCH   2  12
ATOM     12  O   LIG    1       -0.038   1.777  -4.894  0.00  0.00    -0.386 OA
ATOM     13  H   LIG    1       -0.484   2.055  -5.705  0.00  0.00    +0.210 HD
ENDBRANCH   2  12
BRANCH   4  14
ATOM     14  C   LIG    1       -1.552   5.405  -2.295  0.00  0.00    +0.372 C 
ATOM     15  O   LIG    1       -1.901   5.991  -3.301  0.00  0.00    -0.242 OA
BRANCH  14  16
ATOM     16  O   LIG    1       -1.523   6.052  -1.113  0.00  0.00    -0.475 OA
ATOM     17  H   LIG    1       -1.255   5.600  -0.338  0.00  0.00    +0.296 HD
ENDBRANCH  14  16
ENDBRANCH   4  14
BRANCH   6  18
ATOM     18  C   LIG    1       -0.017   1.425   0.010  0.00  0.00    +0.187 C 
BRANCH  18  19
ATOM     19  O   LIG    1        0.002  -0.004   0.002  0.00  0.00    -0.385 OA
ATOM     20  H   LIG    1       -0.876  -0.409   0.008  0.00  0.00    +0.210 HD
ENDBRANCH  18  19
BRANCH  18  21
ATOM     21  C   LIG    1       -0.733   1.918   1.269  0.00  0.00    +0.172 C 
BRANCH  21  22
ATOM     22  O   LIG    1       -0.753   3.347   1.276  0.00  0.00    -0.387 OA
ATOM     23  H   LIG    1        0.125   3.752   1.270  0.00  0.00    +0.210 HD
ENDBRANCH  21  22
BRANCH  21  24
ATOM     24  C   LIG    1        0.007   1.411   2.508  0.00  0.00    +0.189 C 
BRANCH  24  25
ATOM     25  O   LIG    1       -0.725   1.773   3.681  0.00  0.00    -0.392 OA
ATOM     26  H   LIG    1       -0.314   1.483   4.507  0.00  0.00    +0.210 HD
ENDBRANCH  24  25
ENDBRANCH  21  24
ENDBRANCH  18  21
ENDBRANCH   6  18
TORSDOF 10
