REMARK  Name = ZINC03796232
REMARK                            x       y       z     vdW  Elec       q    Type
REMARK                         _______ _______ _______ _____ _____    ______ ____
ROOT
ATOM      1  C   LIG    1        2.263  -0.664   1.669  0.00  0.00    +0.012 C 
ATOM      2  C   LIG    1        1.700  -0.474   0.259  0.00  0.00    -0.018 C 
ATOM      3  C   LIG    1        1.891  -1.745  -0.549  0.00  0.00    +0.008 C 
ATOM      4  C   LIG    1        3.387  -2.087  -0.497  0.00  0.00    +0.005 C 
ATOM      5  C   LIG    1        4.267  -0.951  -1.010  0.00  0.00    +0.003 C 
ATOM      6  C   LIG    1        3.956   0.381  -0.302  0.00  0.00    +0.000 C 
ATOM      7  C   LIG    1        4.751   1.498  -0.986  0.00  0.00    +0.031 C 
ATOM      8  C   LIG    1        6.188   1.107  -1.143  0.00  0.00    -0.023 C 
ATOM      9  C   LIG    1        6.629  -0.136  -1.044  0.00  0.00    -0.045 C 
ATOM     10  C   LIG    1        8.068  -0.411  -1.236  0.00  0.00    +0.014 C 
ATOM     11  C   LIG    1        8.335  -1.486  -2.050  0.00  0.00    +0.037 C 
ATOM     12  C   LIG    1        7.151  -2.216  -2.635  0.00  0.00    +0.043 C 
ATOM     13  C   LIG    1        6.117  -2.526  -1.563  0.00  0.00    +0.016 C 
ATOM     14  C   LIG    1        5.734  -1.302  -0.746  0.00  0.00    -0.004 C 
ATOM     15  C   LIG    1        5.874  -1.650   0.738  0.00  0.00    +0.016 C 
ATOM     16  C   LIG    1        0.276   0.068   0.337  0.00  0.00    +0.081 C 
ATOM     17  C   LIG    1        0.426   1.609   0.383  0.00  0.00    +0.013 C 
ATOM     18  C   LIG    1        1.943   1.906   0.240  0.00  0.00    +0.005 C 
ATOM     19  C   LIG    1        2.472   0.656  -0.471  0.00  0.00    -0.001 C 
ENDROOT
BRANCH  16  20
ATOM     20  C   LIG    1       -0.403  -0.427   1.588  0.00  0.00    +0.217 C 
ATOM     21  N   LIG    1       -1.135  -1.559   1.554  0.00  0.00    -0.310 N 
ATOM     22  H   LIG    1       -1.223  -2.055   0.725  0.00  0.00    +0.149 HD
ATOM     23  O   LIG    1       -0.292   0.192   2.624  0.00  0.00    -0.275 OA
BRANCH  21  24
ATOM     24  C   LIG    1       -1.795  -2.041   2.770  0.00  0.00    +0.026 C 
ATOM     25  C   LIG    1       -0.744  -2.312   3.848  0.00  0.00    +0.031 C 
ATOM     26  C   LIG    1       -2.553  -3.333   2.460  0.00  0.00    +0.031 C 
ATOM     27  C   LIG    1       -2.778  -0.981   3.271  0.00  0.00    +0.031 C 
ENDBRANCH  21  24
ENDBRANCH  16  20
BRANCH  11  28
ATOM     28  C   LIG    1        9.666  -1.896  -2.318  0.00  0.00    +0.333 C 
ATOM     29  O   LIG    1       10.600  -1.287  -1.832  0.00  0.00    -0.245 OA
BRANCH  28  30
ATOM     30  O   LIG    1        9.896  -2.962  -3.114  0.00  0.00    -0.477 OA
ATOM     31  H   LIG    1        9.177  -3.430  -3.488  0.00  0.00    +0.295 HD
ENDBRANCH  28  30
ENDBRANCH  11  28
TORSDOF 4
