REMARK  Name = ZINC03872044
REMARK                            x       y       z     vdW  Elec       q    Type
REMARK                         _______ _______ _______ _____ _____    ______ ____
ROOT
ATOM      1  C   LIG    1       -0.018   1.460   0.010  0.00  0.00    +0.105 C 
ATOM      2  N   LIG    1        0.002  -0.004   0.002  0.00  0.00    -0.302 NA
ATOM      3  C   LIG    1       -0.001  -0.570  -1.185  0.00  0.00    +0.090 C 
ATOM      4  C   LIG    1       -0.073  -1.964  -1.345  0.00  0.00    +0.038 C 
ATOM      5  C   LIG    1       -0.279  -2.760  -0.188  0.00  0.00    +0.001 C 
ATOM      6  C   LIG    1       -0.306  -2.075   1.103  0.00  0.00    +0.010 C 
ATOM      7  C   LIG    1       -0.669  -2.744   2.281  0.00  0.00    +0.005 C 
ATOM      8  C   LIG    1       -0.581  -2.139   3.489  0.00  0.00    +0.004 C 
ATOM      9  C   LIG    1       -0.035  -0.843   3.607  0.00  0.00    -0.004 C 
ATOM     10  C   LIG    1        0.122  -0.250   4.868  0.00  0.00    +0.038 C 
ATOM     11  C   LIG    1        0.857   0.895   4.994  0.00  0.00    +0.150 C 
ATOM     12  O   LIG    1        1.153   1.662   6.084  0.00  0.00    -0.348 OA
ATOM     13  C   LIG    1        2.296   2.450   5.706  0.00  0.00    +0.323 C 
ATOM     14  O   LIG    1        2.204   2.543   4.274  0.00  0.00    -0.348 OA
ATOM     15  C   LIG    1        1.462   1.472   3.868  0.00  0.00    +0.150 C 
ATOM     16  C   LIG    1        1.259   0.934   2.613  0.00  0.00    +0.039 C 
ATOM     17  C   LIG    1        0.407  -0.160   2.443  0.00  0.00    +0.012 C 
ATOM     18  C   LIG    1       -0.427  -4.140  -0.304  0.00  0.00    +0.007 C 
ATOM     19  C   LIG    1       -0.349  -4.730  -1.534  0.00  0.00    +0.034 C 
ATOM     20  C   LIG    1       -0.114  -3.971  -2.678  0.00  0.00    +0.147 C 
ATOM     21  C   LIG    1        0.030  -2.595  -2.596  0.00  0.00    +0.151 C 
ATOM     22  C   LIG    1        0.022  -0.696   1.138  0.00  0.00    +0.063 C 
ENDROOT
BRANCH  20  23
ATOM     23  O   LIG    1       -0.022  -4.587  -3.887  0.00  0.00    -0.377 OA
ATOM     24  C   LIG    1       -0.177  -6.008  -3.905  0.00  0.00    +0.194 C 
ENDBRANCH  20  23
BRANCH  21  25
ATOM     25  O   LIG    1        0.274  -1.871  -3.719  0.00  0.00    -0.377 OA
ATOM     26  C   LIG    1        1.643  -1.673  -4.078  0.00  0.00    +0.194 C 
ENDBRANCH  21  25
TORSDOF 2
