REMARK  Name = ZINC03832235
REMARK                            x       y       z     vdW  Elec       q    Type
REMARK                         _______ _______ _______ _____ _____    ______ ____
ROOT
ATOM      1  C   LIG    1       -1.250   1.747   0.018  0.00  0.00    -0.006 A 
ATOM      2  C   LIG    1       -1.273   3.138   0.030  0.00  0.00    +0.019 A 
ATOM      3  C   LIG    1       -0.043   3.817   0.022  0.00  0.00    +0.001 A 
ATOM      4  C   LIG    1        0.013   5.222   0.030  0.00  0.00    +0.010 A 
ATOM      5  C   LIG    1        1.222   5.847   0.022  0.00  0.00    +0.001 A 
ATOM      6  C   LIG    1        2.406   5.112   0.007  0.00  0.00    +0.002 A 
ATOM      7  C   LIG    1        2.388   3.751  -0.001  0.00  0.00    +0.028 A 
ATOM      8  C   LIG    1        1.160   3.067   0.007  0.00  0.00    +0.071 A 
ATOM      9  N   LIG    1        1.120   1.730   0.001  0.00  0.00    -0.254 NA
ATOM     10  C   LIG    1       -0.013   1.076   0.008  0.00  0.00    +0.119 A 
ENDROOT
BRANCH   1  12
ATOM     11  C   LIG    1       -2.480  -0.360   0.013  0.00  0.00    +0.008 C 
ATOM     12  C   LIG    1       -2.509   0.982   0.020  0.00  0.00    +0.010 C 
BRANCH  11  16
ATOM     13  C   LIG    1       -6.108  -2.561   0.020  0.00  0.00    +0.000 A 
ATOM     14  C   LIG    1       -4.897  -3.231   0.010  0.00  0.00    +0.001 A 
ATOM     15  C   LIG    1       -3.714  -2.522   0.008  0.00  0.00    +0.008 A 
ATOM     16  C   LIG    1       -3.740  -1.125   0.015  0.00  0.00    -0.025 A 
ATOM     17  C   LIG    1       -4.967  -0.456   0.031  0.00  0.00    +0.008 A 
ATOM     18  C   LIG    1       -6.142  -1.178   0.026  0.00  0.00    +0.001 A 
ENDBRANCH  11  16
ENDBRANCH   1  12
TORSDOF 2
