REMARK  Name = ZINC03798537
REMARK                            x       y       z     vdW  Elec       q    Type
REMARK                         _______ _______ _______ _____ _____    ______ ____
ROOT
ATOM      1  C   LIG    1       -0.530  -5.578  -2.761  0.00  0.00    +0.218 C 
ATOM      2  N   LIG    1        0.219  -6.699  -2.763  0.00  0.00    -0.308 N 
ATOM      3  H   LIG    1        0.068  -7.385  -2.095  0.00  0.00    +0.149 HD
ATOM      4  O   LIG    1       -0.280  -4.681  -3.537  0.00  0.00    -0.275 OA
ENDROOT
BRANCH   1   5
ATOM      5  C   LIG    1       -1.677  -5.441  -1.794  0.00  0.00    +0.131 C 
BRANCH   5   8
ATOM      6  C   LIG    1       -4.011  -2.765  -3.082  0.00  0.00    +0.135 A 
ATOM      7  C   LIG    1       -3.390  -3.990  -2.892  0.00  0.00    +0.050 A 
ATOM      8  C   LIG    1       -2.347  -4.106  -1.995  0.00  0.00    -0.035 A 
ATOM      9  C   LIG    1       -1.912  -3.003  -1.277  0.00  0.00    +0.005 A 
ATOM     10  C   LIG    1       -2.516  -1.778  -1.452  0.00  0.00    +0.019 A 
ATOM     11  C   LIG    1       -3.570  -1.644  -2.362  0.00  0.00    +0.100 A 
BRANCH  11  12
ATOM     12  C   LIG    1       -4.217  -0.336  -2.559  0.00  0.00    +0.340 C 
ATOM     13  O   LIG    1       -3.830   0.638  -1.930  0.00  0.00    -0.245 OA
BRANCH  12  14
ATOM     14  O   LIG    1       -5.141  -0.225  -3.352  0.00  0.00    -0.477 OA
ATOM     15  H   LIG    1       -5.438  -0.971  -3.835  0.00  0.00    +0.295 HD
ENDBRANCH  12  14
ENDBRANCH  11  12
BRANCH   6  16
ATOM     16  O   LIG    1       -5.035  -2.649  -3.964  0.00  0.00    -0.491 OA
BRANCH  16  18
ATOM     17  C   LIG    1       -6.589  -3.509  -5.603  0.00  0.00    +0.048 C 
ATOM     18  C   LIG    1       -5.428  -3.833  -4.660  0.00  0.00    +0.226 C 
ENDBRANCH  16  18
ENDBRANCH   6  16
ENDBRANCH   5   8
ENDBRANCH   1   5
BRANCH   2  19
ATOM     19  C   LIG    1        1.262  -6.880  -3.775  0.00  0.00    +0.105 C 
BRANCH  19  20
ATOM     20  C   LIG    1        0.647  -7.424  -5.039  0.00  0.00    -0.006 A 
ATOM     21  C   LIG    1       -0.512  -8.173  -4.977  0.00  0.00    +0.007 A 
ATOM     22  C   LIG    1       -1.077  -8.672  -6.136  0.00  0.00    +0.000 A 
ATOM     23  C   LIG    1       -0.484  -8.424  -7.361  0.00  0.00    +0.002 A 
ATOM     24  C   LIG    1        0.674  -7.675  -7.430  0.00  0.00    +0.023 A 
ATOM     25  C   LIG    1        1.241  -7.167  -6.268  0.00  0.00    +0.035 A 
BRANCH  25  26
ATOM     26  N   LIG    1        2.410  -6.405  -6.335  0.00  0.00    -0.330 N 
ATOM     27  C   LIG    1        3.729  -7.049  -6.262  0.00  0.00    +0.105 C 
ATOM     28  C   LIG    1        4.559  -6.611  -7.472  0.00  0.00    +0.019 C 
ATOM     29  C   LIG    1        4.608  -5.082  -7.526  0.00  0.00    +0.003 C 
ATOM     30  C   LIG    1        3.190  -4.530  -7.688  0.00  0.00    +0.019 C 
ATOM     31  C   LIG    1        2.344  -4.945  -6.486  0.00  0.00    +0.105 C 
ENDBRANCH  25  26
ENDBRANCH  19  20
BRANCH  19  32
ATOM     32  C   LIG    1        2.312  -7.864  -3.255  0.00  0.00    +0.030 C 
BRANCH  32  33
ATOM     33  C   LIG    1        3.023  -7.259  -2.043  0.00  0.00    -0.015 C 
ATOM     34  C   LIG    1        4.183  -8.165  -1.627  0.00  0.00    +0.007 C 
ATOM     35  C   LIG    1        2.034  -7.130  -0.883  0.00  0.00    +0.007 C 
ENDBRANCH  32  33
ENDBRANCH  19  32
ENDBRANCH   2  19
TORSDOF 11
