REMARK  Name = ZINC03817793
REMARK                            x       y       z     vdW  Elec       q    Type
REMARK                         _______ _______ _______ _____ _____    ______ ____
ROOT
ATOM      1  C   LIG    1       -3.241   6.133   0.394  0.00  0.00    +0.078 A 
ATOM      2  C   LIG    1       -3.177   7.514   0.421  0.00  0.00    +0.075 A 
ATOM      3  C   LIG    1       -1.915   8.130   0.322  0.00  0.00    +0.142 A 
ATOM      4  N   LIG    1       -1.519   9.391   0.316  0.00  0.00    -0.236 NA
ATOM      5  C   LIG    1       -0.188   9.434   0.196  0.00  0.00    +0.131 A 
ATOM      6  C   LIG    1        0.281   8.170   0.123  0.00  0.00    +0.115 A 
ATOM      7  N   LIG    1       -0.800   7.332   0.201  0.00  0.00    -0.272 N 
ATOM      8  C   LIG    1       -0.937   5.973   0.181  0.00  0.00    +0.207 A 
ATOM      9  N   LIG    1       -2.117   5.408   0.270  0.00  0.00    -0.215 NA
ENDROOT
BRANCH   1  13
ATOM     10  C   LIG    1       -7.010   4.182   0.687  0.00  0.00    +0.162 A 
ATOM     11  C   LIG    1       -6.950   5.566   0.610  0.00  0.00    +0.050 A 
ATOM     12  C   LIG    1       -5.729   6.201   0.515  0.00  0.00    +0.014 A 
ATOM     13  C   LIG    1       -4.552   5.452   0.496  0.00  0.00    +0.004 A 
ATOM     14  C   LIG    1       -4.613   4.060   0.568  0.00  0.00    +0.059 A 
ATOM     15  C   LIG    1       -5.839   3.429   0.669  0.00  0.00    +0.162 A 
BRANCH  10  17
ATOM     16  C   LIG    1       -9.376   4.393   0.793  0.00  0.00    +0.277 C 
ATOM     17  O   LIG    1       -8.216   3.560   0.780  0.00  0.00    -0.491 OA
ENDBRANCH  10  17
BRANCH  15  18
ATOM     18  O   LIG    1       -5.901   2.072   0.745  0.00  0.00    -0.491 OA
ATOM     19  C   LIG    1       -4.660   1.364   0.722  0.00  0.00    +0.277 C 
ENDBRANCH  15  18
ENDBRANCH   1  13
BRANCH   8  20
ATOM     20  N   LIG    1        0.185   5.183   0.060  0.00  0.00    -0.269 N 
ATOM     21  H   LIG    1        1.061   5.592  -0.010  0.00  0.00    +0.156 HD
BRANCH  20  22
ATOM     22  C   LIG    1        0.061   3.803   0.038  0.00  0.00    +0.137 A 
ATOM     23  C   LIG    1        1.212   2.998   0.034  0.00  0.00    +0.076 A 
ATOM     24  C   LIG    1        1.062   1.607   0.011  0.00  0.00    +0.018 A 
ATOM     25  C   LIG    1       -0.219   1.084  -0.006  0.00  0.00    +0.021 A 
ATOM     26  C   LIG    1       -1.305   1.942  -0.007  0.00  0.00    +0.113 A 
ATOM     27  N   LIG    1       -1.142   3.250   0.021  0.00  0.00    -0.239 NA
BRANCH  23  28
ATOM     28  C   LIG    1        2.555   3.608   0.053  0.00  0.00    +0.245 C 
ATOM     29  N   LIG    1        3.648   2.827   0.162  0.00  0.00    -0.325 N 
ATOM     30  H   LIG    1        4.531   3.228   0.175  0.00  0.00    +0.145 HD
ATOM     31  H   LIG    1        3.552   1.864   0.229  0.00  0.00    +0.145 HD
ATOM     32  O   LIG    1        2.675   4.815  -0.030  0.00  0.00    -0.270 OA
ENDBRANCH  23  28
ENDBRANCH  20  22
ENDBRANCH   8  20
TORSDOF 6
