REMARK  Name = ZINC03787591
REMARK                            x       y       z     vdW  Elec       q    Type
REMARK                         _______ _______ _______ _____ _____    ______ ____
ROOT
ATOM      1  C   LIG    1        0.135  -0.742   1.261  0.00  0.00    +0.089 C 
ENDROOT
BRANCH   1   2
ATOM      2  C   LIG    1        1.368  -0.274   1.989  0.00  0.00    -0.025 A 
ATOM      3  C   LIG    1        2.425  -1.144   2.186  0.00  0.00    +0.005 A 
ATOM      4  C   LIG    1        3.558  -0.718   2.854  0.00  0.00    +0.004 A 
ATOM      5  C   LIG    1        3.637   0.578   3.327  0.00  0.00    +0.045 A 
ATOM      6  C   LIG    1        2.578   1.452   3.131  0.00  0.00    +0.122 A 
ATOM      7  C   LIG    1        1.444   1.024   2.455  0.00  0.00    +0.051 A 
BRANCH   6   8
ATOM      8  O   LIG    1        2.653   2.727   3.595  0.00  0.00    -0.481 OA
BRANCH   8   9
ATOM      9  C   LIG    1        3.852   3.099   4.277  0.00  0.00    +0.349 C 
BRANCH   9  10
ATOM     10  C   LIG    1        3.754   4.538   4.716  0.00  0.00    +0.343 C 
ATOM     11  O   LIG    1        2.750   5.184   4.468  0.00  0.00    -0.247 OA
BRANCH  10  12
ATOM     12  O   LIG    1        4.679   5.056   5.319  0.00  0.00    -0.478 OA
ATOM     13  H   LIG    1        5.450   4.559   5.509  0.00  0.00    +0.295 HD
ENDBRANCH  10  12
ENDBRANCH   9  10
ENDBRANCH   8   9
ENDBRANCH   6   8
ENDBRANCH   1   2
BRANCH   1  15
ATOM     14  C   LIG    1       -0.565   1.563   0.462  0.00  0.00    +0.132 C 
ATOM     15  N   LIG    1       -0.166   0.184   0.166  0.00  0.00    -0.299 N 
ATOM     16  C   LIG    1       -0.076  -0.231  -1.113  0.00  0.00    +0.220 C 
ATOM     17  O   LIG    1        0.254  -1.373  -1.357  0.00  0.00    -0.275 OA
BRANCH  16  18
ATOM     18  C   LIG    1       -0.386   0.721  -2.238  0.00  0.00    +0.131 C 
BRANCH  18  19
ATOM     19  C   LIG    1       -0.211   0.014  -3.557  0.00  0.00    -0.037 A 
ATOM     20  C   LIG    1        1.019   0.024  -4.189  0.00  0.00    +0.005 A 
ATOM     21  C   LIG    1        1.181  -0.624  -5.399  0.00  0.00    +0.022 A 
ATOM     22  C   LIG    1        0.112  -1.283  -5.979  0.00  0.00    +0.059 A 
ATOM     23 CL   LIG    1        0.314  -2.097  -7.499  0.00  0.00    -0.082 Cl
ATOM     24  C   LIG    1       -1.120  -1.293  -5.346  0.00  0.00    +0.060 A 
ATOM     25 CL   LIG    1       -2.463  -2.119  -6.073  0.00  0.00    -0.082 Cl
ATOM     26  C   LIG    1       -1.279  -0.649  -4.133  0.00  0.00    +0.025 A 
ENDBRANCH  18  19
ENDBRANCH  16  18
ENDBRANCH   1  15
BRANCH   1  27
ATOM     27  C   LIG    1       -1.046  -0.784   2.232  0.00  0.00    -0.051 C 
BRANCH  27  28
ATOM     28  N   LIG    1       -2.273  -1.124   1.498  0.00  0.00    +0.381 N 
ATOM     29  H   LIG    1       -2.396  -0.497   0.717  0.00  0.00    -0.082 HD
ATOM     30  C   LIG    1       -2.213  -2.530   1.024  0.00  0.00    -0.079 C 
ATOM     31  C   LIG    1       -3.703  -2.894   0.805  0.00  0.00    -0.020 C 
ATOM     32  C   LIG    1       -4.411  -2.171   1.974  0.00  0.00    -0.020 C 
ATOM     33  C   LIG    1       -3.443  -1.052   2.400  0.00  0.00    -0.079 C 
ENDBRANCH  27  28
ENDBRANCH   1  27
TORSDOF 10
