REMARK  Name = ZINC03871430
REMARK                            x       y       z     vdW  Elec       q    Type
REMARK                         _______ _______ _______ _____ _____    ______ ____
ROOT
ATOM      1  C   LIG    1        0.191   1.251   0.236  0.00  0.00    +0.012 A 
ATOM      2  C   LIG    1        1.425   1.823   0.449  0.00  0.00    +0.050 A 
ATOM      3  C   LIG    1        2.539   1.021   0.664  0.00  0.00    +0.158 A 
ATOM      4  C   LIG    1        2.415  -0.369   0.664  0.00  0.00    +0.159 A 
ATOM      5  C   LIG    1        1.183  -0.952   0.452  0.00  0.00    +0.057 A 
ATOM      6  C   LIG    1        0.057  -0.144   0.236  0.00  0.00    -0.020 A 
ENDROOT
BRANCH   3   7
ATOM      7  O   LIG    1        3.753   1.591   0.873  0.00  0.00    -0.503 OA
ATOM      8  H   LIG    1        3.948   1.771   1.803  0.00  0.00    +0.292 HD
ENDBRANCH   3   7
BRANCH   4   9
ATOM      9  O   LIG    1        3.509  -1.149   0.874  0.00  0.00    -0.503 OA
ATOM     10  H   LIG    1        3.669  -1.361   1.804  0.00  0.00    +0.292 HD
ENDBRANCH   4   9
BRANCH   6  11
ATOM     11  C   LIG    1       -1.255  -0.756   0.011  0.00  0.00    +0.029 C 
ATOM     12  C   LIG    1       -1.351  -1.945  -0.679  0.00  0.00    +0.080 C 
BRANCH  12  13
ATOM     13  C   LIG    1       -2.641  -2.644  -0.763  0.00  0.00    +0.087 C 
ATOM     14  S   LIG    1       -4.024  -1.981  -0.002  0.00  0.00    -0.034 S 
BRANCH  13  15
ATOM     15  N   LIG    1       -2.735  -3.807  -1.438  0.00  0.00    -0.351 N 
ATOM     16  H   LIG    1       -3.586  -4.268  -1.492  0.00  0.00    +0.143 HD
ATOM     17  H   LIG    1       -1.951  -4.182  -1.868  0.00  0.00    +0.143 HD
ENDBRANCH  13  15
ENDBRANCH  12  13
BRANCH  12  18
ATOM     18  C   LIG    1       -0.194  -2.499  -1.315  0.00  0.00    +0.102 C 
ATOM     19  N   LIG    1        0.724  -2.939  -1.820  0.00  0.00    -0.191 NA
ENDBRANCH  12  18
ENDBRANCH   6  11
TORSDOF 6
