REMARK  Name = ZINC03784120
REMARK                            x       y       z     vdW  Elec       q    Type
REMARK                         _______ _______ _______ _____ _____    ______ ____
ROOT
ATOM      1  C   LIG    1       -4.575  -6.654  -0.733  0.00  0.00    +0.044 C 
ATOM      2  C   LIG    1       -5.238  -6.420  -2.104  0.00  0.00    +0.122 C 
ATOM      3  C   LIG    1       -6.222  -7.593  -2.273  0.00  0.00    +0.036 C 
ATOM      4  C   LIG    1       -5.617  -8.768  -1.490  0.00  0.00    -0.001 C 
ATOM      5  C   LIG    1       -6.710  -9.434  -0.640  0.00  0.00    +0.034 C 
ATOM      6  C   LIG    1       -6.087  -9.611   0.753  0.00  0.00    -0.073 C 
ATOM      7  C   LIG    1       -6.367 -10.547   1.625  0.00  0.00    -0.028 C 
ATOM      8  C   LIG    1       -5.078  -8.489   0.903  0.00  0.00    +0.035 C 
ATOM      9  C   LIG    1       -4.577  -8.175  -0.516  0.00  0.00    +0.006 C 
ENDROOT
BRANCH   1  11
ATOM     10  C   LIG    1       -2.791  -5.226   0.126  0.00  0.00    +0.000 C 
ATOM     11  C   LIG    1       -3.162  -6.133  -0.744  0.00  0.00    -0.022 C 
BRANCH  10  12
ATOM     12  C   LIG    1       -1.377  -4.705   0.116  0.00  0.00    +0.141 C 
BRANCH  12  13
ATOM     13  C   LIG    1       -1.397  -3.179  -0.002  0.00  0.00    +0.030 C 
ATOM     14  C   LIG    1       -2.099  -2.777  -1.300  0.00  0.00    +0.011 C 
BRANCH  13  15
ATOM     15  C   LIG    1        0.038  -2.650  -0.013  0.00  0.00    +0.095 C 
BRANCH  15  18
ATOM     16  C   LIG    1       -0.018   1.468   0.010  0.00  0.00    +0.106 C 
ATOM     17  C   LIG    1        0.002  -0.004   0.002  0.00  0.00    -0.106 C 
ATOM     18  C   LIG    1        0.018  -1.178  -0.004  0.00  0.00    -0.102 C 
ENDBRANCH  15  18
ENDBRANCH  13  15
ENDBRANCH  12  13
BRANCH  12  19
ATOM     19  O   LIG    1       -0.674  -5.259  -0.998  0.00  0.00    -0.387 OA
ATOM     20  H   LIG    1       -1.064  -5.044  -1.856  0.00  0.00    +0.210 HD
ENDBRANCH  12  19
ENDBRANCH  10  12
ENDBRANCH   1  11
BRANCH   2  21
ATOM     21  O   LIG    1       -5.938  -5.175  -2.111  0.00  0.00    -0.391 OA
ATOM     22  H   LIG    1       -6.376  -4.975  -2.950  0.00  0.00    +0.210 HD
ENDBRANCH   2  21
BRANCH   7  23
ATOM     23  C   LIG    1       -7.407 -11.589   1.304  0.00  0.00    +0.027 C 
BRANCH  23  24
ATOM     24  C   LIG    1       -6.798 -12.984   1.460  0.00  0.00    +0.015 C 
BRANCH  24  25
ATOM     25  C   LIG    1       -7.854 -14.041   1.134  0.00  0.00    +0.121 C 
BRANCH  25  26
ATOM     26  C   LIG    1       -7.254 -15.415   1.288  0.00  0.00    +0.305 C 
ATOM     27  O   LIG    1       -6.090 -15.537   1.627  0.00  0.00    -0.251 OA
BRANCH  26  28
ATOM     28  O   LIG    1       -7.934 -16.405   1.074  0.00  0.00    -0.481 OA
ATOM     29  H   LIG    1       -8.829 -16.311   0.813  0.00  0.00    +0.295 HD
ENDBRANCH  26  28
ENDBRANCH  25  26
ENDBRANCH  24  25
ENDBRANCH  23  24
ENDBRANCH   7  23
TORSDOF 12
