REMARK  Name = ZINC03789440
REMARK                            x       y       z     vdW  Elec       q    Type
REMARK                         _______ _______ _______ _____ _____    ______ ____
ROOT
ATOM      1  C   LIG    1        3.564   6.251   0.857  0.00  0.00    +0.160 C 
ENDROOT
BRANCH   1   2
ATOM      2  N   LIG    1        2.500   5.455   0.240  0.00  0.00    -0.300 N 
ATOM      3  H   LIG    1        2.591   4.491   0.176  0.00  0.00    +0.150 HD
ATOM      4  C   LIG    1        1.396   6.062  -0.238  0.00  0.00    +0.245 C 
ATOM      5  O   LIG    1        1.283   7.269  -0.158  0.00  0.00    -0.270 OA
BRANCH   4   6
ATOM      6  C   LIG    1        0.323   5.259  -0.861  0.00  0.00    +0.038 A 
ATOM      7  C   LIG    1        0.450   3.872  -0.955  0.00  0.00    +0.014 A 
ATOM      8  C   LIG    1       -0.554   3.127  -1.537  0.00  0.00    +0.022 A 
ATOM      9  C   LIG    1       -1.688   3.753  -2.029  0.00  0.00    +0.059 A 
ATOM     10 CL   LIG    1       -2.947   2.809  -2.760  0.00  0.00    -0.082 Cl
ATOM     11  C   LIG    1       -1.821   5.129  -1.938  0.00  0.00    +0.060 A 
ATOM     12 CL   LIG    1       -3.246   5.905  -2.556  0.00  0.00    -0.082 Cl
ATOM     13  C   LIG    1       -0.822   5.885  -1.357  0.00  0.00    +0.034 A 
ENDBRANCH   4   6
ENDBRANCH   1   2
BRANCH   1  15
ATOM     14  N   LIG    1        6.030   6.145   1.022  0.00  0.00    -0.300 N 
ATOM     15  C   LIG    1        4.873   5.511   0.748  0.00  0.00    +0.236 C 
ATOM     16  O   LIG    1        4.884   4.345   0.414  0.00  0.00    -0.274 OA
BRANCH  14  17
ATOM     17  C   LIG    1        7.309   5.476   0.770  0.00  0.00    +0.108 C 
BRANCH  17  18
ATOM     18  C   LIG    1        7.713   5.684  -0.691  0.00  0.00    +0.019 C 
BRANCH  18  19
ATOM     19  C   LIG    1        8.984   4.884  -0.987  0.00  0.00    +0.001 C 
BRANCH  19  21
ATOM     20  C   LIG    1       10.659   4.292  -2.744  0.00  0.00    +0.004 C 
ATOM     21  C   LIG    1        9.388   5.091  -2.448  0.00  0.00    -0.003 C 
ENDBRANCH  19  21
ENDBRANCH  18  19
ENDBRANCH  17  18
ENDBRANCH  14  17
BRANCH  14  22
ATOM     22  C   LIG    1        6.010   7.502   1.573  0.00  0.00    +0.110 C 
BRANCH  22  23
ATOM     23  C   LIG    1        6.201   7.441   3.089  0.00  0.00    +0.047 C 
BRANCH  23  24
ATOM     24  C   LIG    1        6.036   8.841   3.682  0.00  0.00    +0.161 C 
BRANCH  24  25
ATOM     25  O   LIG    1        6.214   8.784   5.098  0.00  0.00    -0.383 OA
ATOM     26  C   LIG    1        6.080  10.047   5.753  0.00  0.00    +0.193 C 
ENDBRANCH  24  25
ENDBRANCH  23  24
ENDBRANCH  22  23
ENDBRANCH  14  22
ENDBRANCH   1  15
BRANCH   1  27
ATOM     27  C   LIG    1        3.234   6.488   2.332  0.00  0.00    +0.043 C 
BRANCH  27  28
ATOM     28  C   LIG    1        1.906   7.239   2.443  0.00  0.00    +0.123 C 
BRANCH  28  29
ATOM     29  C   LIG    1        1.580   7.473   3.896  0.00  0.00    +0.305 C 
ATOM     30  O   LIG    1        2.333   7.079   4.754  0.00  0.00    -0.251 OA
BRANCH  29  31
ATOM     31  O   LIG    1        0.454   8.118   4.236  0.00  0.00    -0.481 OA
ATOM     32  H   LIG    1       -0.130   8.424   3.570  0.00  0.00    +0.295 HD
ENDBRANCH  29  31
ENDBRANCH  28  29
ENDBRANCH  27  28
ENDBRANCH   1  27
TORSDOF 15
