REMARK  Name = ZINC03786169
REMARK                            x       y       z     vdW  Elec       q    Type
REMARK                         _______ _______ _______ _____ _____    ______ ____
ROOT
ATOM      1  C   LIG    1       -2.902  -2.434   0.017  0.00  0.00    +0.134 C 
ATOM      2  C   LIG    1       -2.807  -3.968   0.021  0.00  0.00    +0.118 C 
ATOM      3  N   LIG    1       -4.181  -4.493   0.060  0.00  0.00    -0.336 N 
ATOM      4  H   LIG    1       -4.436  -5.250  -0.489  0.00  0.00    +0.147 HD
ATOM      5  C   LIG    1       -5.092  -3.892   0.887  0.00  0.00    +0.151 C 
ATOM      6  N   LIG    1       -4.946  -2.725   1.502  0.00  0.00    -0.378 N 
ATOM      7  H   LIG    1       -5.684  -2.337   2.102  0.00  0.00    +0.160 HD
ATOM      8  C   LIG    1       -3.644  -1.993   1.281  0.00  0.00    +0.129 C 
ENDROOT
BRANCH   1   9
ATOM      9  C   LIG    1       -1.518  -1.840   0.007  0.00  0.00    +0.313 C 
ATOM     10  O   LIG    1       -0.550  -2.562  -0.006  0.00  0.00    -0.250 OA
BRANCH   9  11
ATOM     11  O   LIG    1       -1.360  -0.507   0.012  0.00  0.00    -0.465 OA
BRANCH  11  13
ATOM     12  C   LIG    1       -0.019   1.526   0.010  0.00  0.00    +0.048 C 
ATOM     13  C   LIG    1        0.002  -0.004   0.002  0.00  0.00    +0.229 C 
ENDBRANCH  11  13
ENDBRANCH   9  11
ENDBRANCH   1   9
TORSDOF 3
