REMARK  Name = ZINC03830882
REMARK                            x       y       z     vdW  Elec       q    Type
REMARK                         _______ _______ _______ _____ _____    ______ ____
ROOT
ATOM      1  C   LIG    1        0.767  -1.073   2.515  0.00  0.00    +0.165 A 
ATOM      2  C   LIG    1        0.158  -2.106   3.212  0.00  0.00    +0.049 A 
ATOM      3  C   LIG    1        0.911  -2.933   4.023  0.00  0.00    +0.007 A 
ATOM      4  C   LIG    1        2.274  -2.736   4.143  0.00  0.00    +0.049 A 
ATOM      5  C   LIG    1        2.891  -1.706   3.449  0.00  0.00    +0.165 A 
ATOM      6  C   LIG    1        2.138  -0.875   2.628  0.00  0.00    +0.204 A 
ENDROOT
BRANCH   5   7
ATOM      7  O   LIG    1        4.232  -1.512   3.568  0.00  0.00    -0.490 OA
BRANCH   7   8
ATOM      8  C   LIG    1        4.944  -2.408   4.425  0.00  0.00    +0.211 C 
BRANCH   8   9
ATOM      9  C   LIG    1        6.428  -2.036   4.431  0.00  0.00    -0.034 C 
BRANCH   9  10
ATOM     10  N   LIG    1        6.604  -0.736   5.091  0.00  0.00    +0.382 N 
BRANCH  10  11
ATOM     11  C   LIG    1        8.038  -0.441   5.217  0.00  0.00    -0.078 C 
ATOM     12  C   LIG    1        8.221   0.914   5.904  0.00  0.00    -0.016 C 
ENDBRANCH  10  11
BRANCH  10  13
ATOM     13  C   LIG    1        5.957   0.312   4.290  0.00  0.00    -0.078 C 
ATOM     14  C   LIG    1        6.506   0.275   2.863  0.00  0.00    -0.016 C 
ENDBRANCH  10  13
BRANCH  10  15
ATOM     15  C   LIG    1        5.994  -0.778   6.427  0.00  0.00    -0.078 C 
ATOM     16  C   LIG    1        6.668  -1.869   7.262  0.00  0.00    -0.016 C 
ENDBRANCH  10  15
ENDBRANCH   9  10
ENDBRANCH   8   9
ENDBRANCH   7   8
ENDBRANCH   5   7
BRANCH   6  17
ATOM     17  O   LIG    1        2.741   0.134   1.942  0.00  0.00    -0.487 OA
BRANCH  17  18
ATOM     18  C   LIG    1        2.855   1.394   2.606  0.00  0.00    +0.211 C 
BRANCH  18  19
ATOM     19  C   LIG    1        3.530   2.402   1.675  0.00  0.00    -0.034 C 
BRANCH  19  20
ATOM     20  N   LIG    1        2.623   2.727   0.566  0.00  0.00    +0.382 N 
BRANCH  20  21
ATOM     21  C   LIG    1        3.207   3.805  -0.245  0.00  0.00    -0.078 C 
ATOM     22  C   LIG    1        2.262   4.143  -1.400  0.00  0.00    -0.016 C 
ENDBRANCH  20  21
BRANCH  20  23
ATOM     23  C   LIG    1        2.427   1.536  -0.272  0.00  0.00    -0.078 C 
ATOM     24  C   LIG    1        3.787   1.002  -0.725  0.00  0.00    -0.016 C 
ENDBRANCH  20  23
BRANCH  20  25
ATOM     25  C   LIG    1        1.328   3.166   1.104  0.00  0.00    -0.078 C 
ATOM     26  C   LIG    1        1.542   4.355   2.042  0.00  0.00    -0.016 C 
ENDBRANCH  20  25
ENDBRANCH  19  20
ENDBRANCH  18  19
ENDBRANCH  17  18
ENDBRANCH   6  17
BRANCH   1  27
ATOM     27  O   LIG    1        0.025  -0.259   1.717  0.00  0.00    -0.490 OA
BRANCH  27  28
ATOM     28  C   LIG    1       -1.390  -0.455   1.729  0.00  0.00    +0.211 C 
BRANCH  28  29
ATOM     29  C   LIG    1       -2.042   0.477   0.705  0.00  0.00    -0.034 C 
BRANCH  29  30
ATOM     30  N   LIG    1       -3.487   0.219   0.658  0.00  0.00    +0.382 N 
BRANCH  30  31
ATOM     31  C   LIG    1       -4.104   1.071  -0.366  0.00  0.00    -0.078 C 
ATOM     32  C   LIG    1       -5.610   0.803  -0.415  0.00  0.00    -0.016 C 
ENDBRANCH  30  31
BRANCH  30  33
ATOM     33  C   LIG    1       -4.081   0.520   1.968  0.00  0.00    -0.078 C 
ATOM     34  C   LIG    1       -3.836   1.990   2.313  0.00  0.00    -0.016 C 
ENDBRANCH  30  33
BRANCH  30  36
ATOM     35  C   LIG    1       -3.052  -1.522  -1.008  0.00  0.00    -0.016 C 
ATOM     36  C   LIG    1       -3.723  -1.193   0.327  0.00  0.00    -0.078 C 
ENDBRANCH  30  36
ENDBRANCH  29  30
ENDBRANCH  28  29
ENDBRANCH  27  28
ENDBRANCH   1  27
TORSDOF 21
