REMARK  Name = ZINC03796018
REMARK                            x       y       z     vdW  Elec       q    Type
REMARK                         _______ _______ _______ _____ _____    ______ ____
ROOT
ATOM      1  C   LIG    1       -0.995  -1.304  -4.291  0.00  0.00    +0.187 A 
ATOM      2  C   LIG    1       -1.915  -1.342  -3.247  0.00  0.00    +0.164 A 
ATOM      3  C   LIG    1       -1.857  -0.390  -2.242  0.00  0.00    +0.055 A 
ATOM      4  C   LIG    1       -0.888   0.596  -2.278  0.00  0.00    -0.013 A 
ATOM      5  C   LIG    1        0.022   0.636  -3.318  0.00  0.00    +0.037 A 
ATOM      6  C   LIG    1       -0.026  -0.314  -4.321  0.00  0.00    +0.134 A 
ENDROOT
BRANCH   4   7
ATOM      7  C   LIG    1       -0.827   1.631  -1.185  0.00  0.00    +0.149 C 
ATOM      8  C   LIG    1       -0.013   1.086   0.008  0.00  0.00    +0.039 C 
ATOM      9  C   LIG    1       -0.809   1.621   1.229  0.00  0.00    +0.039 C 
ATOM     10  C   LIG    1       -2.261   1.562   0.675  0.00  0.00    +0.149 C 
ATOM     11  O   LIG    1       -2.149   1.916  -0.712  0.00  0.00    -0.364 OA
BRANCH  10  12
ATOM     12  C   LIG    1       -3.139   2.551   1.399  0.00  0.00    -0.012 A 
ATOM     13  C   LIG    1       -3.137   3.880   1.019  0.00  0.00    +0.055 A 
ATOM     14  C   LIG    1       -3.948   4.792   1.678  0.00  0.00    +0.166 A 
ATOM     15  C   LIG    1       -4.753   4.370   2.729  0.00  0.00    +0.204 A 
ATOM     16  C   LIG    1       -4.748   3.034   3.111  0.00  0.00    +0.166 A 
ATOM     17  C   LIG    1       -3.939   2.127   2.443  0.00  0.00    +0.055 A 
BRANCH  14  18
ATOM     18  O   LIG    1       -3.950   6.098   1.301  0.00  0.00    -0.491 OA
ATOM     19  C   LIG    1       -3.097   6.460   0.213  0.00  0.00    +0.277 C 
ENDBRANCH  14  18
BRANCH  15  20
ATOM     20  O   LIG    1       -5.546   5.263   3.383  0.00  0.00    -0.488 OA
ATOM     21  C   LIG    1       -4.978   5.927   4.514  0.00  0.00    +0.277 C 
ENDBRANCH  15  20
BRANCH  16  22
ATOM     22  O   LIG    1       -5.534   2.616   4.139  0.00  0.00    -0.491 OA
ATOM     23  C   LIG    1       -5.477   1.228   4.478  0.00  0.00    +0.277 C 
ENDBRANCH  16  22
ENDBRANCH  10  12
ENDBRANCH   4   7
BRANCH   6  24
ATOM     24  S   LIG    1        1.140  -0.263  -5.641  0.00  0.00    +0.003 S 
ATOM     25  O   LIG    1        1.949   0.873  -5.365  0.00  0.00    -0.169 OA
ATOM     26  O   LIG    1        0.353  -0.322  -6.822  0.00  0.00    -0.169 OA
BRANCH  24  27
ATOM     27  C   LIG    1        2.114  -1.782  -5.462  0.00  0.00    +0.199 C 
BRANCH  27  28
ATOM     28  C   LIG    1        3.170  -1.844  -6.567  0.00  0.00    +0.179 C 
BRANCH  28  29
ATOM     29  O   LIG    1        3.938  -3.041  -6.426  0.00  0.00    -0.393 OA
ATOM     30  H   LIG    1        4.628  -3.147  -7.096  0.00  0.00    +0.209 HD
ENDBRANCH  28  29
ENDBRANCH  27  28
ENDBRANCH  24  27
ENDBRANCH   6  24
BRANCH   2  31
ATOM     31  O   LIG    1       -2.867  -2.312  -3.212  0.00  0.00    -0.491 OA
ATOM     32  C   LIG    1       -3.777  -2.290  -2.111  0.00  0.00    +0.277 C 
ENDBRANCH   2  31
BRANCH   1  33
ATOM     33  O   LIG    1       -1.047  -2.236  -5.279  0.00  0.00    -0.486 OA
BRANCH  33  34
ATOM     34  C   LIG    1       -1.858  -1.932  -6.416  0.00  0.00    +0.229 C 
BRANCH  34  36
ATOM     35  C   LIG    1       -2.661  -2.764  -8.631  0.00  0.00    +0.007 C 
ATOM     36  C   LIG    1       -1.793  -3.090  -7.414  0.00  0.00    +0.038 C 
ENDBRANCH  34  36
ENDBRANCH  33  34
ENDBRANCH   1  33
TORSDOF 13
