REMARK  Name = ZINC03812144
REMARK                            x       y       z     vdW  Elec       q    Type
REMARK                         _______ _______ _______ _____ _____    ______ ____
ROOT
ATOM      1  N   LIG    1        4.735   0.057   0.679  0.00  0.00    +0.391 N 
ATOM      2  H   LIG    1        5.523  -0.454   1.095  0.00  0.00    -0.080 HD
ATOM      3  C   LIG    1        3.753  -0.893   0.145  0.00  0.00    -0.023 C 
ATOM      4  C   LIG    1        4.117  -1.094  -1.338  0.00  0.00    +0.094 C 
ATOM      5  C   LIG    1        5.332  -0.171  -1.584  0.00  0.00    +0.015 C 
ATOM      6  C   LIG    1        5.211   0.872  -0.444  0.00  0.00    -0.068 C 
ENDROOT
BRANCH   5   7
ATOM      7  C   LIG    1        5.231   0.497  -2.931  0.00  0.00    -0.042 A 
ATOM      8  C   LIG    1        4.149   1.308  -3.219  0.00  0.00    +0.007 A 
ATOM      9  C   LIG    1        4.053   1.926  -4.452  0.00  0.00    +0.050 A 
ATOM     10  C   LIG    1        5.038   1.727  -5.405  0.00  0.00    +0.166 A 
ATOM     11  C   LIG    1        6.125   0.906  -5.117  0.00  0.00    +0.166 A 
ATOM     12  O   LIG    1        6.946   0.870  -6.207  0.00  0.00    -0.453 OA
ATOM     13  C   LIG    1        6.562   1.998  -7.015  0.00  0.00    +0.466 C 
ATOM     14  O   LIG    1        5.178   2.206  -6.676  0.00  0.00    -0.453 OA
ATOM     15  C   LIG    1        6.217   0.293  -3.878  0.00  0.00    +0.053 A 
ENDBRANCH   5   7
BRANCH   3  16
ATOM     16  C   LIG    1        2.359  -0.332   0.261  0.00  0.00    -0.060 A 
ATOM     17  C   LIG    1        1.371  -1.062   0.894  0.00  0.00    +0.005 A 
ATOM     18  C   LIG    1        0.093  -0.550   1.001  0.00  0.00    +0.046 A 
ATOM     19  C   LIG    1       -0.199   0.699   0.472  0.00  0.00    +0.120 A 
ATOM     20  C   LIG    1        0.794   1.430  -0.164  0.00  0.00    +0.046 A 
ATOM     21  C   LIG    1        2.071   0.913  -0.268  0.00  0.00    +0.005 A 
BRANCH  19  22
ATOM     22  O   LIG    1       -1.458   1.202   0.571  0.00  0.00    -0.495 OA
ATOM     23  C   LIG    1       -1.686   2.494   0.003  0.00  0.00    +0.277 C 
ENDBRANCH  19  22
ENDBRANCH   3  16
BRANCH   4  24
ATOM     24  C   LIG    1        4.490  -2.531  -1.595  0.00  0.00    +0.307 C 
ATOM     25  O   LIG    1        4.473  -3.331  -0.690  0.00  0.00    -0.251 OA
BRANCH  24  26
ATOM     26  O   LIG    1        4.843  -2.922  -2.830  0.00  0.00    -0.480 OA
ATOM     27  H   LIG    1        4.857  -2.301  -3.532  0.00  0.00    +0.295 HD
ENDBRANCH  24  26
ENDBRANCH   4  24
BRANCH   1  28
ATOM     28  C   LIG    1        4.105   0.919   1.724  0.00  0.00    +0.020 C 
BRANCH  28  30
ATOM     29  N   LIG    1        4.836   2.431   3.540  0.00  0.00    -0.303 N 
ATOM     30  C   LIG    1        5.177   1.594   2.540  0.00  0.00    +0.199 C 
ATOM     31  O   LIG    1        6.347   1.384   2.298  0.00  0.00    -0.278 OA
BRANCH  29  32
ATOM     32  C   LIG    1        3.423   2.685   3.833  0.00  0.00    +0.107 C 
BRANCH  32  33
ATOM     33  C   LIG    1        2.924   1.666   4.860  0.00  0.00    +0.019 C 
BRANCH  33  35
ATOM     34  C   LIG    1        0.950   0.913   6.192  0.00  0.00    +0.004 C 
ATOM     35  C   LIG    1        1.449   1.931   5.166  0.00  0.00    -0.002 C 
ENDBRANCH  33  35
ENDBRANCH  32  33
ENDBRANCH  29  32
BRANCH  29  36
ATOM     36  C   LIG    1        5.878   3.088   4.334  0.00  0.00    +0.107 C 
BRANCH  36  37
ATOM     37  C   LIG    1        6.248   4.423   3.685  0.00  0.00    +0.019 C 
BRANCH  37  38
ATOM     38  C   LIG    1        7.336   5.108   4.514  0.00  0.00    -0.002 C 
ATOM     39  C   LIG    1        7.706   6.444   3.866  0.00  0.00    +0.004 C 
ENDBRANCH  37  38
ENDBRANCH  36  37
ENDBRANCH  29  36
ENDBRANCH  28  30
ENDBRANCH   1  28
TORSDOF 13
