REMARK  Name = ZINC03794416
REMARK                            x       y       z     vdW  Elec       q    Type
REMARK                         _______ _______ _______ _____ _____    ______ ____
ROOT
ATOM      1  C   LIG    1        3.307   5.162  -0.181  0.00  0.00    +0.052 C 
ATOM      2  C   LIG    1        3.094   3.663   0.044  0.00  0.00    +0.173 C 
ATOM      3  C   LIG    1        1.610   3.318  -0.140  0.00  0.00    +0.084 C 
ATOM      4  C   LIG    1        1.451   1.800  -0.019  0.00  0.00    +0.108 C 
ATOM      5  C   LIG    1        2.177   1.310   1.208  0.00  0.00    +0.029 A 
ATOM      6  C   LIG    1        1.863   0.059   1.712  0.00  0.00    +0.050 A 
ATOM      7  C   LIG    1        2.510  -0.425   2.834  0.00  0.00    +0.142 A 
ATOM      8  F   LIG    1        2.199  -1.646   3.321  0.00  0.00    -0.204 F 
ATOM      9  C   LIG    1        3.479   0.344   3.458  0.00  0.00    +0.080 A 
ATOM     10 CL   LIG    1        4.296  -0.260   4.865  0.00  0.00    -0.080 Cl
ATOM     11  C   LIG    1        3.794   1.593   2.959  0.00  0.00    +0.069 A 
ATOM     12  C   LIG    1        3.142   2.081   1.831  0.00  0.00    +0.128 A 
ATOM     13  O   LIG    1        3.474   3.318   1.377  0.00  0.00    -0.489 OA
ENDROOT
BRANCH   4  14
ATOM     14  O   LIG    1        0.064   1.475   0.087  0.00  0.00    -0.383 OA
ATOM     15  H   LIG    1       -0.113   0.527   0.165  0.00  0.00    +0.211 HD
ENDBRANCH   4  14
BRANCH   4  16
ATOM     16  C   LIG    1        2.039   1.127  -1.261  0.00  0.00    +0.160 C 
BRANCH  16  17
ATOM     17  C   LIG    1        1.273   1.568  -2.482  0.00  0.00    +0.308 C 
ATOM     18  O   LIG    1        0.280   2.246  -2.360  0.00  0.00    -0.251 OA
BRANCH  17  19
ATOM     19  O   LIG    1        1.693   1.208  -3.704  0.00  0.00    -0.481 OA
ATOM     20  H   LIG    1        2.463   0.682  -3.799  0.00  0.00    +0.295 HD
ENDBRANCH  17  19
ENDBRANCH  16  17
ENDBRANCH   4  16
TORSDOF 4
