REMARK  Name = ZINC03834198
REMARK                            x       y       z     vdW  Elec       q    Type
REMARK                         _______ _______ _______ _____ _____    ______ ____
ROOT
ATOM      1  C   LIG    1        2.921  -6.136   0.661  0.00  0.00    +0.164 A 
ATOM      2  C   LIG    1        2.297  -6.923  -0.281  0.00  0.00    +0.078 A 
ATOM      3  C   LIG    1        2.087  -8.282  -0.015  0.00  0.00    +0.080 A 
ATOM      4  C   LIG    1        2.519  -8.825   1.220  0.00  0.00    +0.044 A 
ATOM      5  C   LIG    1        2.293 -10.201   1.460  0.00  0.00    +0.134 A 
ATOM      6  N   LIG    1        1.688 -10.911   0.517  0.00  0.00    -0.220 NA
ATOM      7  C   LIG    1        1.301 -10.361  -0.622  0.00  0.00    +0.223 A 
ATOM      8  C   LIG    1        3.151  -8.003   2.161  0.00  0.00    +0.062 A 
ATOM      9  N   LIG    1        1.484  -9.092  -0.900  0.00  0.00    -0.235 NA
ATOM     10  C   LIG    1        3.351  -6.681   1.879  0.00  0.00    +0.162 A 
ENDROOT
BRANCH   5  11
ATOM     11  N   LIG    1        2.692 -10.789   2.644  0.00  0.00    -0.297 N 
ATOM     12  H   LIG    1        3.047 -10.241   3.362  0.00  0.00    +0.154 HD
BRANCH  11  13
ATOM     13  C   LIG    1        2.583 -12.174   2.809  0.00  0.00    +0.068 A 
ATOM     14  C   LIG    1        2.456 -12.999   1.699  0.00  0.00    +0.027 A 
ATOM     15  C   LIG    1        2.349 -14.366   1.864  0.00  0.00    +0.017 A 
ATOM     16  C   LIG    1        2.369 -14.915   3.134  0.00  0.00    +0.021 A 
ATOM     17 BR   LIG    1        2.221 -16.788   3.355  0.00  0.00    -0.050 Br
ATOM     18  C   LIG    1        2.495 -14.097   4.243  0.00  0.00    +0.055 A 
ATOM     19  C   LIG    1        2.608 -12.728   4.084  0.00  0.00    +0.145 A 
ATOM     20  F   LIG    1        2.737 -11.930   5.166  0.00  0.00    -0.204 F 
ENDBRANCH  11  13
ENDBRANCH   5  11
BRANCH  10  21
ATOM     21  O   LIG    1        3.970  -5.885   2.791  0.00  0.00    -0.491 OA
ATOM     22  C   LIG    1        4.385  -6.499   4.013  0.00  0.00    +0.277 C 
ENDBRANCH  10  21
BRANCH   1  23
ATOM     23  O   LIG    1        3.127  -4.817   0.406  0.00  0.00    -0.488 OA
BRANCH  23  24
ATOM     24  C   LIG    1        2.665  -4.321  -0.853  0.00  0.00    +0.232 C 
BRANCH  24  30
ATOM     25  C   LIG    1        2.210   1.321  -1.544  0.00  0.00    -0.096 C 
ATOM     26  N   LIG    1        2.030  -0.131  -1.418  0.00  0.00    +0.378 N 
ATOM     27  H   LIG    1        1.059  -0.362  -1.563  0.00  0.00    -0.082 HD
ATOM     28  C   LIG    1        2.849  -0.814  -2.427  0.00  0.00    -0.079 C 
ATOM     29  C   LIG    1        2.603  -2.322  -2.354  0.00  0.00    -0.012 C 
ATOM     30  C   LIG    1        2.983  -2.828  -0.959  0.00  0.00    +0.023 C 
ATOM     31  C   LIG    1        2.177  -2.057   0.090  0.00  0.00    -0.012 C 
ATOM     32  C   LIG    1        2.438  -0.558  -0.074  0.00  0.00    -0.079 C 
ENDBRANCH  24  30
ENDBRANCH  23  24
ENDBRANCH   1  23
TORSDOF 6
