REMARK  Name = ZINC03783527
REMARK                            x       y       z     vdW  Elec       q    Type
REMARK                         _______ _______ _______ _____ _____    ______ ____
ROOT
ATOM      1  C   LIG    1       -1.489   0.612  -1.917  0.00  0.00    +0.160 C 
ATOM      2  C   LIG    1       -1.685  -0.783  -1.322  0.00  0.00    +0.036 C 
ATOM      3  C   LIG    1       -1.221  -0.787   0.136  0.00  0.00    +0.039 C 
ATOM      4  C   LIG    1        0.077  -0.038   0.271  0.00  0.00    -0.026 A 
ATOM      5  C   LIG    1        1.266  -0.725   0.423  0.00  0.00    +0.005 A 
ATOM      6  C   LIG    1        2.452  -0.028   0.571  0.00  0.00    +0.000 A 
ATOM      7  C   LIG    1        2.453   1.355   0.568  0.00  0.00    +0.002 A 
ATOM      8  C   LIG    1        1.267   2.047   0.411  0.00  0.00    +0.024 A 
ATOM      9  C   LIG    1        0.079   1.349   0.258  0.00  0.00    +0.040 A 
ATOM     10  N   LIG    1       -1.130   2.035   0.071  0.00  0.00    -0.265 N 
ATOM     11  C   LIG    1       -1.934   1.668  -0.944  0.00  0.00    +0.240 C 
ATOM     12  O   LIG    1       -3.020   2.192  -1.074  0.00  0.00    -0.273 OA
ENDROOT
BRANCH   1  14
ATOM     13  C   LIG    1       -1.909   1.608  -4.100  0.00  0.00    +0.212 C 
ATOM     14  N   LIG    1       -2.275   0.728  -3.148  0.00  0.00    -0.304 N 
ATOM     15  H   LIG    1       -3.058   0.170  -3.277  0.00  0.00    +0.149 HD
ATOM     16  O   LIG    1       -0.930   2.306  -3.938  0.00  0.00    -0.276 OA
BRANCH  13  17
ATOM     17  C   LIG    1       -2.717   1.727  -5.367  0.00  0.00    +0.082 C 
BRANCH  17  19
ATOM     18  C   LIG    1       -2.082   4.137  -5.546  0.00  0.00    -0.010 C 
ATOM     19  C   LIG    1       -2.093   2.790  -6.272  0.00  0.00    -0.069 C 
ATOM     20  C   LIG    1       -0.658   2.387  -6.619  0.00  0.00    -0.010 C 
BRANCH  19  21
ATOM     21  N   LIG    1       -2.903   2.913  -7.497  0.00  0.00    +0.382 N 
ATOM     22  H   LIG    1       -3.851   3.217  -7.246  0.00  0.00    -0.089 HD
ATOM     23  H   LIG    1       -2.957   2.014  -7.972  0.00  0.00    -0.089 HD
ATOM     24  H   LIG    1       -2.488   3.603  -8.122  0.00  0.00    -0.089 HD
ENDBRANCH  19  21
ENDBRANCH  17  19
ENDBRANCH  13  17
ENDBRANCH   1  14
BRANCH  10  25
ATOM     25  C   LIG    1       -1.511   3.131   0.966  0.00  0.00    +0.148 C 
BRANCH  25  26
ATOM     26  C   LIG    1       -2.228   2.572   2.168  0.00  0.00    -0.030 A 
ATOM     27  C   LIG    1       -3.605   2.439   2.148  0.00  0.00    +0.006 A 
ATOM     28  C   LIG    1       -4.266   1.923   3.244  0.00  0.00    +0.009 A 
ATOM     29  C   LIG    1       -3.546   1.546   4.376  0.00  0.00    -0.017 A 
ATOM     30  C   LIG    1       -2.159   1.687   4.392  0.00  0.00    +0.009 A 
ATOM     31  C   LIG    1       -1.507   2.199   3.288  0.00  0.00    +0.006 A 
BRANCH  29  32
ATOM     32  C   LIG    1       -4.251   0.997   5.559  0.00  0.00    -0.007 A 
ATOM     33  C   LIG    1       -3.821  -0.193   6.140  0.00  0.00    +0.009 A 
ATOM     34  C   LIG    1       -4.478  -0.698   7.244  0.00  0.00    +0.001 A 
ATOM     35  C   LIG    1       -5.572  -0.035   7.774  0.00  0.00    +0.001 A 
ATOM     36  C   LIG    1       -6.015   1.143   7.207  0.00  0.00    +0.012 A 
ATOM     37  C   LIG    1       -5.361   1.671   6.095  0.00  0.00    +0.028 A 
BRANCH  37  38
ATOM     38  C   LIG    1       -5.832   2.932   5.484  0.00  0.00    +0.180 A 
ATOM     39  N   LIG    1       -6.870   3.686   5.871  0.00  0.00    -0.239 N 
ATOM     40  H   LIG    1       -7.476   3.506   6.626  0.00  0.00    +0.192 HD
ATOM     41  N   LIG    1       -6.930   4.771   5.005  0.00  0.00    -0.046 NA
ATOM     42  N   LIG    1       -5.963   4.611   4.169  0.00  0.00    -0.023 NA
ATOM     43  N   LIG    1       -5.311   3.538   4.438  0.00  0.00    -0.108 NA
ENDBRANCH  37  38
ENDBRANCH  29  32
ENDBRANCH  25  26
ENDBRANCH  10  25
TORSDOF 8
