REMARK  Name = ZINC03831128
REMARK                            x       y       z     vdW  Elec       q    Type
REMARK                         _______ _______ _______ _____ _____    ______ ____
ROOT
ATOM      1  C   LIG    1       -0.320  -1.693   1.232  0.00  0.00    +0.132 C 
ATOM      2  C   LIG    1        0.920  -1.901   0.329  0.00  0.00    +0.049 C 
ATOM      3  C   LIG    1        0.493  -2.901  -0.778  0.00  0.00    +0.008 C 
ATOM      4  C   LIG    1       -1.031  -2.731  -0.831  0.00  0.00    +0.006 C 
ATOM      5  C   LIG    1       -1.786  -3.915  -1.420  0.00  0.00    +0.020 C 
ATOM      6  C   LIG    1       -1.441  -4.092  -2.866  0.00  0.00    +0.013 C 
ATOM      7  C   LIG    1       -2.444  -4.991  -3.588  0.00  0.00    +0.036 C 
ATOM      8  C   LIG    1       -3.813  -4.381  -3.416  0.00  0.00    -0.041 C 
ATOM      9  C   LIG    1       -4.686  -4.290  -4.442  0.00  0.00    +0.050 C 
ATOM     10  C   LIG    1       -5.929  -3.656  -4.269  0.00  0.00    +0.157 C 
ATOM     11  O   LIG    1       -6.752  -3.706  -5.161  0.00  0.00    -0.293 OA
ATOM     12  C   LIG    1       -6.260  -2.918  -3.000  0.00  0.00    +0.083 C 
ATOM     13  C   LIG    1       -5.641  -3.638  -1.798  0.00  0.00    +0.043 C 
ATOM     14  C   LIG    1       -4.179  -3.890  -2.087  0.00  0.00    -0.044 C 
ATOM     15  C   LIG    1       -3.257  -3.692  -1.148  0.00  0.00    -0.055 C 
ATOM     16  C   LIG    1       -3.733  -3.219   0.211  0.00  0.00    +0.046 C 
ATOM     17  C   LIG    1       -2.818  -2.113   0.759  0.00  0.00    +0.023 C 
ATOM     18  C   LIG    1       -1.392  -2.627   0.675  0.00  0.00    +0.012 C 
ATOM     19  C   LIG    1       -1.280  -4.003   1.335  0.00  0.00    +0.015 C 
ENDROOT
BRANCH  16  20
ATOM     20  C   LIG    1       -3.731  -4.383   1.168  0.00  0.00    -0.040 A 
ATOM     21  C   LIG    1       -3.803  -4.156   2.530  0.00  0.00    +0.006 A 
ATOM     22  C   LIG    1       -3.801  -5.221   3.410  0.00  0.00    +0.023 A 
ATOM     23  C   LIG    1       -3.728  -6.520   2.925  0.00  0.00    +0.029 A 
ATOM     24  C   LIG    1       -3.657  -6.745   1.556  0.00  0.00    +0.023 A 
ATOM     25  C   LIG    1       -3.664  -5.676   0.682  0.00  0.00    +0.006 A 
BRANCH  23  26
ATOM     26  N   LIG    1       -3.726  -7.599   3.812  0.00  0.00    -0.336 N 
ATOM     27  C   LIG    1       -3.649  -8.969   3.299  0.00  0.00    +0.129 C 
ATOM     28  C   LIG    1       -3.801  -7.361   5.256  0.00  0.00    +0.129 C 
ENDBRANCH  23  26
ENDBRANCH  16  20
BRANCH   1  31
ATOM     29  C   LIG    1       -1.591   2.219   1.026  0.00  0.00    +0.106 C 
ATOM     30  C   LIG    1       -1.137   0.820   1.100  0.00  0.00    -0.103 C 
ATOM     31  C   LIG    1       -0.774  -0.295   1.159  0.00  0.00    -0.067 C 
ENDBRANCH   1  31
BRANCH   1  32
ATOM     32  O   LIG    1       -0.014  -2.042   2.584  0.00  0.00    -0.376 OA
ATOM     33  H   LIG    1        0.675  -1.495   2.985  0.00  0.00    +0.211 HD
ENDBRANCH   1  32
TORSDOF 4
