REMARK  Name = ZINC03861263
REMARK                            x       y       z     vdW  Elec       q    Type
REMARK                         _______ _______ _______ _____ _____    ______ ____
ROOT
ATOM      1  C   LIG    1       -0.016   1.296   0.009  0.00  0.00    +0.198 A 
ATOM      2  N   LIG    1        1.264   1.767  -0.001  0.00  0.00    -0.333 N 
ATOM      3  C   LIG    1        2.101   0.688  -0.014  0.00  0.00    +0.126 A 
ATOM      4  C   LIG    1        1.291  -0.434  -0.013  0.00  0.00    +0.163 A 
ATOM      5  H   LIG    1        1.531   2.699   0.002  0.00  0.00    +0.168 HD
ATOM      6  N   LIG    1        0.002  -0.004   0.002  0.00  0.00    -0.229 NA
ENDROOT
BRANCH   3   7
ATOM      7  N   LIG    1        3.484   0.713  -0.028  0.00  0.00    -0.343 N 
ATOM      8  H   LIG    1        3.984  -0.119  -0.037  0.00  0.00    +0.144 HD
ATOM      9  H   LIG    1        3.954   1.561  -0.028  0.00  0.00    +0.144 HD
ENDBRANCH   3   7
BRANCH   4  10
ATOM     10  C   LIG    1        1.743  -1.834  -0.025  0.00  0.00    +0.235 C 
ATOM     11  N   LIG    1        0.867  -2.802  -0.022  0.00  0.00    -0.265 NA
ATOM     12  H   LIG    1        1.165  -3.725  -0.030  0.00  0.00    +0.190 HD
BRANCH  10  13
ATOM     13  O   LIG    1        3.066  -2.118  -0.040  0.00  0.00    -0.491 OA
ATOM     14  H   LIG    1        3.264  -3.064  -0.048  0.00  0.00    +0.294 HD
ENDBRANCH  10  13
ENDBRANCH   4  10
TORSDOF 3
