REMARK  Name = ZINC03778392
REMARK                            x       y       z     vdW  Elec       q    Type
REMARK                         _______ _______ _______ _____ _____    ______ ____
ROOT
ATOM      1  O   LIG    1        6.881   5.704  -2.815  0.00  0.00    -0.422 OA
ENDROOT
BRANCH   1   2
ATOM      2  C   LIG    1        7.833   6.654  -2.621  0.00  0.00    +0.133 A 
ATOM      3  C   LIG    1        8.727   6.958  -3.653  0.00  0.00    +0.047 A 
ATOM      4  C   LIG    1        9.687   7.906  -3.487  0.00  0.00    +0.012 A 
ATOM      5  C   LIG    1        9.795   8.588  -2.262  0.00  0.00    -0.017 A 
ATOM      6  C   LIG    1       10.780   9.567  -2.064  0.00  0.00    +0.024 A 
ATOM      7  C   LIG    1       10.859  10.218  -0.845  0.00  0.00    +0.061 A 
ATOM      8  C   LIG    1        9.962   9.905   0.191  0.00  0.00    +0.016 A 
ATOM      9  C   LIG    1        9.002   8.961   0.019  0.00  0.00    +0.009 A 
ATOM     10  C   LIG    1        8.896   8.281  -1.209  0.00  0.00    -0.014 A 
ATOM     11  C   LIG    1        7.911   7.301  -1.409  0.00  0.00    +0.055 A 
BRANCH   7  12
ATOM     12  C   LIG    1       11.896  11.252  -0.631  0.00  0.00    +0.266 C 
ATOM     13  N   LIG    1       12.713  11.505  -1.643  0.00  0.00    -0.288 N 
ATOM     14  H   LIG    1       12.610  10.992  -2.526  0.00  0.00    +0.301 HD
ATOM     15  H   LIG    1       13.444  12.210  -1.544  0.00  0.00    +0.301 HD
BRANCH  12  16
ATOM     16  N   LIG    1       11.979  11.904   0.580  0.00  0.00    -0.250 N 
ATOM     17  H   LIG    1       12.659  12.582   0.720  0.00  0.00    +0.288 HD
ATOM     18  H   LIG    1       11.358  11.685   1.292  0.00  0.00    +0.288 HD
ENDBRANCH  12  16
ENDBRANCH   7  12
ENDBRANCH   1   2
BRANCH   1  19
ATOM     19  C   LIG    1        7.306   4.438  -2.993  0.00  0.00    +0.344 C 
ATOM     20  O   LIG    1        8.487   4.172  -2.881  0.00  0.00    -0.245 OA
BRANCH  19  26
ATOM     21  C   LIG    1        6.779   2.060  -3.507  0.00  0.00    +0.018 A 
ATOM     22  C   LIG    1        5.874   1.071  -3.815  0.00  0.00    +0.041 A 
ATOM     23  C   LIG    1        4.522   1.376  -3.942  0.00  0.00    +0.092 A 
ATOM     24  C   LIG    1        4.082   2.685  -3.765  0.00  0.00    +0.041 A 
ATOM     25  C   LIG    1        4.981   3.679  -3.452  0.00  0.00    +0.018 A 
ATOM     26  C   LIG    1        6.340   3.375  -3.323  0.00  0.00    +0.060 A 
BRANCH  23  27
ATOM     27  N   LIG    1        3.609   0.372  -4.253  0.00  0.00    -0.209 N 
ATOM     28  H   LIG    1        3.900  -0.414  -4.741  0.00  0.00    +0.251 HD
BRANCH  27  29
ATOM     29  C   LIG    1        2.292   0.494  -3.867  0.00  0.00    +0.334 C 
ATOM     30  N   LIG    1        1.871   1.460  -3.114  0.00  0.00    -0.279 N 
ATOM     31  H   LIG    1        2.458   2.214  -2.737  0.00  0.00    +0.258 HD
ATOM     32  C   LIG    1        0.425   1.316  -2.880  0.00  0.00    +0.230 C 
ATOM     33  C   LIG    1        0.042   0.044  -3.663  0.00  0.00    +0.221 C 
ATOM     34  N   LIG    1        1.322  -0.392  -4.246  0.00  0.00    -0.238 N 
ATOM     35  H   LIG    1        1.454  -1.173  -4.806  0.00  0.00    +0.244 HD
ENDBRANCH  27  29
ENDBRANCH  23  27
ENDBRANCH  19  26
ENDBRANCH   1  19
TORSDOF 7
