REMARK  Name = ZINC03831000
REMARK                            x       y       z     vdW  Elec       q    Type
REMARK                         _______ _______ _______ _____ _____    ______ ____
ROOT
ATOM      1  C   LIG    1        0.002  -0.004   0.002  0.00  0.00    +0.155 A 
ATOM      2  C   LIG    1       -0.017   1.384   0.010  0.00  0.00    +0.057 A 
ATOM      3  I   LIG    1       -1.845   2.407   0.024  0.00  0.00    -0.040 I 
ATOM      4  C   LIG    1        1.171   2.090   0.002  0.00  0.00    +0.021 A 
ATOM      5  C   LIG    1        2.378   1.415  -0.013  0.00  0.00    -0.046 A 
ATOM      6  C   LIG    1        2.400   0.032  -0.021  0.00  0.00    +0.021 A 
ATOM      7  C   LIG    1        1.215  -0.679  -0.013  0.00  0.00    +0.057 A 
ATOM      8  I   LIG    1        1.249  -2.774  -0.025  0.00  0.00    -0.040 I 
ENDROOT
BRANCH   1   9
ATOM      9  O   LIG    1       -1.165  -0.701   0.010  0.00  0.00    -0.454 OA
BRANCH   9  16
ATOM     10  C   LIG    1       -1.108  -0.633  -2.367  0.00  0.00    +0.050 A 
ATOM     11  C   LIG    1       -1.674  -0.964  -3.583  0.00  0.00    +0.050 A 
ATOM     12  C   LIG    1       -2.864  -1.675  -3.624  0.00  0.00    +0.130 A 
ATOM     13  C   LIG    1       -3.484  -2.058  -2.443  0.00  0.00    +0.058 A 
ATOM     14  I   LIG    1       -5.283  -3.131  -2.505  0.00  0.00    -0.040 I 
ATOM     15  C   LIG    1       -2.916  -1.732  -1.227  0.00  0.00    +0.064 A 
ATOM     16  C   LIG    1       -1.725  -1.022  -1.187  0.00  0.00    +0.130 A 
BRANCH  12  17
ATOM     17  O   LIG    1       -3.424  -1.995  -4.821  0.00  0.00    -0.506 OA
ATOM     18  H   LIG    1       -4.039  -1.330  -5.159  0.00  0.00    +0.292 HD
ENDBRANCH  12  17
ENDBRANCH   9  16
ENDBRANCH   1   9
BRANCH   5  19
ATOM     19  C   LIG    1        3.672   2.187  -0.020  0.00  0.00    +0.030 C 
BRANCH  19  20
ATOM     20  CA  LIG    1        4.097   2.457  -1.465  0.00  0.00    +0.040 C 
BRANCH  20  21
ATOM     21  N   LIG    1        3.125   3.342  -2.130  0.00  0.00    +0.387 N 
ATOM     22  H1  LIG    1        3.445   3.537  -3.086  0.00  0.00    -0.089 HD
ATOM     23  H2  LIG    1        3.046   4.220  -1.621  0.00  0.00    -0.089 HD
ATOM     24  H3  LIG    1        2.212   2.890  -2.171  0.00  0.00    -0.089 HD
ENDBRANCH  20  21
BRANCH  20  25
ATOM     25  C   LIG    1        5.450   3.121  -1.475  0.00  0.00    +0.290 C 
ATOM     26  O   LIG    1        5.535   4.317  -1.621  0.00  0.00    -0.253 OA
BRANCH  25  27
ATOM     27  OXT LIG    1        6.560   2.383  -1.321  0.00  0.00    -0.482 OA
ATOM     28  HXT LIG    1        6.495   1.455  -1.208  0.00  0.00    +0.295 HD
ENDBRANCH  25  27
ENDBRANCH  20  25
ENDBRANCH  19  20
ENDBRANCH   5  19
TORSDOF 8
