REMARK  Name = ZINC03786304
REMARK                            x       y       z     vdW  Elec       q    Type
REMARK                         _______ _______ _______ _____ _____    ______ ____
ROOT
ATOM      1  C   LIG    1        4.785   5.408  -0.013  0.00  0.00    -0.028 A 
ATOM      2  C   LIG    1        3.787   5.712  -0.921  0.00  0.00    +0.006 A 
ATOM      3  C   LIG    1        2.606   4.997  -0.919  0.00  0.00    +0.009 A 
ATOM      4  C   LIG    1        2.421   3.966   0.001  0.00  0.00    -0.017 A 
ATOM      5  C   LIG    1        3.428   3.668   0.917  0.00  0.00    +0.009 A 
ATOM      6  C   LIG    1        4.606   4.386   0.902  0.00  0.00    +0.006 A 
ENDROOT
BRANCH   4   7
ATOM      7  C   LIG    1        1.156   3.194   0.008  0.00  0.00    -0.007 A 
ATOM      8  C   LIG    1       -0.069   3.857   0.024  0.00  0.00    +0.009 A 
ATOM      9  C   LIG    1       -1.245   3.134   0.031  0.00  0.00    +0.001 A 
ATOM     10  C   LIG    1       -1.217   1.750   0.017  0.00  0.00    +0.001 A 
ATOM     11  C   LIG    1       -0.013   1.076   0.008  0.00  0.00    +0.012 A 
ATOM     12  C   LIG    1        1.185   1.789   0.000  0.00  0.00    +0.028 A 
BRANCH  12  13
ATOM     13  C   LIG    1        2.478   1.072  -0.016  0.00  0.00    +0.180 A 
ATOM     14  N   LIG    1        2.674  -0.253  -0.021  0.00  0.00    -0.239 N 
ATOM     15  H   LIG    1        1.977  -0.948  -0.012  0.00  0.00    +0.192 HD
ATOM     16  N   LIG    1        4.047  -0.462  -0.039  0.00  0.00    -0.046 NA
ATOM     17  N   LIG    1        4.584   0.711  -0.038  0.00  0.00    -0.023 NA
ATOM     18  N   LIG    1        3.676   1.619  -0.025  0.00  0.00    -0.108 NA
ENDBRANCH  12  13
ENDBRANCH   4   7
BRANCH   1  19
ATOM     19  C   LIG    1        6.071   6.192  -0.021  0.00  0.00    +0.158 C 
BRANCH  19  30
ATOM     20  C   LIG    1        6.246   7.382   2.186  0.00  0.00    +0.111 A 
ATOM     21  N   LIG    1        5.955   8.567   2.667  0.00  0.00    -0.236 NA
ATOM     22  C   LIG    1        5.461   9.337   1.696  0.00  0.00    +0.070 A 
ATOM     23  C   LIG    1        5.504   8.604   0.537  0.00  0.00    +0.108 A 
ATOM     24  C   LIG    1        5.183   9.110  -0.746  0.00  0.00    +0.181 C 
ATOM     25  C   LIG    1        5.100  10.605  -0.925  0.00  0.00    +0.081 C 
ATOM     26  C   LIG    1        3.812  11.155  -0.365  0.00  0.00    +0.008 C 
ATOM     27  C   LIG    1        3.564  10.812   1.097  0.00  0.00    +0.007 C 
ATOM     28  O   LIG    1        4.980   8.360  -1.678  0.00  0.00    -0.290 OA
ATOM     29  C   LIG    1        4.876  10.718   1.879  0.00  0.00    +0.058 C 
ATOM     30  N   LIG    1        5.946   7.345   0.874  0.00  0.00    -0.321 N 
BRANCH  20  31
ATOM     31  C   LIG    1        6.826   6.239   2.979  0.00  0.00    +0.074 C 
BRANCH  31  33
ATOM     32  C   LIG    1        8.942   5.147   3.735  0.00  0.00    +0.004 C 
ATOM     33  C   LIG    1        8.353   6.307   2.930  0.00  0.00    +0.004 C 
ENDBRANCH  31  33
ENDBRANCH  20  31
ENDBRANCH  19  30
ENDBRANCH   1  19
TORSDOF 6
