REMARK  Name = ZINC03870331
REMARK                            x       y       z     vdW  Elec       q    Type
REMARK                         _______ _______ _______ _____ _____    ______ ____
ROOT
ATOM      1  N   LIG    1       -1.376  -0.512   0.012  0.00  0.00    +0.384 N 
ATOM      2  H   LIG    1       -1.848  -0.187   0.843  0.00  0.00    -0.085 HD
ATOM      3  H   LIG    1       -1.362  -1.521   0.007  0.00  0.00    -0.085 HD
ENDROOT
BRANCH   1   5
ATOM      4  C   LIG    1       -0.019   1.526   0.010  0.00  0.00    -0.010 C 
ATOM      5  C   LIG    1        0.002  -0.004   0.002  0.00  0.00    -0.071 C 
ATOM      6  C   LIG    1        0.718  -0.497  -1.257  0.00  0.00    -0.012 C 
ATOM      7  C   LIG    1        2.154   0.032  -1.268  0.00  0.00    +0.004 C 
ATOM      8  C   LIG    1        2.894  -0.475  -0.028  0.00  0.00    +0.012 C 
ATOM      9  C   LIG    1        2.178   0.019   1.231  0.00  0.00    +0.004 C 
ATOM     10  C   LIG    1        0.742  -0.511   1.242  0.00  0.00    -0.012 C 
BRANCH   8  11
ATOM     11  C   LIG    1        4.329   0.055  -0.039  0.00  0.00    +0.032 C 
ATOM     12  C   LIG    1        4.311   1.579   0.095  0.00  0.00    +0.031 C 
ATOM     13  C   LIG    1        5.006  -0.334  -1.355  0.00  0.00    +0.031 C 
BRANCH  11  14
ATOM     14  N   LIG    1        5.072  -0.525   1.082  0.00  0.00    -0.309 N 
ATOM     15  H   LIG    1        4.633  -1.144   1.687  0.00  0.00    +0.149 HD
ATOM     16  C   LIG    1        6.366  -0.200   1.273  0.00  0.00    +0.224 C 
ATOM     17  O   LIG    1        6.915   0.573   0.517  0.00  0.00    -0.275 OA
BRANCH  16  18
ATOM     18  C   LIG    1        7.130  -0.797   2.427  0.00  0.00    +0.175 C 
ATOM     19 BR   LIG    1        8.975  -0.117   2.413  0.00  0.00    -0.082 Br
ENDBRANCH  16  18
ENDBRANCH  11  14
ENDBRANCH   8  11
ENDBRANCH   1   5
BRANCH   1  20
ATOM     20  C   LIG    1       -2.087  -0.026  -1.178  0.00  0.00    -0.047 C 
BRANCH  20  21
ATOM     21  C   LIG    1       -3.522  -0.555  -1.167  0.00  0.00    +0.135 C 
BRANCH  21  22
ATOM     22  O   LIG    1       -4.226  -0.001  -0.053  0.00  0.00    -0.390 OA
ATOM     23  H   LIG    1       -4.278   0.964  -0.062  0.00  0.00    +0.210 HD
ENDBRANCH  21  22
BRANCH  21  24
ATOM     24  C   LIG    1       -4.224  -0.153  -2.465  0.00  0.00    +0.258 C 
BRANCH  24  25
ATOM     25  O   LIG    1       -5.524  -0.745  -2.507  0.00  0.00    -0.489 OA
BRANCH  25  26
ATOM     26  C   LIG    1       -6.285  -0.485  -3.603  0.00  0.00    +0.130 A 
ATOM     27  C   LIG    1       -5.794   0.314  -4.617  0.00  0.00    +0.046 A 
ATOM     28  C   LIG    1       -6.569   0.580  -5.737  0.00  0.00    +0.006 A 
ATOM     29  C   LIG    1       -7.837   0.054  -5.856  0.00  0.00    +0.026 A 
ATOM     30  C   LIG    1       -8.353  -0.754  -4.847  0.00  0.00    +0.050 A 
ATOM     31  N   LIG    1       -9.553  -1.408  -4.681  0.00  0.00    -0.361 N 
ATOM     32  H   LIG    1      -10.287  -1.395  -5.315  0.00  0.00    +0.165 HD
ATOM     33  C   LIG    1       -9.550  -2.092  -3.495  0.00  0.00    +0.084 A 
ATOM     34  C   LIG    1       -8.383  -1.899  -2.860  0.00  0.00    +0.031 A 
ATOM     35  C   LIG    1       -7.569  -1.031  -3.714  0.00  0.00    +0.041 A 
ENDBRANCH  25  26
ENDBRANCH  24  25
ENDBRANCH  21  24
ENDBRANCH  20  21
ENDBRANCH   1  20
TORSDOF 10
