REMARK  Name = ZINC03831404
REMARK                            x       y       z     vdW  Elec       q    Type
REMARK                         _______ _______ _______ _____ _____    ______ ____
ROOT
ATOM      1  C   LIG    1       -1.333  -4.915   0.005  0.00  0.00    +0.132 C 
ENDROOT
BRANCH   1   7
ATOM      2  C   LIG    1       -1.286  -0.636  -0.019  0.00  0.00    +0.121 A 
ATOM      3  C   LIG    1       -2.479   0.094  -0.011  0.00  0.00    +0.048 A 
ATOM      4  C   LIG    1       -3.684  -0.535   0.004  0.00  0.00    +0.032 A 
ATOM      5  C   LIG    1       -3.740  -1.940   0.013  0.00  0.00    +0.072 A 
ATOM      6  C   LIG    1       -2.531  -2.680   0.005  0.00  0.00    +0.009 A 
ATOM      7  C   LIG    1       -2.592  -4.086   0.014  0.00  0.00    -0.010 A 
ATOM      8  C   LIG    1       -3.822  -4.678   0.029  0.00  0.00    +0.026 A 
ATOM      9  C   LIG    1       -4.972  -3.892   0.036  0.00  0.00    +0.112 A 
ATOM     10  N   LIG    1       -4.912  -2.582   0.028  0.00  0.00    -0.255 NA
ATOM     11  C   LIG    1       -1.303  -2.002  -0.016  0.00  0.00    +0.056 A 
BRANCH   2  13
ATOM     12  C   LIG    1       -0.145   1.450  -0.036  0.00  0.00    +0.277 C 
ATOM     13  O   LIG    1       -0.097   0.022  -0.034  0.00  0.00    -0.495 OA
ENDBRANCH   2  13
ENDBRANCH   1   7
BRANCH   1  14
ATOM     14  C   LIG    1       -0.853  -5.099  -1.436  0.00  0.00    -0.035 C 
ATOM     15  C   LIG    1       -1.840  -5.992  -2.190  0.00  0.00    -0.009 C 
ATOM     16  C   LIG    1       -1.097  -7.239  -2.689  0.00  0.00    -0.009 C 
ATOM     17  C   LIG    1       -0.521  -7.978  -1.474  0.00  0.00    -0.015 C 
ATOM     18  C   LIG    1        0.418  -7.032  -0.721  0.00  0.00    -0.078 C 
ATOM     19  C   LIG    1        0.054  -6.786  -3.596  0.00  0.00    -0.003 C 
ATOM     20  C   LIG    1        0.979  -5.869  -2.797  0.00  0.00    -0.071 C 
ATOM     21  N   LIG    1        0.476  -5.715  -1.430  0.00  0.00    +0.384 N 
ATOM     22  H   LIG    1        1.108  -5.107  -0.931  0.00  0.00    -0.081 HD
BRANCH  19  23
ATOM     23  C   LIG    1       -0.502  -6.037  -4.781  0.00  0.00    -0.033 C 
ATOM     24  C   LIG    1       -0.281  -6.477  -5.995  0.00  0.00    +0.004 C 
ENDBRANCH  19  23
ENDBRANCH   1  14
BRANCH   1  25
ATOM     25  O   LIG    1       -1.601  -6.193   0.585  0.00  0.00    -0.389 OA
ATOM     26  H   LIG    1       -2.281  -6.701   0.120  0.00  0.00    +0.210 HD
ENDBRANCH   1  25
TORSDOF 5
