REMARK  Name = ZINC03808299
REMARK                            x       y       z     vdW  Elec       q    Type
REMARK                         _______ _______ _______ _____ _____    ______ ____
ROOT
ATOM      1  C   LIG    1       -0.018   1.461   0.010  0.00  0.00    +0.174 C 
ATOM      2  N   LIG    1        0.002  -0.004   0.002  0.00  0.00    -0.248 N 
ATOM      3  C   LIG    1       -1.181  -0.699   0.004  0.00  0.00    +0.162 A 
ATOM      4  C   LIG    1       -1.096  -2.079  -0.005  0.00  0.00    +0.073 A 
ATOM      5  C   LIG    1        0.162  -2.823  -0.017  0.00  0.00    +0.047 A 
ATOM      6  C   LIG    1        1.373  -1.982  -0.018  0.00  0.00    +0.146 A 
ATOM      7  C   LIG    1       -0.218  -4.115  -0.022  0.00  0.00    +0.102 A 
ATOM      8  N   LIG    1       -1.601  -4.199  -0.015  0.00  0.00    -0.302 N 
ATOM      9  C   LIG    1       -2.163  -2.956  -0.004  0.00  0.00    +0.149 A 
ATOM     10  N   LIG    1       -3.362  -2.364   0.006  0.00  0.00    -0.218 NA
ATOM     11  C   LIG    1       -3.444  -1.046   0.014  0.00  0.00    +0.225 A 
ATOM     12  N   LIG    1       -2.414  -0.205   0.014  0.00  0.00    -0.216 NA
ATOM     13  N   LIG    1        1.230  -0.681  -0.013  0.00  0.00    -0.154 NA
ENDROOT
BRANCH   8  14
ATOM     14  C1* LIG    1       -2.357  -5.454  -0.019  0.00  0.00    +0.252 C 
ATOM     15  C2* LIG    1       -2.717  -5.860  -1.466  0.00  0.00    +0.195 C 
ATOM     16  C3* LIG    1       -2.584  -7.400  -1.467  0.00  0.00    +0.178 C 
ATOM     17  C4* LIG    1       -2.160  -7.741  -0.021  0.00  0.00    +0.177 C 
ATOM     18  O4* LIG    1       -1.540  -6.535   0.478  0.00  0.00    -0.346 OA
BRANCH  15  19
ATOM     19  O2* LIG    1       -4.056  -5.470  -1.777  0.00  0.00    -0.385 OA
ATOM     20  H2* LIG    1       -4.334  -5.701  -2.674  0.00  0.00    +0.210 HD
ENDBRANCH  15  19
BRANCH  16  21
ATOM     21  O3* LIG    1       -3.838  -8.010  -1.781  0.00  0.00    -0.386 OA
ATOM     22  H3* LIG    1       -3.812  -8.976  -1.796  0.00  0.00    +0.210 HD
ENDBRANCH  16  21
BRANCH  17  23
ATOM     23  C5* LIG    1       -1.161  -8.899  -0.018  0.00  0.00    +0.190 C 
BRANCH  23  24
ATOM     24  O5* LIG    1       -0.871  -9.275   1.329  0.00  0.00    -0.392 OA
ATOM     25  H5* LIG    1       -0.242 -10.006   1.407  0.00  0.00    +0.210 HD
ENDBRANCH  23  24
ENDBRANCH  17  23
ENDBRANCH   8  14
BRANCH   6  26
ATOM     26  N   LIG    1        2.639  -2.559  -0.028  0.00  0.00    -0.341 N 
ATOM     27  H   LIG    1        3.428  -1.995  -0.029  0.00  0.00    +0.144 HD
ATOM     28  H   LIG    1        2.732  -3.524  -0.033  0.00  0.00    +0.144 HD
ENDBRANCH   6  26
TORSDOF 6
