REMARK  Name = ZINC03872369
REMARK                            x       y       z     vdW  Elec       q    Type
REMARK                         _______ _______ _______ _____ _____    ______ ____
ROOT
ATOM      1  C   LIG    1       -0.017   1.378   0.010  0.00  0.00    +0.053 A 
ATOM      2  C   LIG    1        1.170   2.101   0.002  0.00  0.00    -0.041 A 
ATOM      3  C   LIG    1        2.376   1.437  -0.010  0.00  0.00    -0.042 A 
ATOM      4  C   LIG    1        3.699   2.159  -0.002  0.00  0.00    +0.019 C 
ATOM      5  C   LIG    1        3.518   3.617  -0.420  0.00  0.00    -0.071 C 
ATOM      6  C   LIG    1        2.399   4.229   0.431  0.00  0.00    -0.011 C 
ATOM      7  C   LIG    1        2.399   0.048  -0.021  0.00  0.00    +0.053 A 
ATOM      8  C   LIG    1        1.221  -0.675  -0.015  0.00  0.00    +0.158 A 
ATOM      9  C   LIG    1        1.072   3.605   0.004  0.00  0.00    +0.034 C 
ATOM     10  C   LIG    1        0.002  -0.004   0.002  0.00  0.00    +0.158 A 
ENDROOT
BRANCH   5  11
ATOM     11  N   LIG    1        4.769   4.354  -0.197  0.00  0.00    +0.380 N 
ATOM     12  H   LIG    1        5.014   4.314   0.781  0.00  0.00    -0.090 HD
ATOM     13  H   LIG    1        4.646   5.316  -0.474  0.00  0.00    -0.090 HD
ATOM     14  H   LIG    1        5.507   3.937  -0.746  0.00  0.00    -0.090 HD
ENDBRANCH   5  11
BRANCH   8  15
ATOM     15  O   LIG    1        1.254  -2.035  -0.027  0.00  0.00    -0.503 OA
ATOM     16  H   LIG    1        1.272  -2.435   0.853  0.00  0.00    +0.292 HD
ENDBRANCH   8  15
BRANCH  10  17
ATOM     17  O   LIG    1       -1.164  -0.704   0.011  0.00  0.00    -0.503 OA
ATOM     18  H   LIG    1       -1.511  -0.902  -0.870  0.00  0.00    +0.292 HD
ENDBRANCH  10  17
TORSDOF 3
