REMARK  Name = ZINC03785159
REMARK                            x       y       z     vdW  Elec       q    Type
REMARK                         _______ _______ _______ _____ _____    ______ ____
ROOT
ATOM      1  N   LIG    1        0.762  -1.980   1.234  0.00  0.00    +0.380 N 
ATOM      2  H   LIG    1       -0.182  -2.328   1.160  0.00  0.00    -0.082 HD
ATOM      3  C   LIG    1        1.544  -2.451   0.084  0.00  0.00    -0.079 C 
ATOM      4  C   LIG    1        1.501  -3.979   0.025  0.00  0.00    -0.018 C 
ATOM      5  C   LIG    1        2.092  -4.552   1.316  0.00  0.00    +0.004 C 
ATOM      6  C   LIG    1        1.315  -3.995   2.513  0.00  0.00    +0.002 C 
ATOM      7  C   LIG    1        1.366  -2.466   2.480  0.00  0.00    -0.071 C 
ENDROOT
BRANCH   6   8
ATOM      8  C   LIG    1        1.937  -4.493   3.792  0.00  0.00    -0.045 A 
ATOM      9  C   LIG    1        3.255  -4.188   4.083  0.00  0.00    +0.004 A 
ATOM     10  C   LIG    1        3.834  -4.640   5.255  0.00  0.00    +0.002 A 
ATOM     11  C   LIG    1        3.099  -5.400   6.143  0.00  0.00    +0.019 A 
ATOM     12  C   LIG    1        1.769  -5.711   5.855  0.00  0.00    +0.052 A 
ATOM     13  C   LIG    1        1.190  -5.247   4.672  0.00  0.00    +0.022 A 
BRANCH  12  14
ATOM     14  C   LIG    1        1.001  -6.499   6.771  0.00  0.00    +0.099 C 
ATOM     15  N   LIG    1        0.391  -7.124   7.498  0.00  0.00    -0.191 NA
ENDBRANCH  12  14
ENDBRANCH   6   8
BRANCH   1  16
ATOM     16  C   LIG    1        0.742  -0.511   1.242  0.00  0.00    -0.079 C 
BRANCH  16  18
ATOM     17  C   LIG    1       -0.019   1.526   0.010  0.00  0.00    +0.002 C 
ATOM     18  C   LIG    1        0.002  -0.004   0.002  0.00  0.00    -0.022 C 
ENDBRANCH  16  18
ENDBRANCH   1  16
TORSDOF 4
