REMARK  Name = ZINC03826602
REMARK                            x       y       z     vdW  Elec       q    Type
REMARK                         _______ _______ _______ _____ _____    ______ ____
ROOT
ATOM      1  C   LIG    1        2.027  -2.295   2.340  0.00  0.00    +0.033 C 
ENDROOT
BRANCH   1   2
ATOM      2  N   LIG    1        3.050  -2.667   1.354  0.00  0.00    +0.389 N 
ATOM      3  H   LIG    1        3.101  -3.673   1.286  0.00  0.00    -0.088 HD
ATOM      4  H   LIG    1        3.946  -2.304   1.644  0.00  0.00    -0.088 HD
ATOM      5  H   LIG    1        2.807  -2.281   0.454  0.00  0.00    -0.088 HD
ENDBRANCH   1   2
BRANCH   1   6
ATOM      6  C   LIG    1        2.693  -2.035   3.692  0.00  0.00    +0.003 C 
ATOM      7  C   LIG    1        4.174  -2.394   3.831  0.00  0.00    +0.018 C 
ATOM      8  C   LIG    1        3.746  -0.926   3.760  0.00  0.00    +0.100 C 
BRANCH   8   9
ATOM      9  C   LIG    1        3.823  -0.117   5.029  0.00  0.00    +0.308 C 
ATOM     10  O   LIG    1        4.888   0.358   5.386  0.00  0.00    -0.251 OA
BRANCH   9  11
ATOM     11  O   LIG    1        2.821   0.062   5.700  0.00  0.00    -0.480 OA
ATOM     12  H   LIG    1        2.003  -0.303   5.426  0.00  0.00    +0.295 HD
ENDBRANCH   9  11
ENDBRANCH   8   9
ENDBRANCH   1   6
BRANCH   1  13
ATOM     13  C   LIG    1        1.319  -1.046   1.881  0.00  0.00    +0.293 C 
ATOM     14  O   LIG    1        0.269  -0.714   2.403  0.00  0.00    -0.253 OA
BRANCH  13  15
ATOM     15  O   LIG    1        1.796  -0.368   0.987  0.00  0.00    -0.482 OA
ATOM     16  H   LIG    1        2.603  -0.623   0.585  0.00  0.00    +0.295 HD
ENDBRANCH  13  15
ENDBRANCH   1  13
BRANCH   1  17
ATOM     17  C   LIG    1        1.015  -3.433   2.480  0.00  0.00    +0.011 C 
BRANCH  17  23
ATOM     18  C   LIG    1       -2.065  -0.860   0.682  0.00  0.00    +0.001 A 
ATOM     19  C   LIG    1       -1.452  -0.112  -0.307  0.00  0.00    +0.004 A 
ATOM     20  C   LIG    1       -0.248  -0.526  -0.839  0.00  0.00    +0.046 A 
ATOM     21  C   LIG    1        0.352  -1.694  -0.382  0.00  0.00    +0.132 A 
ATOM     22  C   LIG    1       -0.264  -2.441   0.609  0.00  0.00    +0.002 A 
ATOM     23  C   LIG    1        0.365  -3.708   1.122  0.00  0.00    +0.055 C 
ATOM     24  C   LIG    1        1.411  -4.206   0.163  0.00  0.00    +0.002 A 
ATOM     25  C   LIG    1        1.847  -5.517   0.256  0.00  0.00    +0.008 A 
ATOM     26  C   LIG    1        2.808  -5.994  -0.614  0.00  0.00    +0.001 A 
ATOM     27  C   LIG    1        3.339  -5.161  -1.583  0.00  0.00    +0.004 A 
ATOM     28  C   LIG    1        2.908  -3.854  -1.680  0.00  0.00    +0.046 A 
ATOM     29  C   LIG    1        1.941  -3.370  -0.806  0.00  0.00    +0.132 A 
ATOM     30  O   LIG    1        1.534  -2.083  -0.916  0.00  0.00    -0.455 OA
ATOM     31  C   LIG    1       -1.473  -2.022   1.137  0.00  0.00    +0.008 A 
ENDBRANCH  17  23
ENDBRANCH   1  17
TORSDOF 8
