REMARK  Name = ZINC03795331
REMARK                            x       y       z     vdW  Elec       q    Type
REMARK                         _______ _______ _______ _____ _____    ______ ____
ROOT
ATOM      1  N   LIG    1        0.236  -4.131   2.155  0.00  0.00    -0.227 N 
ATOM      2  C   LIG    1       -0.754  -5.187   1.886  0.00  0.00    +0.237 C 
ATOM      3  C   LIG    1       -1.108  -5.822   3.231  0.00  0.00    +0.103 C 
ATOM      4  C   LIG    1       -0.336  -5.054   4.296  0.00  0.00    +0.057 C 
ATOM      5  C   LIG    1       -1.120  -3.971   5.000  0.00  0.00    +0.028 C 
ATOM      6  C   LIG    1       -2.562  -4.296   5.312  0.00  0.00    +0.024 C 
ATOM      7  C   LIG    1       -3.310  -4.718   4.046  0.00  0.00    +0.076 C 
ATOM      8  C   LIG    1       -2.576  -5.876   3.479  0.00  0.00    +0.140 C 
ATOM      9  O   LIG    1       -3.199  -6.880   3.230  0.00  0.00    -0.297 OA
ATOM     10  C   LIG    1        0.813  -4.388   3.486  0.00  0.00    +0.231 C 
ENDROOT
BRANCH   5  11
ATOM     11  C   LIG    1       -0.419  -3.650   6.295  0.00  0.00    -0.036 A 
ATOM     12  C   LIG    1       -1.019  -2.810   7.215  0.00  0.00    +0.004 A 
ATOM     13  C   LIG    1       -0.376  -2.515   8.403  0.00  0.00    +0.000 A 
ATOM     14  C   LIG    1        0.866  -3.060   8.671  0.00  0.00    +0.000 A 
ATOM     15  C   LIG    1        1.465  -3.901   7.751  0.00  0.00    +0.000 A 
ATOM     16  C   LIG    1        0.820  -4.199   6.565  0.00  0.00    +0.004 A 
ENDBRANCH   5  11
BRANCH   5  17
ATOM     17  C   LIG    1       -1.092  -2.735   4.139  0.00  0.00    -0.036 A 
ATOM     18  C   LIG    1       -0.490  -1.581   4.606  0.00  0.00    +0.004 A 
ATOM     19  C   LIG    1       -0.465  -0.447   3.816  0.00  0.00    +0.000 A 
ATOM     20  C   LIG    1       -1.041  -0.466   2.560  0.00  0.00    +0.000 A 
ATOM     21  C   LIG    1       -1.642  -1.620   2.093  0.00  0.00    +0.000 A 
ATOM     22  C   LIG    1       -1.664  -2.756   2.881  0.00  0.00    +0.004 A 
ENDBRANCH   5  17
BRANCH   1  23
ATOM     23  C   LIG    1        0.565  -3.099   1.316  0.00  0.00    +0.243 C 
ATOM     24  N   LIG    1        1.173  -2.057   1.781  0.00  0.00    -0.292 N 
ATOM     25  H   LIG    1        1.342  -1.296   1.204  0.00  0.00    +0.301 HD
ATOM     26  H   LIG    1        1.460  -2.036   2.708  0.00  0.00    +0.301 HD
BRANCH  23  27
ATOM     27  C   LIG    1        0.219  -3.179  -0.148  0.00  0.00    +0.162 C 
BRANCH  27  33
ATOM     28  C   LIG    1       -0.922  -1.004  -0.652  0.00  0.00    +0.124 A 
ATOM     29  C   LIG    1       -2.067  -0.260  -0.903  0.00  0.00    +0.046 A 
ATOM     30  C   LIG    1       -3.302  -0.877  -0.913  0.00  0.00    +0.004 A 
ATOM     31  C   LIG    1       -3.399  -2.236  -0.672  0.00  0.00    +0.001 A 
ATOM     32  C   LIG    1       -2.261  -2.979  -0.421  0.00  0.00    +0.008 A 
ATOM     33  C   LIG    1       -1.022  -2.367  -0.416  0.00  0.00    +0.006 A 
BRANCH  28  35
ATOM     34  C   LIG    1        0.321   1.008  -0.893  0.00  0.00    +0.277 C 
ATOM     35  O   LIG    1        0.294  -0.398  -0.642  0.00  0.00    -0.495 OA
ENDBRANCH  28  35
ENDBRANCH  27  33
ENDBRANCH  23  27
ENDBRANCH   1  23
TORSDOF 6
