REMARK  Name = ZINC03800021
REMARK                            x       y       z     vdW  Elec       q    Type
REMARK                         _______ _______ _______ _____ _____    ______ ____
ROOT
ATOM      1  C   LIG    1       -1.156  -2.103   0.002  0.00  0.00    -0.007 A 
ATOM      2  C   LIG    1        0.098  -2.679  -0.007  0.00  0.00    +0.056 A 
ATOM      3  C   LIG    1        0.232  -4.060  -0.016  0.00  0.00    +0.162 A 
ATOM      4  C   LIG    1       -0.897  -4.872  -0.015  0.00  0.00    +0.201 A 
ATOM      5  C   LIG    1       -2.161  -4.300  -0.006  0.00  0.00    +0.170 A 
ATOM      6  C   LIG    1       -2.294  -2.909   0.008  0.00  0.00    +0.037 A 
ENDROOT
BRANCH   6   7
ATOM      7  C   LIG    1       -3.641  -2.290   0.025  0.00  0.00    +0.037 A 
ATOM      8  C   LIG    1       -4.262  -2.000   1.238  0.00  0.00    -0.007 A 
ATOM      9  C   LIG    1       -5.517  -1.425   1.252  0.00  0.00    +0.056 A 
ATOM     10  C   LIG    1       -6.165  -1.133   0.061  0.00  0.00    +0.162 A 
ATOM     11  C   LIG    1       -5.553  -1.419  -1.155  0.00  0.00    +0.201 A 
ATOM     12  C   LIG    1       -4.290  -1.992  -1.177  0.00  0.00    +0.170 A 
BRANCH  10  13
ATOM     13  O   LIG    1       -7.401  -0.567   0.082  0.00  0.00    -0.503 OA
ATOM     14  H   LIG    1       -7.391   0.400   0.085  0.00  0.00    +0.292 HD
ENDBRANCH  10  13
BRANCH  11  15
ATOM     15  O   LIG    1       -6.191  -1.131  -2.322  0.00  0.00    -0.501 OA
ATOM     16  H   LIG    1       -6.008  -0.245  -2.663  0.00  0.00    +0.292 HD
ENDBRANCH  11  15
BRANCH  12  17
ATOM     17  O   LIG    1       -3.686  -2.267  -2.364  0.00  0.00    -0.503 OA
ATOM     18  H   LIG    1       -3.880  -3.150  -2.708  0.00  0.00    +0.292 HD
ENDBRANCH  12  17
BRANCH   8  19
ATOM     19  C   LIG    1       -3.563  -2.315   2.535  0.00  0.00    +0.195 C 
BRANCH  19  20
ATOM     20  O   LIG    1       -4.396  -1.929   3.631  0.00  0.00    -0.378 OA
ATOM     21  C   LIG    1       -3.824  -2.186   4.915  0.00  0.00    +0.194 C 
ENDBRANCH  19  20
ENDBRANCH   8  19
ENDBRANCH   6   7
BRANCH   3  22
ATOM     22  O   LIG    1        1.471  -4.622  -0.026  0.00  0.00    -0.503 OA
ATOM     23  H   LIG    1        1.834  -4.789   0.855  0.00  0.00    +0.292 HD
ENDBRANCH   3  22
BRANCH   4  24
ATOM     24  O   LIG    1       -0.762  -6.226  -0.025  0.00  0.00    -0.501 OA
ATOM     25  H   LIG    1       -0.719  -6.623   0.856  0.00  0.00    +0.292 HD
ENDBRANCH   4  24
BRANCH   5  26
ATOM     26  O   LIG    1       -3.268  -5.090  -0.005  0.00  0.00    -0.503 OA
ATOM     27  H   LIG    1       -3.583  -5.325   0.878  0.00  0.00    +0.292 HD
ENDBRANCH   5  26
BRANCH   1  28
ATOM     28  C   LIG    1       -1.295  -0.603   0.011  0.00  0.00    +0.195 C 
BRANCH  28  30
ATOM     29  C   LIG    1       -0.017   1.425   0.010  0.00  0.00    +0.194 C 
ATOM     30  O   LIG    1        0.002  -0.004   0.002  0.00  0.00    -0.378 OA
ENDBRANCH  28  30
ENDBRANCH   1  28
TORSDOF 11
