REMARK  Name = ZINC03800039
REMARK                            x       y       z     vdW  Elec       q    Type
REMARK                         _______ _______ _______ _____ _____    ______ ____
ROOT
ATOM      1  C   LIG    1        3.028  -0.075  -4.855  0.00  0.00    +0.061 C 
ATOM      2  C   LIG    1        4.475  -0.235  -4.326  0.00  0.00    +0.012 C 
ATOM      3  C   LIG    1        4.397  -0.078  -2.783  0.00  0.00    +0.005 C 
ATOM      4  C   LIG    1        2.946  -0.451  -2.473  0.00  0.00    -0.001 C 
ATOM      5  C   LIG    1        2.384   0.094  -1.173  0.00  0.00    -0.004 C 
ATOM      6  C   LIG    1        3.137  -0.497   0.021  0.00  0.00    +0.004 C 
ATOM      7  C   LIG    1        2.523   0.028   1.320  0.00  0.00    +0.004 C 
ATOM      8  C   LIG    1        1.051  -0.381   1.393  0.00  0.00    -0.002 C 
ATOM      9  C   LIG    1        0.298   0.205   0.197  0.00  0.00    -0.026 C 
ATOM     10  C   LIG    1        0.411   1.731   0.220  0.00  0.00    +0.012 C 
ATOM     11  C   LIG    1       -1.176  -0.200   0.274  0.00  0.00    +0.010 C 
ATOM     12  C   LIG    1       -1.284  -1.728   0.243  0.00  0.00    +0.032 C 
ATOM     13  C   LIG    1       -0.530  -2.316   1.438  0.00  0.00    +0.115 C 
ATOM     14  C   LIG    1        0.942  -1.907   1.364  0.00  0.00    +0.035 C 
ATOM     15  C   LIG    1        0.909  -0.333  -1.098  0.00  0.00    -0.001 C 
ATOM     16  C   LIG    1        0.117   0.174  -2.299  0.00  0.00    +0.005 C 
ATOM     17  C   LIG    1        0.762  -0.269  -3.623  0.00  0.00    +0.008 C 
ATOM     18  C   LIG    1        2.185   0.254  -3.628  0.00  0.00    -0.019 C 
ATOM     19  C   LIG    1        2.180   1.766  -3.393  0.00  0.00    +0.012 C 
ENDROOT
BRANCH   1  21
ATOM     20  C   LIG    1        1.845   1.093  -6.868  0.00  0.00    +0.086 C 
ATOM     21  C   LIG    1        2.959   1.052  -5.854  0.00  0.00    +0.134 C 
ATOM     22  O   LIG    1        3.796   1.923  -5.840  0.00  0.00    -0.297 OA
ENDBRANCH   1  21
BRANCH  13  23
ATOM     23  O   LIG    1       -0.631  -3.741   1.409  0.00  0.00    -0.392 OA
ATOM     24  H   LIG    1       -1.538  -4.073   1.453  0.00  0.00    +0.210 HD
ENDBRANCH  13  23
TORSDOF 2
