REMARK  Name = ZINC03779042
REMARK                            x       y       z     vdW  Elec       q    Type
REMARK                         _______ _______ _______ _____ _____    ______ ____
ROOT
ATOM      1  C   LIG    1       -2.369  -2.831  -0.002  0.00  0.00    +0.226 C 
ATOM      2  C   LIG    1       -2.499  -3.656  -1.301  0.00  0.00    +0.087 C 
ATOM      3  C   LIG    1       -3.160  -4.976  -0.844  0.00  0.00    +0.177 C 
ATOM      4  C   LIG    1       -3.351  -4.791   0.678  0.00  0.00    +0.173 C 
ATOM      5  O   LIG    1       -2.362  -3.810   1.060  0.00  0.00    -0.349 OA
ENDROOT
BRANCH   1   9
ATOM      6  C   LIG    1       -0.018   1.503   0.010  0.00  0.00    +0.051 C 
ATOM      7  C   LIG    1        0.002  -0.004   0.002  0.00  0.00    +0.030 A 
ATOM      8  C   LIG    1       -1.153  -0.704   0.004  0.00  0.00    +0.101 A 
ATOM      9  N   LIG    1       -1.116  -2.072  -0.004  0.00  0.00    -0.274 N 
ATOM     10  C   LIG    1        0.060  -2.726  -0.013  0.00  0.00    +0.331 A 
ATOM     11  N   LIG    1        1.226  -2.053  -0.015  0.00  0.00    -0.275 N 
ATOM     12  H   LIG    1        2.064  -2.540  -0.022  0.00  0.00    +0.173 HD
ATOM     13  O   LIG    1        0.069  -3.942  -0.019  0.00  0.00    -0.246 OA
ATOM     14  C   LIG    1        1.232  -0.705  -0.013  0.00  0.00    +0.257 A 
ATOM     15  O   LIG    1        2.287  -0.095  -0.021  0.00  0.00    -0.267 OA
ENDBRANCH   1   9
BRANCH   3  16
ATOM     16  N   LIG    1       -4.454  -5.159  -1.507  0.00  0.00    -0.106 NA
ATOM     17  N   LIG    1       -4.496  -5.327  -2.618  0.00  0.00    -0.197 NA
ATOM     18  N   LIG    1       -4.538  -5.492  -3.705  0.00  0.00    -0.128 NA
ATOM     19  H   LIG    1       -4.602  -6.407  -4.062  0.00  0.00    +0.228 HD
ENDBRANCH   3  16
BRANCH   4  20
ATOM     20  C   LIG    1       -3.106  -6.112   1.410  0.00  0.00    +0.189 C 
BRANCH  20  21
ATOM     21  O   LIG    1       -3.400  -5.950   2.799  0.00  0.00    -0.392 OA
ATOM     22  H   LIG    1       -3.266  -6.750   3.325  0.00  0.00    +0.210 HD
ENDBRANCH  20  21
ENDBRANCH   4  20
TORSDOF 4
