REMARK  Name = ZINC03802417
REMARK                            x       y       z     vdW  Elec       q    Type
REMARK                         _______ _______ _______ _____ _____    ______ ____
ROOT
ATOM      1  C   LIG    1        5.024   4.666   1.335  0.00  0.00    -0.066 C 
ENDROOT
BRANCH   1   5
ATOM      2  C   LIG    1        7.106   1.210   0.137  0.00  0.00    +0.006 C 
ATOM      3  C   LIG    1        6.327   1.135   1.451  0.00  0.00    -0.021 C 
ATOM      4  C   LIG    1        6.029   2.551   1.949  0.00  0.00    -0.075 C 
ATOM      5  N   LIG    1        5.228   3.260   0.928  0.00  0.00    +0.380 N 
ATOM      6  H   LIG    1        5.735   3.241   0.035  0.00  0.00    -0.082 HD
ATOM      7  C   LIG    1        3.922   2.591   0.753  0.00  0.00    -0.078 C 
ATOM      8  C   LIG    1        4.157   1.176   0.219  0.00  0.00    -0.007 C 
ATOM      9  C   LIG    1        5.008   0.392   1.222  0.00  0.00    -0.008 C 
ATOM     10  C   LIG    1        4.253   0.268   2.547  0.00  0.00    +0.016 C 
BRANCH   9  11
ATOM     11  C   LIG    1        5.293  -0.983   0.675  0.00  0.00    -0.038 A 
ATOM     12  C   LIG    1        4.870  -1.321  -0.598  0.00  0.00    +0.004 A 
ATOM     13  C   LIG    1        5.135  -2.580  -1.105  0.00  0.00    +0.004 A 
ATOM     14  C   LIG    1        5.813  -3.507  -0.337  0.00  0.00    +0.045 A 
ATOM     15  C   LIG    1        6.234  -3.172   0.942  0.00  0.00    +0.117 A 
ATOM     16  C   LIG    1        5.972  -1.906   1.446  0.00  0.00    +0.049 A 
BRANCH  15  17
ATOM     17  O   LIG    1        6.902  -4.081   1.699  0.00  0.00    -0.507 OA
ATOM     18  H   LIG    1        6.328  -4.634   2.247  0.00  0.00    +0.292 HD
ENDBRANCH  15  17
ENDBRANCH   9  11
ENDBRANCH   1   5
BRANCH   1  19
ATOM     19  C   LIG    1        4.586   5.471   0.109  0.00  0.00    +0.063 C 
BRANCH  19  20
ATOM     20  C   LIG    1        4.303   6.894   0.518  0.00  0.00    +0.215 C 
ATOM     21  N   LIG    1        3.417   7.631  -0.180  0.00  0.00    -0.305 N 
ATOM     22  H   LIG    1        2.910   7.227  -0.902  0.00  0.00    +0.149 HD
ATOM     23  O   LIG    1        4.873   7.375   1.474  0.00  0.00    -0.276 OA
BRANCH  21  24
ATOM     24  C   LIG    1        3.218   9.044   0.152  0.00  0.00    +0.224 C 
BRANCH  24  25
ATOM     25  C   LIG    1        2.096   9.604  -0.685  0.00  0.00    +0.322 C 
ATOM     26  O   LIG    1        1.584   8.923  -1.542  0.00  0.00    -0.249 OA
BRANCH  25  27
ATOM     27  O   LIG    1        1.667  10.859  -0.479  0.00  0.00    -0.480 OA
ATOM     28  H   LIG    1        2.064  11.387   0.185  0.00  0.00    +0.295 HD
ENDBRANCH  25  27
ENDBRANCH  24  25
ENDBRANCH  21  24
ENDBRANCH  19  20
BRANCH  19  29
ATOM     29  C   LIG    1        5.701   5.453  -0.938  0.00  0.00    +0.046 C 
BRANCH  29  30
ATOM     30  C   LIG    1        5.232   6.160  -2.184  0.00  0.00    -0.047 A 
ATOM     31  C   LIG    1        4.493   5.474  -3.130  0.00  0.00    +0.003 A 
ATOM     32  C   LIG    1        4.059   6.123  -4.270  0.00  0.00    +0.000 A 
ATOM     33  C   LIG    1        4.372   7.455  -4.470  0.00  0.00    +0.000 A 
ATOM     34  C   LIG    1        5.115   8.139  -3.526  0.00  0.00    +0.000 A 
ATOM     35  C   LIG    1        5.545   7.491  -2.383  0.00  0.00    +0.003 A 
ENDBRANCH  29  30
ENDBRANCH  19  29
ENDBRANCH   1  19
TORSDOF 10
