REMARK  Name = ZINC03869855
REMARK                            x       y       z     vdW  Elec       q    Type
REMARK                         _______ _______ _______ _____ _____    ______ ____
ROOT
ATOM      1  C   LIG    1        2.672  -4.243  -0.046  0.00  0.00    +0.092 C 
ENDROOT
BRANCH   1   8
ATOM      2  C   LIG    1       -0.017   1.373   0.010  0.00  0.00    +0.001 A 
ATOM      3  C   LIG    1        1.171   2.090   0.002  0.00  0.00    +0.004 A 
ATOM      4  C   LIG    1        2.386   1.437  -0.013  0.00  0.00    +0.047 A 
ATOM      5  C   LIG    1        2.426   0.048  -0.021  0.00  0.00    +0.143 A 
ATOM      6  C   LIG    1        1.224  -0.676  -0.013  0.00  0.00    +0.059 A 
ATOM      7  C   LIG    1        1.286  -2.149  -0.022  0.00  0.00    +0.138 A 
ATOM      8  C   LIG    1        2.543  -2.742  -0.037  0.00  0.00    +0.084 A 
ATOM      9  C   LIG    1        3.672  -1.948  -0.044  0.00  0.00    +0.344 A 
ATOM     10  O   LIG    1        4.826  -2.511  -0.059  0.00  0.00    -0.245 OA
ATOM     11  O   LIG    1        3.606  -0.609  -0.037  0.00  0.00    -0.422 OA
ATOM     12  C   LIG    1        0.002  -0.004   0.002  0.00  0.00    +0.015 A 
BRANCH   7  13
ATOM     13  O   LIG    1        0.215  -2.861  -0.014  0.00  0.00    -0.506 OA
ATOM     14  H   LIG    1       -0.624  -2.444  -0.004  0.00  0.00    +0.292 HD
ENDBRANCH   7  13
ENDBRANCH   1   8
BRANCH   1  15
ATOM     15  C   LIG    1        2.824  -4.726  -1.466  0.00  0.00    +0.084 A 
ATOM     16  C   LIG    1        1.700  -4.947  -2.252  0.00  0.00    +0.200 A 
ATOM     17  C   LIG    1        1.913  -5.418  -3.633  0.00  0.00    +0.064 A 
ATOM     18  C   LIG    1        0.838  -5.663  -4.487  0.00  0.00    +0.015 A 
ATOM     19  C   LIG    1        1.075  -6.103  -5.771  0.00  0.00    +0.001 A 
ATOM     20  C   LIG    1        2.374  -6.301  -6.213  0.00  0.00    +0.004 A 
ATOM     21  C   LIG    1        3.446  -6.063  -5.379  0.00  0.00    +0.047 A 
ATOM     22  C   LIG    1        3.228  -5.619  -4.081  0.00  0.00    +0.143 A 
ATOM     23  O   LIG    1        4.264  -5.379  -3.249  0.00  0.00    -0.425 OA
ATOM     24  O   LIG    1        0.516  -4.747  -1.792  0.00  0.00    -0.287 OA
ATOM     25  C   LIG    1        4.081  -4.945  -1.993  0.00  0.00    +0.292 A 
BRANCH  25  26
ATOM     26  O   LIG    1        5.110  -4.732  -1.255  0.00  0.00    -0.480 OA
ATOM     27  H   LIG    1        5.000  -4.429  -0.375  0.00  0.00    +0.295 HD
ENDBRANCH  25  26
ENDBRANCH   1  15
TORSDOF 4
