REMARK  Name = ZINC03807687
REMARK                            x       y       z     vdW  Elec       q    Type
REMARK                         _______ _______ _______ _____ _____    ______ ____
ROOT
ATOM      1  N   LIG    1       -3.442  -0.718  -1.513  0.00  0.00    -0.295 N 
ATOM      2  H   LIG    1       -4.268  -0.562  -1.029  0.00  0.00    +0.151 HD
ATOM      3  C   LIG    1       -2.362   0.050  -1.267  0.00  0.00    +0.303 C 
ATOM      4  N   LIG    1       -2.430   1.034  -0.348  0.00  0.00    -0.274 N 
ATOM      5  C   LIG    1       -3.613   1.378   0.453  0.00  0.00    +0.110 C 
ATOM      6  C   LIG    1       -3.215   2.545   1.382  0.00  0.00    +0.021 C 
ATOM      7  C   LIG    1       -1.670   2.420   1.453  0.00  0.00    +0.033 C 
ATOM      8  C   LIG    1       -1.330   1.944   0.019  0.00  0.00    +0.164 C 
ATOM      9  O   LIG    1       -1.326  -0.145  -1.873  0.00  0.00    -0.253 OA
ENDROOT
BRANCH   8  10
ATOM     10  C   LIG    1       -0.014   1.209   0.009  0.00  0.00    +0.237 C 
ATOM     11  N   LIG    1        1.143   1.898   0.001  0.00  0.00    -0.290 N 
ATOM     12  C   LIG    1        1.269   3.367   0.002  0.00  0.00    +0.108 C 
ATOM     13  C   LIG    1        2.670   3.643   0.607  0.00  0.00    +0.021 C 
ATOM     14  C   LIG    1        3.500   2.478   0.008  0.00  0.00    +0.032 C 
ATOM     15  C   LIG    1        2.491   1.310  -0.015  0.00  0.00    +0.145 C 
ATOM     16  O   LIG    1        0.002  -0.004   0.002  0.00  0.00    -0.274 OA
BRANCH  15  17
ATOM     17  C   LIG    1        2.685   0.441   1.201  0.00  0.00    +0.179 C 
ATOM     18  O   LIG    1        1.920   0.524   2.131  0.00  0.00    -0.293 OA
BRANCH  17  19
ATOM     19  C   LIG    1        3.834  -0.533   1.255  0.00  0.00    +0.232 C 
BRANCH  19  20
ATOM     20  O   LIG    1        3.805  -1.236   2.498  0.00  0.00    -0.387 OA
ATOM     21  H   LIG    1        4.517  -1.881   2.603  0.00  0.00    +0.210 HD
ENDBRANCH  19  20
ENDBRANCH  17  19
ENDBRANCH  15  17
ENDBRANCH   8  10
BRANCH   1  22
ATOM     22  C   LIG    1       -3.368  -1.787  -2.511  0.00  0.00    +0.141 C 
BRANCH  22  26
ATOM     23  C   LIG    1       -7.139  -3.779  -2.747  0.00  0.00    +0.000 A 
ATOM     24  C   LIG    1       -6.881  -2.689  -3.558  0.00  0.00    +0.000 A 
ATOM     25  C   LIG    1       -5.661  -2.044  -3.481  0.00  0.00    +0.005 A 
ATOM     26  C   LIG    1       -4.698  -2.490  -2.595  0.00  0.00    -0.030 A 
ATOM     27  C   LIG    1       -4.954  -3.583  -1.788  0.00  0.00    +0.005 A 
ATOM     28  C   LIG    1       -6.176  -4.224  -1.861  0.00  0.00    +0.000 A 
ENDBRANCH  22  26
ENDBRANCH   1  22
TORSDOF 6
