REMARK  Name = ZINC03814316
REMARK                            x       y       z     vdW  Elec       q    Type
REMARK                         _______ _______ _______ _____ _____    ______ ____
ROOT
ATOM      1  C   LIG    1        0.596  -3.135  -0.019  0.00  0.00    +0.253 C 
ATOM      2  C   LIG    1        0.177  -3.493  -1.463  0.00  0.00    +0.195 C 
ATOM      3  C   LIG    1        0.106  -5.036  -1.461  0.00  0.00    +0.174 C 
ATOM      4  C   LIG    1        0.489  -5.428  -0.017  0.00  0.00    +0.135 C 
ATOM      5  O   LIG    1        1.266  -4.314   0.476  0.00  0.00    -0.350 OA
ENDROOT
BRANCH   1  11
ATOM      6  C   LIG    1       -0.016   1.312   0.009  0.00  0.00    +0.225 A 
ATOM      7  N   LIG    1        1.089   2.036   0.003  0.00  0.00    -0.219 NA
ATOM      8  C   LIG    1        2.288   1.462  -0.012  0.00  0.00    +0.147 A 
ATOM      9  C   LIG    1        2.358   0.059  -0.020  0.00  0.00    +0.147 A 
ATOM     10  C   LIG    1        1.155  -0.666  -0.013  0.00  0.00    +0.167 A 
ATOM     11  N   LIG    1        1.511  -1.991  -0.023  0.00  0.00    -0.286 N 
ATOM     12  C   LIG    1        2.873  -2.048  -0.036  0.00  0.00    +0.203 A 
ATOM     13  N   LIG    1        3.368  -0.844  -0.034  0.00  0.00    -0.231 NA
ATOM     14  N   LIG    1        0.002  -0.004   0.002  0.00  0.00    -0.216 NA
BRANCH   8  15
ATOM     15  N   LIG    1        3.439   2.229  -0.019  0.00  0.00    -0.341 N 
ATOM     16  H   LIG    1        4.309   1.799  -0.030  0.00  0.00    +0.144 HD
ATOM     17  H   LIG    1        3.377   3.197  -0.014  0.00  0.00    +0.144 HD
ENDBRANCH   8  15
ENDBRANCH   1  11
BRANCH   2  18
ATOM     18  O   LIG    1       -1.100  -2.930  -1.768  0.00  0.00    -0.385 OA
ATOM     19  H   LIG    1       -1.411  -3.124  -2.663  0.00  0.00    +0.210 HD
ENDBRANCH   2  18
BRANCH   3  20
ATOM     20  O   LIG    1       -1.219  -5.476  -1.767  0.00  0.00    -0.387 OA
ATOM     21  H   LIG    1       -1.531  -5.205  -2.641  0.00  0.00    +0.210 HD
ENDBRANCH   3  20
BRANCH   4  22
ATOM     22  C   LIG    1        1.327  -6.708  -0.016  0.00  0.00    -0.052 C 
BRANCH  22  23
ATOM     23  N   LIG    1        1.579  -7.128   1.369  0.00  0.00    +0.380 N 
ATOM     24  H   LIG    1        2.132  -7.972   1.369  0.00  0.00    -0.090 HD
ATOM     25  H   LIG    1        0.700  -7.302   1.833  0.00  0.00    -0.090 HD
ATOM     26  H   LIG    1        2.078  -6.399   1.856  0.00  0.00    -0.090 HD
ENDBRANCH  22  23
ENDBRANCH   4  22
TORSDOF 6
