REMARK  Name = ZINC03872013
REMARK                            x       y       z     vdW  Elec       q    Type
REMARK                         _______ _______ _______ _____ _____    ______ ____
ROOT
ATOM      1  C   LIG    1        3.574   0.619  -0.029  0.00  0.00    +0.218 A 
ATOM      2  N   LIG    1        4.323  -0.490  -0.048  0.00  0.00    -0.203 NA
ATOM      3  C   LIG    1        5.596  -0.164  -0.057  0.00  0.00    +0.169 A 
ATOM      4  C   LIG    1        6.850  -0.926  -0.077  0.00  0.00    +0.046 A 
ATOM      5  C   LIG    1        6.869  -2.319  -0.092  0.00  0.00    +0.033 A 
ATOM      6  C   LIG    1        8.079  -2.981  -0.111  0.00  0.00    +0.042 A 
ATOM      7 CL   LIG    1        8.111  -4.716  -0.130  0.00  0.00    -0.084 Cl
ATOM      8  C   LIG    1        9.272  -2.269  -0.115  0.00  0.00    +0.022 A 
ATOM      9  C   LIG    1        9.275  -0.903  -0.101  0.00  0.00    +0.030 A 
ATOM     10  C   LIG    1        8.065  -0.204  -0.082  0.00  0.00    +0.078 A 
ATOM     11  N   LIG    1        8.031   1.151  -0.068  0.00  0.00    -0.215 NA
ATOM     12  C   LIG    1        6.905   1.815  -0.050  0.00  0.00    +0.216 A 
ATOM     13  N   LIG    1        5.683   1.203  -0.044  0.00  0.00    -0.181 N 
ATOM     14  N   LIG    1        4.364   1.676  -0.032  0.00  0.00    -0.139 NA
ENDROOT
BRANCH   1  17
ATOM     15  C   LIG    1       -0.016   1.343   0.009  0.00  0.00    +0.042 A 
ATOM     16  C   LIG    1        1.325   1.774  -0.001  0.00  0.00    +0.053 A 
ATOM     17  C   LIG    1        2.096   0.655  -0.014  0.00  0.00    +0.173 A 
ATOM     18  O   LIG    1        1.280  -0.417  -0.012  0.00  0.00    -0.460 OA
ATOM     19  C   LIG    1        0.002  -0.004   0.002  0.00  0.00    +0.196 A 
ENDBRANCH   1  17
BRANCH  12  20
ATOM     20  N   LIG    1        6.952   3.190  -0.036  0.00  0.00    -0.327 N 
ATOM     21  H   LIG    1        6.130   3.703  -0.022  0.00  0.00    +0.145 HD
ATOM     22  H   LIG    1        7.809   3.646  -0.040  0.00  0.00    +0.145 HD
ENDBRANCH  12  20
TORSDOF 2
