REMARK  Name = ZINC03870237
REMARK                            x       y       z     vdW  Elec       q    Type
REMARK                         _______ _______ _______ _____ _____    ______ ____
ROOT
ATOM      1  C   LIG    1       -0.018   1.497   0.010  0.00  0.00    +0.076 C 
ATOM      2  C   LIG    1        1.411   2.043  -0.000  0.00  0.00    +0.150 C 
ATOM      3  C   LIG    1        2.190   1.346  -1.122  0.00  0.00    +0.176 C 
ATOM      4  C   LIG    1        2.372  -0.126  -0.746  0.00  0.00    +0.185 C 
ATOM      5  C   LIG    1        1.056  -0.721  -0.336  0.00  0.00    +0.018 C 
ATOM      6  C   LIG    1        0.002  -0.004   0.002  0.00  0.00    +0.038 C 
ENDROOT
BRANCH   2   7
ATOM      7  O   LIG    1        2.035   1.780   1.258  0.00  0.00    -0.389 OA
ATOM      8  H   LIG    1        1.583   2.182   2.013  0.00  0.00    +0.210 HD
ENDBRANCH   2   7
BRANCH   3   9
ATOM      9  O   LIG    1        1.461   1.446  -2.347  0.00  0.00    -0.386 OA
ATOM     10  H   LIG    1        1.898   1.025  -3.100  0.00  0.00    +0.210 HD
ENDBRANCH   3   9
BRANCH   6  11
ATOM     11  C   LIG    1       -1.221  -0.714   0.392  0.00  0.00    +0.333 C 
ATOM     12  O   LIG    1       -1.242  -1.938   0.397  0.00  0.00    -0.245 OA
BRANCH  11  13
ATOM     13  O   LIG    1       -2.219  -0.083   0.712  0.00  0.00    -0.477 OA
ATOM     14  H   LIG    1       -2.203   0.854   0.707  0.00  0.00    +0.295 HD
ENDBRANCH  11  13
ENDBRANCH   6  11
BRANCH   4  15
ATOM     15  O   LIG    1        2.882  -0.844  -1.871  0.00  0.00    -0.277 OA
BRANCH  15  16
ATOM     16  P   LIG    1        4.288  -1.628  -1.847  0.00  0.00    +0.473 P 
ATOM     17  O   LIG    1        5.428  -0.644  -1.416  0.00  0.00    -0.228 OA
BRANCH  16  18
ATOM     18  O   LIG    1        4.596  -2.192  -3.276  0.00  0.00    -0.303 OA
ATOM     19  H   LIG    1        4.647  -1.458  -3.908  0.00  0.00    +0.222 HD
ENDBRANCH  16  18
BRANCH  16  20
ATOM     20  O   LIG    1        4.207  -2.813  -0.825  0.00  0.00    -0.303 OA
ATOM     21  H   LIG    1        4.016  -2.464   0.060  0.00  0.00    +0.222 HD
ENDBRANCH  16  20
ENDBRANCH  15  16
ENDBRANCH   4  15
TORSDOF 8
