REMARK  Name = ZINC03814434
REMARK                            x       y       z     vdW  Elec       q    Type
REMARK                         _______ _______ _______ _____ _____    ______ ____
ROOT
ATOM      1  C   LIG    1       -0.130   1.595  -0.297  0.00  0.00    +0.069 C 
ATOM      2  C   LIG    1       -0.086   0.070  -0.190  0.00  0.00    +0.171 C 
ATOM      3  C   LIG    1        0.569  -0.450  -1.464  0.00  0.00    +0.157 C 
ATOM      4  C   LIG    1        0.917  -1.933  -1.289  0.00  0.00    -0.034 C 
ATOM      5  C   LIG    1        1.879  -2.060  -0.102  0.00  0.00    +0.041 C 
ATOM      6  C   LIG    1        1.206  -1.520   1.154  0.00  0.00    +0.221 C 
ATOM      7  N   LIG    1        0.219  -2.475   1.660  0.00  0.00    -0.312 N 
ATOM      8  C   LIG    1        0.470  -3.551   2.474  0.00  0.00    +0.052 A 
ATOM      9  C   LIG    1        1.665  -4.015   3.024  0.00  0.00    +0.026 A 
ATOM     10  C   LIG    1        1.595  -5.146   3.820  0.00  0.00    +0.002 A 
ATOM     11  C   LIG    1        0.401  -5.800   4.070  0.00  0.00    +0.001 A 
ATOM     12  C   LIG    1       -0.798  -5.360   3.536  0.00  0.00    +0.010 A 
ATOM     13  C   LIG    1       -0.749  -4.220   2.731  0.00  0.00    +0.008 A 
ATOM     14  C   LIG    1       -1.789  -3.483   2.020  0.00  0.00    +0.022 A 
ATOM     15  C   LIG    1       -3.187  -3.642   1.875  0.00  0.00    +0.052 A 
ATOM     16  C   LIG    1       -4.122  -4.648   2.403  0.00  0.00    +0.245 C 
ATOM     17  N   LIG    1       -5.374  -4.385   1.993  0.00  0.00    -0.307 N 
ATOM     18  H   LIG    1       -6.163  -4.907   2.210  0.00  0.00    +0.149 HD
ATOM     19  C   LIG    1       -5.349  -3.177   1.160  0.00  0.00    +0.141 C 
ATOM     20  O   LIG    1       -3.806  -5.585   3.111  0.00  0.00    -0.270 OA
ATOM     21  C   LIG    1       -3.908  -2.731   1.110  0.00  0.00    -0.008 A 
ATOM     22  C   LIG    1       -3.269  -1.666   0.484  0.00  0.00    +0.015 A 
ATOM     23  C   LIG    1       -3.715  -0.560  -0.392  0.00  0.00    +0.008 A 
ATOM     24  C   LIG    1       -4.974  -0.196  -0.866  0.00  0.00    +0.010 A 
ATOM     25  C   LIG    1       -5.039   0.937  -1.662  0.00  0.00    +0.001 A 
ATOM     26  C   LIG    1       -3.911   1.675  -1.973  0.00  0.00    +0.002 A 
ATOM     27  C   LIG    1       -2.652   1.328  -1.512  0.00  0.00    +0.026 A 
ATOM     28  C   LIG    1       -2.561   0.191  -0.709  0.00  0.00    +0.053 A 
ATOM     29  C   LIG    1       -1.881  -1.510   0.618  0.00  0.00    +0.077 A 
ATOM     30  C   LIG    1       -1.144  -2.420   1.384  0.00  0.00    +0.077 A 
ATOM     31  N   LIG    1       -1.472  -0.395  -0.110  0.00  0.00    -0.307 N 
ATOM     32  O   LIG    1        0.655  -0.244   0.967  0.00  0.00    -0.328 OA
ENDROOT
BRANCH   4  33
ATOM     33  N   LIG    1       -0.307  -2.701  -1.022  0.00  0.00    +0.381 N 
ATOM     34  H   LIG    1       -0.979  -2.529  -1.755  0.00  0.00    -0.086 HD
ATOM     35  H   LIG    1       -0.696  -2.416  -0.135  0.00  0.00    -0.086 HD
ATOM     36  C   LIG    1        0.015  -4.134  -0.977  0.00  0.00    -0.100 C 
ENDBRANCH   4  33
BRANCH   3  37
ATOM     37  O   LIG    1       -0.334  -0.298  -2.561  0.00  0.00    -0.377 OA
ATOM     38  C   LIG    1        0.310  -0.093  -3.820  0.00  0.00    +0.194 C 
ENDBRANCH   3  37
TORSDOF 2
