REMARK  Name = ZINC03830179
REMARK                            x       y       z     vdW  Elec       q    Type
REMARK                         _______ _______ _______ _____ _____    ______ ____
ROOT
ATOM      1  C2    A A  1       -0.016   1.312   0.009  0.00  0.00    +0.225 A 
ATOM      2  N1    A A  1        1.089   2.036   0.003  0.00  0.00    -0.219 NA
ATOM      3  C6    A A  1        2.288   1.462  -0.012  0.00  0.00    +0.147 A 
ATOM      4  C5    A A  1        2.358   0.059  -0.020  0.00  0.00    +0.147 A 
ATOM      5  C4    A A  1        1.155  -0.666  -0.013  0.00  0.00    +0.167 A 
ATOM      6  N9    A A  1        1.511  -1.991  -0.023  0.00  0.00    -0.286 N 
ATOM      7  C8    A A  1        2.873  -2.048  -0.036  0.00  0.00    +0.203 A 
ATOM      8  N7    A A  1        3.368  -0.844  -0.034  0.00  0.00    -0.231 NA
ATOM      9  N3    A A  1        0.002  -0.004   0.002  0.00  0.00    -0.216 NA
ENDROOT
BRANCH   6  10
ATOM     10  C1*   A A  1        0.596  -3.135  -0.019  0.00  0.00    +0.253 C 
ATOM     11  C2*   A A  1        0.174  -3.490  -1.468  0.00  0.00    +0.195 C 
ATOM     12  C3*   A A  1       -0.195  -4.990  -1.307  0.00  0.00    +0.178 C 
ATOM     13  C4*   A A  1        0.814  -5.464  -0.239  0.00  0.00    +0.177 C 
ATOM     14  O4*   A A  1        1.263  -4.306   0.477  0.00  0.00    -0.346 OA
BRANCH  11  15
ATOM     15  O2*   A A  1       -0.959  -2.721  -1.878  0.00  0.00    -0.385 OA
ATOM     16  H2*   A A  1       -1.257  -2.910  -2.778  0.00  0.00    +0.210 HD
ENDBRANCH  11  15
BRANCH  12  17
ATOM     17  O3*   A A  1       -1.539  -5.136  -0.843  0.00  0.00    -0.386 OA
ATOM     18  H3*   A A  1       -1.817  -6.055  -0.727  0.00  0.00    +0.210 HD
ENDBRANCH  12  17
BRANCH  13  19
ATOM     19  C5*   A A  1        0.133  -6.438   0.723  0.00  0.00    +0.190 C 
BRANCH  19  20
ATOM     20  O5*   A A  1        1.100  -6.961   1.636  0.00  0.00    -0.392 OA
ATOM     21  H5*   A A  1        0.738  -7.587   2.277  0.00  0.00    +0.210 HD
ENDBRANCH  19  20
ENDBRANCH  13  19
ENDBRANCH   6  10
BRANCH   3  22
ATOM     22  N6    A A  1        3.439   2.229  -0.019  0.00  0.00    -0.341 N 
ATOM     23  H61   A A  1        4.309   1.799  -0.030  0.00  0.00    +0.144 HD
ATOM     24  H62   A A  1        3.377   3.197  -0.014  0.00  0.00    +0.144 HD
ENDBRANCH   3  22
TORSDOF 6
