REMARK  Name = ZINC03818826
REMARK                            x       y       z     vdW  Elec       q    Type
REMARK                         _______ _______ _______ _____ _____    ______ ____
ROOT
ATOM      1  C   LIG    1       -0.019   1.526   0.010  0.00  0.00    +0.014 C 
ATOM      2  C   LIG    1        0.002  -0.004   0.002  0.00  0.00    -0.003 C 
ATOM      3  C   LIG    1       -1.414  -0.543   0.049  0.00  0.00    +0.010 C 
ATOM      4  C   LIG    1       -2.097   0.044   1.299  0.00  0.00    +0.009 C 
ATOM      5  C   LIG    1       -1.312  -0.307   2.554  0.00  0.00    +0.023 C 
ATOM      6  C   LIG    1       -1.942   0.265   3.790  0.00  0.00    -0.037 A 
ATOM      7  C   LIG    1       -3.328   0.348   3.843  0.00  0.00    +0.053 A 
ATOM      8  C   LIG    1       -3.960   0.857   4.962  0.00  0.00    +0.162 A 
ATOM      9  C   LIG    1       -3.198   1.289   6.045  0.00  0.00    +0.159 A 
ATOM     10  C   LIG    1       -1.820   1.209   5.986  0.00  0.00    +0.053 A 
ATOM     11  C   LIG    1       -1.186   0.701   4.858  0.00  0.00    -0.040 A 
ATOM     12  C   LIG    1        0.320   0.667   4.860  0.00  0.00    +0.036 C 
ATOM     13  C   LIG    1        0.856  -0.233   3.748  0.00  0.00    +0.009 C 
ATOM     14  C   LIG    1        0.145   0.163   2.454  0.00  0.00    +0.000 C 
ATOM     15  C   LIG    1        0.899  -0.511  -1.132  0.00  0.00    +0.121 C 
ATOM     16  C   LIG    1        2.330  -0.245  -0.587  0.00  0.00    +0.032 C 
ATOM     17  C   LIG    1        2.209  -0.204   0.957  0.00  0.00    +0.007 C 
ATOM     18  C   LIG    1        0.751  -0.534   1.256  0.00  0.00    +0.001 C 
ENDROOT
BRANCH   8  19
ATOM     19  O   LIG    1       -5.317   0.935   5.006  0.00  0.00    -0.491 OA
ATOM     20  C   LIG    1       -6.030   0.472   3.857  0.00  0.00    +0.277 C 
ENDBRANCH   8  19
BRANCH   9  21
ATOM     21  O   LIG    1       -3.807   1.788   7.153  0.00  0.00    -0.503 OA
ATOM     22  H   LIG    1       -4.016   1.120   7.821  0.00  0.00    +0.292 HD
ENDBRANCH   9  21
BRANCH  15  23
ATOM     23  O   LIG    1        0.668   0.233  -2.330  0.00  0.00    -0.391 OA
ATOM     24  H   LIG    1        1.212  -0.049  -3.079  0.00  0.00    +0.210 HD
ENDBRANCH  15  23
TORSDOF 3
