REMARK  Name = ZINC03831041
REMARK                            x       y       z     vdW  Elec       q    Type
REMARK                         _______ _______ _______ _____ _____    ______ ____
ROOT
ATOM      1  N   LIG    1       -0.207   1.762   3.697  0.00  0.00    -0.298 N 
ATOM      2  C   LIG    1       -1.577   1.980   3.577  0.00  0.00    +0.048 A 
ATOM      3  C   LIG    1       -2.102   2.272   2.322  0.00  0.00    +0.024 A 
ATOM      4  C   LIG    1       -3.458   2.487   2.166  0.00  0.00    +0.002 A 
ATOM      5  C   LIG    1       -4.304   2.414   3.256  0.00  0.00    +0.001 A 
ATOM      6  C   LIG    1       -3.793   2.126   4.508  0.00  0.00    +0.017 A 
ATOM      7  C   LIG    1       -2.432   1.911   4.673  0.00  0.00    +0.034 A 
ATOM      8  S   LIG    1       -1.798   1.555   6.277  0.00  0.00    -0.086 S 
ATOM      9  C   LIG    1       -0.068   1.849   6.126  0.00  0.00    +0.034 A 
ATOM     10  C   LIG    1        0.700   2.008   7.270  0.00  0.00    +0.018 A 
ATOM     11  C   LIG    1        2.057   2.227   7.171  0.00  0.00    +0.018 A 
ATOM     12  C   LIG    1        2.653   2.304   5.926  0.00  0.00    +0.040 A 
ATOM     13  C   LIG    1        1.894   2.151   4.781  0.00  0.00    +0.041 A 
ATOM     14  C   LIG    1        0.526   1.917   4.871  0.00  0.00    +0.049 A 
ENDROOT
BRANCH  12  15
ATOM     15  S   LIG    1        4.385   2.599   5.799  0.00  0.00    +0.051 S 
ATOM     16  C   LIG    1        4.519   4.406   5.732  0.00  0.00    +0.127 C 
ATOM     17  O   LIG    1        4.735   2.051   4.536  0.00  0.00    -0.252 OA
ENDBRANCH  12  15
BRANCH   1  18
ATOM     18  C   LIG    1        0.518   1.332   2.499  0.00  0.00    +0.109 C 
BRANCH  18  19
ATOM     19  C   LIG    1        1.018   2.561   1.736  0.00  0.00    +0.004 C 
BRANCH  19  27
ATOM     20  C   LIG    1        3.177   3.996   0.657  0.00  0.00    -0.096 C 
ATOM     21  N   LIG    1        2.259   3.286  -0.244  0.00  0.00    +0.380 N 
ATOM     22  H   LIG    1        1.507   3.904  -0.511  0.00  0.00    -0.082 HD
ATOM     23  C   LIG    1        2.988   2.860  -1.445  0.00  0.00    -0.079 C 
ATOM     24  C   LIG    1        2.020   2.192  -2.424  0.00  0.00    -0.019 C 
ATOM     25  C   LIG    1        1.383   0.973  -1.751  0.00  0.00    -0.003 C 
ATOM     26  C   LIG    1        0.689   1.418  -0.461  0.00  0.00    -0.015 C 
ATOM     27  C   LIG    1        1.707   2.114   0.445  0.00  0.00    -0.067 C 
ENDBRANCH  19  27
ENDBRANCH  18  19
ENDBRANCH   1  18
TORSDOF 4
