REMARK  Name = ZINC03653374
REMARK                            x       y       z     vdW  Elec       q    Type
REMARK                         _______ _______ _______ _____ _____    ______ ____
ROOT
ATOM      1  C   LIG    1        2.219  -2.685   0.207  0.00  0.00    +0.106 A 
ATOM      2  C   LIG    1        2.443  -3.798   0.967  0.00  0.00    +0.056 A 
ATOM      3  C   LIG    1        2.191  -3.717   2.413  0.00  0.00    +0.261 A 
ATOM      4  N   LIG    1        1.750  -2.550   2.929  0.00  0.00    -0.274 N 
ATOM      5  C   LIG    1        1.553  -1.487   2.131  0.00  0.00    +0.331 A 
ATOM      6  O   LIG    1        1.160  -0.446   2.621  0.00  0.00    -0.246 OA
ATOM      7  H   LIG    1        1.569  -2.477   3.909  0.00  0.00    +0.173 HD
ATOM      8  O   LIG    1        2.376  -4.683   3.130  0.00  0.00    -0.267 OA
ATOM      9  N   LIG    1        1.772  -1.543   0.807  0.00  0.00    -0.271 N 
ENDROOT
BRANCH   9  10
ATOM     10  C1* LIG    1        1.532  -0.351  -0.011  0.00  0.00    +0.255 C 
ATOM     11  C2* LIG    1        0.030   0.012  -0.005  0.00  0.00    +0.195 C 
ATOM     12  C3* LIG    1        0.017   1.557   0.008  0.00  0.00    +0.178 C 
ATOM     13  C4* LIG    1        1.512   1.945   0.009  0.00  0.00    +0.177 C 
ATOM     14  O4* LIG    1        2.191   0.798   0.566  0.00  0.00    -0.346 OA
BRANCH  11  15
ATOM     15  O2* LIG    1       -0.608  -0.505   1.164  0.00  0.00    -0.385 OA
ATOM     16  H2* LIG    1       -1.539  -0.256   1.246  0.00  0.00    +0.210 HD
ENDBRANCH  11  15
BRANCH  12  17
ATOM     17  O3* LIG    1       -0.630   2.062  -1.162  0.00  0.00    -0.386 OA
ATOM     18  H3* LIG    1       -0.667   3.027  -1.205  0.00  0.00    +0.210 HD
ENDBRANCH  12  17
BRANCH  13  19
ATOM     19  C5* LIG    1        1.742   3.177   0.887  0.00  0.00    +0.190 C 
BRANCH  19  20
ATOM     20  O5* LIG    1        3.106   3.589   0.782  0.00  0.00    -0.392 OA
ATOM     21  H5* LIG    1        3.324   4.367   1.314  0.00  0.00    +0.210 HD
ENDBRANCH  19  20
ENDBRANCH  13  19
ENDBRANCH   9  10
BRANCH   2  22
ATOM     22  C   LIG    1        2.927  -5.050   0.351  0.00  0.00    +0.022 C 
ATOM     23  C   LIG    1        3.246  -6.087   1.117  0.00  0.00    +0.052 C 
ATOM     24 BR   LIG    1        3.999  -7.638   0.342  0.00  0.00    -0.059 Br
ENDBRANCH   2  22
TORSDOF 6
