REMARK  Name = ZINC03820131
REMARK                            x       y       z     vdW  Elec       q    Type
REMARK                         _______ _______ _______ _____ _____    ______ ____
ROOT
ATOM      1  C   LIG    1       -4.747   2.840   2.658  0.00  0.00    +0.248 C 
ATOM      2  N   LIG    1       -5.907   3.177   3.255  0.00  0.00    -0.311 N 
ATOM      3  H   LIG    1       -5.909   3.471   4.180  0.00  0.00    +0.149 HD
ATOM      4  O   LIG    1       -4.744   2.472   1.498  0.00  0.00    -0.270 OA
ENDROOT
BRANCH   1  10
ATOM      5  C   LIG    1        0.156   1.456   0.261  0.00  0.00    +0.065 C 
ATOM      6  C   LIG    1       -0.590   1.937   1.479  0.00  0.00    +0.031 A 
ATOM      7  N   LIG    1       -1.910   2.136   1.559  0.00  0.00    -0.343 N 
ATOM      8  H   LIG    1       -2.580   1.986   0.795  0.00  0.00    +0.167 HD
ATOM      9  C   LIG    1       -2.216   2.554   2.772  0.00  0.00    +0.129 A 
ATOM     10  C   LIG    1       -3.487   2.917   3.406  0.00  0.00    +0.079 A 
ATOM     11  C   LIG    1       -3.473   3.338   4.736  0.00  0.00    +0.040 A 
ATOM     12  C   LIG    1       -2.265   3.401   5.419  0.00  0.00    +0.080 A 
ATOM     13 CL   LIG    1       -2.244   3.924   7.074  0.00  0.00    -0.080 Cl
ATOM     14  C   LIG    1       -1.084   3.054   4.801  0.00  0.00    +0.121 A 
ATOM     15  N   LIG    1       -1.058   2.638   3.500  0.00  0.00    -0.287 N 
ATOM     16  C   LIG    1       -0.037   2.245   2.670  0.00  0.00    +0.115 A 
BRANCH  14  17
ATOM     17  N   LIG    1        0.093   3.129   5.508  0.00  0.00    -0.343 N 
ATOM     18  H   LIG    1        0.086   3.423   6.432  0.00  0.00    +0.144 HD
ATOM     19  H   LIG    1        0.931   2.888   5.082  0.00  0.00    +0.144 HD
ENDBRANCH  14  17
ENDBRANCH   1  10
BRANCH   2  20
ATOM     20  C   LIG    1       -7.165   3.100   2.508  0.00  0.00    +0.108 C 
BRANCH  20  21
ATOM     21  C   LIG    1       -8.321   3.534   3.411  0.00  0.00    +0.003 C 
ATOM     22  C   LIG    1       -8.478   2.532   4.558  0.00  0.00    -0.014 C 
ATOM     23  C   LIG    1       -9.674   2.938   5.423  0.00  0.00    -0.079 C 
ATOM     24  N   LIG    1      -10.894   2.933   4.587  0.00  0.00    +0.380 N 
ATOM     25  H   LIG    1      -10.999   2.007   4.157  0.00  0.00    -0.082 HD
ATOM     26  C   LIG    1      -10.781   3.949   3.519  0.00  0.00    -0.079 C 
ATOM     27  C   LIG    1       -9.618   3.574   2.598  0.00  0.00    -0.014 C 
BRANCH  24  28
ATOM     28  C   LIG    1      -12.080   3.210   5.424  0.00  0.00    -0.076 C 
BRANCH  28  29
ATOM     29  C   LIG    1      -12.108   2.221   6.591  0.00  0.00    -0.034 C 
ATOM     30  C   LIG    1      -12.204   0.794   6.048  0.00  0.00    +0.005 C 
ATOM     31  C   LIG    1      -13.321   2.513   7.477  0.00  0.00    +0.005 C 
ENDBRANCH  28  29
ENDBRANCH  24  28
ENDBRANCH  20  21
ENDBRANCH   2  20
TORSDOF 6
