REMARK  Name = ZINC03794612
REMARK                            x       y       z     vdW  Elec       q    Type
REMARK                         _______ _______ _______ _____ _____    ______ ____
ROOT
ATOM      1  C   LIG    1       -6.936 -10.341   1.821  0.00  0.00    +0.217 C 
ATOM      2  N   LIG    1       -7.268 -11.632   2.020  0.00  0.00    -0.264 N 
ATOM      3  C   LIG    1       -8.596 -12.044   1.924  0.00  0.00    +0.063 A 
ATOM      4  C   LIG    1       -9.556 -11.495   2.762  0.00  0.00    +0.027 A 
ATOM      5  C   LIG    1      -10.865 -11.930   2.694  0.00  0.00    +0.002 A 
ATOM      6  C   LIG    1      -11.227 -12.917   1.793  0.00  0.00    +0.001 A 
ATOM      7  C   LIG    1      -10.289 -13.462   0.943  0.00  0.00    +0.015 A 
ATOM      8  C   LIG    1       -8.964 -13.019   0.986  0.00  0.00    +0.063 A 
ATOM      9  C   LIG    1       -7.988 -13.537   0.020  0.00  0.00    +0.258 A 
ATOM     10  N   LIG    1       -6.713 -13.796   0.266  0.00  0.00    -0.319 N 
ATOM     11  H   LIG    1       -6.184 -14.117  -0.481  0.00  0.00    +0.169 HD
ATOM     12  C   LIG    1       -6.050 -13.659   1.482  0.00  0.00    +0.085 A 
ATOM     13  C   LIG    1       -5.118 -14.620   1.863  0.00  0.00    +0.031 A 
ATOM     14  C   LIG    1       -4.426 -14.445   3.038  0.00  0.00    +0.022 A 
ATOM     15  C   LIG    1       -4.676 -13.325   3.805  0.00  0.00    +0.113 A 
ATOM     16  N   LIG    1       -5.580 -12.439   3.434  0.00  0.00    -0.236 NA
ATOM     17  O   LIG    1       -8.387 -13.748  -1.109  0.00  0.00    -0.267 OA
ATOM     18  C   LIG    1       -6.285 -12.579   2.320  0.00  0.00    +0.164 A 
ATOM     19  O   LIG    1       -7.796  -9.527   1.562  0.00  0.00    -0.274 OA
ENDROOT
BRANCH   1  20
ATOM     20  C   LIG    1       -5.496  -9.909   1.922  0.00  0.00    +0.022 C 
BRANCH  20  24
ATOM     21  C   LIG    1       -4.361  -6.148   0.271  0.00  0.00    -0.014 C 
ATOM     22  C   LIG    1       -3.924  -6.509   1.694  0.00  0.00    -0.015 C 
ATOM     23  C   LIG    1       -4.015  -8.025   1.881  0.00  0.00    -0.078 C 
ATOM     24  N   LIG    1       -5.398  -8.466   1.665  0.00  0.00    +0.386 N 
ATOM     25  H   LIG    1       -6.010  -7.972   2.298  0.00  0.00    -0.081 HD
ATOM     26  C   LIG    1       -5.800  -8.188   0.281  0.00  0.00    -0.078 C 
ATOM     27  C   LIG    1       -5.778  -6.678   0.033  0.00  0.00    -0.015 C 
BRANCH  21  28
ATOM     28  C   LIG    1       -4.349  -4.628   0.102  0.00  0.00    +0.003 C 
BRANCH  28  29
ATOM     29  C   LIG    1       -2.913  -4.113   0.217  0.00  0.00    -0.002 C 
BRANCH  29  30
ATOM     30  C   LIG    1       -2.901  -2.592   0.048  0.00  0.00    -0.019 C 
BRANCH  30  31
ATOM     31  C   LIG    1       -1.464  -2.078   0.163  0.00  0.00    -0.079 C 
BRANCH  31  32
ATOM     32  N   LIG    1       -1.438  -0.634  -0.108  0.00  0.00    +0.379 N 
ATOM     33  H   LIG    1       -1.863  -0.453  -1.004  0.00  0.00    -0.082 HD
BRANCH  32  35
ATOM     34  C   LIG    1       -2.263   1.562   0.594  0.00  0.00    -0.017 C 
ATOM     35  C   LIG    1       -2.184   0.074   0.941  0.00  0.00    -0.082 C 
ENDBRANCH  32  35
BRANCH  32  36
ATOM     36  C   LIG    1       -0.046  -0.164  -0.121  0.00  0.00    -0.082 C 
ATOM     37  C   LIG    1        0.689  -0.780  -1.313  0.00  0.00    -0.017 C 
ENDBRANCH  32  36
ENDBRANCH  31  32
ENDBRANCH  30  31
ENDBRANCH  29  30
ENDBRANCH  28  29
ENDBRANCH  21  28
ENDBRANCH  20  24
ENDBRANCH   1  20
TORSDOF 9
