REMARK  Name = ZINC03812958
REMARK                            x       y       z     vdW  Elec       q    Type
REMARK                         _______ _______ _______ _____ _____    ______ ____
ROOT
ATOM      1  C   LIG    1        3.652  -0.779   0.034  0.00  0.00    -0.018 A 
ATOM      2  C   LIG    1        4.298  -1.124   1.220  0.00  0.00    +0.009 A 
ATOM      3  C   LIG    1        5.519  -1.766   1.175  0.00  0.00    +0.006 A 
ATOM      4  C   LIG    1        6.101  -2.067  -0.043  0.00  0.00    -0.020 A 
ATOM      5  C   LIG    1        5.464  -1.726  -1.222  0.00  0.00    +0.006 A 
ATOM      6  C   LIG    1        4.240  -1.089  -1.190  0.00  0.00    +0.009 A 
ENDROOT
BRANCH   1  10
ATOM      7  C   LIG    1       -0.110   1.200   0.153  0.00  0.00    +0.000 A 
ATOM      8  C   LIG    1        0.529   0.865   1.333  0.00  0.00    +0.001 A 
ATOM      9  C   LIG    1        1.750   0.222   1.300  0.00  0.00    +0.008 A 
ATOM     10  C   LIG    1        2.339  -0.088   0.076  0.00  0.00    -0.018 A 
ATOM     11  C   LIG    1        1.690   0.252  -1.109  0.00  0.00    +0.008 A 
ATOM     12  C   LIG    1        0.469   0.894  -1.065  0.00  0.00    +0.001 A 
ENDBRANCH   1  10
BRANCH   4  13
ATOM     13  C   LIG    1        7.434  -2.768  -0.085  0.00  0.00    +0.148 C 
BRANCH  13  14
ATOM     14  C   LIG    1        7.468  -3.713  -1.258  0.00  0.00    -0.020 A 
ATOM     15  C   LIG    1        6.463  -4.648  -1.421  0.00  0.00    +0.006 A 
ATOM     16  C   LIG    1        6.494  -5.515  -2.498  0.00  0.00    +0.000 A 
ATOM     17  C   LIG    1        7.530  -5.447  -3.411  0.00  0.00    +0.000 A 
ATOM     18  C   LIG    1        8.534  -4.511  -3.248  0.00  0.00    +0.000 A 
ATOM     19  C   LIG    1        8.501  -3.642  -2.174  0.00  0.00    +0.006 A 
ENDBRANCH  13  14
BRANCH  13  20
ATOM     20  N   LIG    1        7.629  -3.522   1.156  0.00  0.00    -0.325 N 
ATOM     21  C   LIG    1        8.638  -3.346   2.064  0.00  0.00    +0.107 A 
ATOM     22  C   LIG    1        8.436  -4.243   3.049  0.00  0.00    +0.130 A 
ATOM     23  N   LIG    1        7.334  -4.947   2.750  0.00  0.00    -0.244 NA
ATOM     24  C   LIG    1        6.842  -4.517   1.620  0.00  0.00    +0.200 A 
ENDBRANCH  13  20
ENDBRANCH   4  13
TORSDOF 4
