REMARK  Name = ZINC03831445
REMARK                            x       y       z     vdW  Elec       q    Type
REMARK                         _______ _______ _______ _____ _____    ______ ____
ROOT
ATOM      1  C   LIG    1        0.709  -0.582  -1.149  0.00  0.00    -0.041 C 
ATOM      2  C   LIG    1        0.493  -2.094  -1.164  0.00  0.00    -0.010 C 
ATOM      3  C   LIG    1        1.408  -2.702  -2.234  0.00  0.00    +0.011 C 
ATOM      4  C   LIG    1        2.853  -2.589  -1.752  0.00  0.00    +0.049 C 
ATOM      5  C   LIG    1        3.161  -1.177  -1.326  0.00  0.00    -0.038 A 
ATOM      6  C   LIG    1        4.496  -0.811  -1.218  0.00  0.00    +0.004 A 
ATOM      7  C   LIG    1        4.843   0.464  -0.827  0.00  0.00    +0.000 A 
ATOM      8  C   LIG    1        3.855   1.387  -0.541  0.00  0.00    +0.000 A 
ATOM      9  C   LIG    1        2.528   1.026  -0.650  0.00  0.00    +0.002 A 
ATOM     10  C   LIG    1        2.176  -0.258  -1.045  0.00  0.00    -0.058 A 
ENDROOT
BRANCH   4  11
ATOM     11  C   LIG    1        3.783  -2.983  -2.871  0.00  0.00    -0.038 A 
ATOM     12  C   LIG    1        3.772  -2.276  -4.060  0.00  0.00    +0.006 A 
ATOM     13  C   LIG    1        4.623  -2.637  -5.087  0.00  0.00    +0.022 A 
ATOM     14  C   LIG    1        5.487  -3.706  -4.926  0.00  0.00    +0.059 A 
ATOM     15 CL   LIG    1        6.556  -4.159  -6.217  0.00  0.00    -0.082 Cl
ATOM     16  C   LIG    1        5.498  -4.413  -3.737  0.00  0.00    +0.060 A 
ATOM     17 CL   LIG    1        6.581  -5.754  -3.534  0.00  0.00    -0.082 Cl
ATOM     18  C   LIG    1        4.649  -4.047  -2.707  0.00  0.00    +0.025 A 
ENDBRANCH   4  11
BRANCH   1  20
ATOM     19  C   LIG    1       -1.444  -0.204  -0.161  0.00  0.00    -0.100 C 
ATOM     20  N   LIG    1        0.002  -0.004   0.002  0.00  0.00    +0.382 N 
ATOM     21  H   LIG    1        0.311  -0.457   0.849  0.00  0.00    -0.085 HD
ATOM     22  H   LIG    1        0.201   0.984   0.057  0.00  0.00    -0.085 HD
ENDBRANCH   1  20
TORSDOF 2
