REMARK  Name = ZINC03847491
REMARK                            x       y       z     vdW  Elec       q    Type
REMARK                         _______ _______ _______ _____ _____    ______ ____
ROOT
ATOM      1  C   LIG    1       -0.017   1.380   0.010  0.00  0.00    +0.001 A 
ATOM      2  C   LIG    1        1.166   2.096   0.002  0.00  0.00    +0.001 A 
ATOM      3  C   LIG    1        2.384   1.439  -0.013  0.00  0.00    +0.012 A 
ATOM      4  C   LIG    1        2.421   0.047  -0.021  0.00  0.00    +0.033 A 
ATOM      5  C   LIG    1        1.218  -0.681  -0.013  0.00  0.00    +0.033 A 
ATOM      6  C   LIG    1        1.248  -2.159  -0.022  0.00  0.00    +0.195 C 
ATOM      7  C   LIG    1        2.544  -2.869  -0.039  0.00  0.00    +0.033 A 
ATOM      8  C   LIG    1        2.581  -4.261  -0.048  0.00  0.00    +0.012 A 
ATOM      9  C   LIG    1        3.799  -4.918  -0.065  0.00  0.00    +0.001 A 
ATOM     10  C   LIG    1        4.982  -4.201  -0.072  0.00  0.00    +0.001 A 
ATOM     11  C   LIG    1        4.963  -2.818  -0.063  0.00  0.00    +0.012 A 
ATOM     12  C   LIG    1        3.747  -2.141  -0.047  0.00  0.00    +0.033 A 
ATOM     13  O   LIG    1        0.209  -2.789  -0.015  0.00  0.00    -0.287 OA
ATOM     14  C   LIG    1        3.717  -0.663  -0.038  0.00  0.00    +0.195 C 
ATOM     15  O   LIG    1        4.756  -0.033  -0.046  0.00  0.00    -0.287 OA
ATOM     16  C   LIG    1        0.002  -0.004   0.002  0.00  0.00    +0.012 A 
ENDROOT
TORSDOF 0
