REMARK  Name = ZINC03783980
REMARK                            x       y       z     vdW  Elec       q    Type
REMARK                         _______ _______ _______ _____ _____    ______ ____
ROOT
ATOM      1  C   LIG    1        3.704  -0.703  -0.037  0.00  0.00    +0.032 C 
ATOM      2  C   LIG    1        4.013  -1.415   1.258  0.00  0.00    -0.070 C 
ATOM      3  N   LIG    1        2.953  -2.287   1.759  0.00  0.00    +0.380 N 
ATOM      4  H   LIG    1        2.297  -1.746   2.303  0.00  0.00    -0.086 HD
ATOM      5  H   LIG    1        3.363  -2.992   2.359  0.00  0.00    -0.086 HD
ATOM      6  C   LIG    1        2.232  -2.964   0.669  0.00  0.00    -0.078 C 
ATOM      7  C   LIG    1        3.296  -3.744  -0.128  0.00  0.00    +0.018 C 
ATOM      8  C   LIG    1        3.712  -2.911  -1.318  0.00  0.00    -0.023 A 
ATOM      9  C   LIG    1        3.933  -3.596  -2.510  0.00  0.00    +0.089 A 
ATOM     10 CL   LIG    1        3.755  -5.322  -2.558  0.00  0.00    -0.079 Cl
ATOM     11  C   LIG    1        4.295  -2.916  -3.659  0.00  0.00    +0.177 A 
ATOM     12  C   LIG    1        4.439  -1.533  -3.619  0.00  0.00    +0.160 A 
ATOM     13  C   LIG    1        4.229  -0.862  -2.431  0.00  0.00    +0.053 A 
ATOM     14  C   LIG    1        3.872  -1.547  -1.269  0.00  0.00    -0.034 A 
ENDROOT
BRANCH   1  18
ATOM     15  C   LIG    1       -0.017   1.377   0.014  0.00  0.00    +0.000 A 
ATOM     16  C   LIG    1        0.153   0.284  -0.816  0.00  0.00    +0.000 A 
ATOM     17  C   LIG    1        1.359  -0.390  -0.833  0.00  0.00    +0.004 A 
ATOM     18  C   LIG    1        2.396   0.029  -0.020  0.00  0.00    -0.042 A 
ATOM     19  C   LIG    1        2.226   1.121   0.809  0.00  0.00    +0.004 A 
ATOM     20  C   LIG    1        1.019   1.795   0.827  0.00  0.00    +0.000 A 
ENDBRANCH   1  18
BRANCH  11  21
ATOM     21  O   LIG    1        4.510  -3.594  -4.819  0.00  0.00    -0.502 OA
ATOM     22  H   LIG    1        5.424  -3.884  -4.941  0.00  0.00    +0.292 HD
ENDBRANCH  11  21
BRANCH  12  23
ATOM     23  O   LIG    1        4.785  -0.849  -4.742  0.00  0.00    -0.503 OA
ATOM     24  H   LIG    1        5.739  -0.747  -4.862  0.00  0.00    +0.292 HD
ENDBRANCH  12  23
TORSDOF 3
