REMARK  Name = ZINC03870481
REMARK                            x       y       z     vdW  Elec       q    Type
REMARK                         _______ _______ _______ _____ _____    ______ ____
ROOT
ATOM      1  C   LIG    1       -0.314   2.181  -5.265  0.00  0.00    +0.127 A 
ATOM      2  C   LIG    1        0.251   3.205  -6.003  0.00  0.00    +0.041 A 
ATOM      3  C   LIG    1       -0.581   4.033  -6.777  0.00  0.00    -0.014 A 
ATOM      4  C   LIG    1       -0.075   5.089  -7.550  0.00  0.00    +0.008 A 
ATOM      5  C   LIG    1       -0.933   5.856  -8.280  0.00  0.00    +0.001 A 
ATOM      6  C   LIG    1       -2.303   5.607  -8.270  0.00  0.00    +0.001 A 
ATOM      7  C   LIG    1       -2.828   4.588  -7.530  0.00  0.00    +0.010 A 
ATOM      8  C   LIG    1       -1.977   3.780  -6.769  0.00  0.00    +0.008 A 
ATOM      9  C   LIG    1       -2.478   2.674  -5.957  0.00  0.00    +0.081 A 
ATOM     10  N   LIG    1       -1.625   1.944  -5.264  0.00  0.00    -0.241 NA
ENDROOT
BRANCH   9  11
ATOM     11  C   LIG    1       -3.927   2.373  -5.916  0.00  0.00    +0.019 A 
ATOM     12  C   LIG    1       -4.642   2.209  -7.103  0.00  0.00    +0.011 A 
ATOM     13  C   LIG    1       -5.992   1.929  -7.059  0.00  0.00    +0.001 A 
ATOM     14  C   LIG    1       -6.638   1.809  -5.841  0.00  0.00    +0.001 A 
ATOM     15  C   LIG    1       -5.936   1.970  -4.660  0.00  0.00    +0.020 A 
ATOM     16  C   LIG    1       -4.582   2.245  -4.691  0.00  0.00    +0.050 A 
ATOM     17 CL   LIG    1       -3.700   2.439  -3.208  0.00  0.00    -0.083 Cl
ENDBRANCH   9  11
BRANCH   1  19
ATOM     18  N   LIG    1        0.062   0.235  -3.826  0.00  0.00    -0.297 N 
ATOM     19  C   LIG    1        0.569   1.315  -4.453  0.00  0.00    +0.265 C 
ATOM     20  O   LIG    1        1.752   1.577  -4.352  0.00  0.00    -0.268 OA
ATOM     21  C   LIG    1       -1.337  -0.145  -4.036  0.00  0.00    +0.132 C 
BRANCH  18  22
ATOM     22  C   LIG    1        0.911  -0.560  -2.934  0.00  0.00    +0.073 C 
ATOM     23  C   LIG    1        0.992  -1.997  -3.453  0.00  0.00    +0.028 C 
BRANCH  22  25
ATOM     24  C   LIG    1        0.346   0.861  -0.958  0.00  0.00    +0.005 C 
ATOM     25  C   LIG    1        0.312  -0.559  -1.526  0.00  0.00    +0.019 C 
ENDBRANCH  22  25
ENDBRANCH  18  22
ENDBRANCH   1  19
TORSDOF 4
