REMARK  Name = ZINC03831417
REMARK                            x       y       z     vdW  Elec       q    Type
REMARK                         _______ _______ _______ _____ _____    ______ ____
ROOT
ATOM      1  C   LIG    1       -2.293   0.271  -0.151  0.00  0.00    +0.004 C 
ATOM      2  C   LIG    1       -3.535  -0.259  -0.018  0.00  0.00    +0.003 C 
ENDROOT
BRANCH   1   5
ATOM      3  C   LIG    1       -2.148  -1.785  -1.929  0.00  0.00    +0.039 C 
ATOM      4  C   LIG    1       -1.033  -1.601  -0.932  0.00  0.00    -0.069 C 
ATOM      5  C   LIG    1       -1.118  -0.596  -0.080  0.00  0.00    -0.043 C 
ATOM      6  C   LIG    1       -0.077  -0.292   0.958  0.00  0.00    -0.010 C 
ATOM      7  C   LIG    1       -0.764   0.060   2.278  0.00  0.00    +0.016 C 
ATOM      8  C   LIG    1        0.768   0.897   0.495  0.00  0.00    +0.016 C 
ATOM      9  C   LIG    1        0.829  -1.508   1.165  0.00  0.00    +0.011 C 
ATOM     10  C   LIG    1        1.310  -1.997  -0.206  0.00  0.00    +0.005 C 
ATOM     11  C   LIG    1        0.109  -2.575  -0.961  0.00  0.00    +0.031 C 
ENDBRANCH   1   5
BRANCH   2  12
ATOM     12  C   LIG    1       -4.663   0.587   0.004  0.00  0.00    -0.050 C 
ATOM     13  C   LIG    1       -4.489   2.078  -0.119  0.00  0.00    +0.044 C 
ATOM     14  C   LIG    1       -5.908   0.056   0.137  0.00  0.00    +0.003 C 
BRANCH  14  15
ATOM     15  C   LIG    1       -7.035   0.901   0.159  0.00  0.00    +0.001 C 
ATOM     16  C   LIG    1       -8.277   0.372   0.291  0.00  0.00    +0.003 C 
BRANCH  16  17
ATOM     17  C   LIG    1       -9.446   1.248   0.314  0.00  0.00    -0.052 C 
ATOM     18  C   LIG    1       -9.272   2.740   0.191  0.00  0.00    +0.043 C 
ATOM     19  C   LIG    1      -10.669   0.727   0.444  0.00  0.00    +0.004 C 
BRANCH  19  20
ATOM     20  C   LIG    1      -11.875   1.631   0.468  0.00  0.00    +0.183 C 
BRANCH  20  21
ATOM     21  O   LIG    1      -12.894   1.087  -0.373  0.00  0.00    -0.391 OA
ATOM     22  H   LIG    1      -13.701   1.619  -0.406  0.00  0.00    +0.210 HD
ENDBRANCH  20  21
ENDBRANCH  19  20
ENDBRANCH  16  17
ENDBRANCH  14  15
ENDBRANCH   2  12
TORSDOF 6
