REMARK  Name = ZINC03812841
REMARK                            x       y       z     vdW  Elec       q    Type
REMARK                         _______ _______ _______ _____ _____    ______ ____
ROOT
ATOM      1  C   LIG    1        0.412  -4.380   2.669  0.00  0.00    +0.185 C 
ATOM      2  C   LIG    1        1.266  -5.153   1.666  0.00  0.00    +0.052 C 
ATOM      3  C   LIG    1        1.108  -6.653   1.950  0.00  0.00    +0.012 C 
ATOM      4  C   LIG    1        1.921  -7.462   0.938  0.00  0.00    +0.012 C 
ATOM      5  C   LIG    1        1.623  -6.910   3.343  0.00  0.00    -0.020 C 
ATOM      6  C   LIG    1        1.497  -5.999   4.291  0.00  0.00    -0.044 C 
ATOM      7  C   LIG    1        2.067  -6.262   5.632  0.00  0.00    -0.000 C 
ATOM      8  C   LIG    1        2.220  -5.265   6.484  0.00  0.00    -0.023 C 
ATOM      9  C   LIG    1        1.826  -3.847   6.201  0.00  0.00    +0.012 C 
ATOM     10  C   LIG    1        0.490  -3.556   6.887  0.00  0.00    +0.012 C 
ATOM     11  C   LIG    1        1.683  -3.588   4.700  0.00  0.00    +0.007 C 
ATOM     12  C   LIG    1        0.804  -4.684   4.095  0.00  0.00    +0.063 C 
ENDROOT
BRANCH   1  13
ATOM     13  O   LIG    1        0.571  -2.980   2.433  0.00  0.00    -0.461 OA
BRANCH  13  14
ATOM     14  C   LIG    1       -0.266  -2.413   1.550  0.00  0.00    +0.310 C 
ATOM     15  O   LIG    1       -1.105  -3.083   0.996  0.00  0.00    -0.251 OA
BRANCH  14  16
ATOM     16  C   LIG    1       -0.160  -0.940   1.249  0.00  0.00    +0.094 C 
ATOM     17  C   LIG    1        1.231  -0.633   0.690  0.00  0.00    +0.019 C 
BRANCH  16  19
ATOM     18  C   LIG    1       -1.195   0.963   0.005  0.00  0.00    +0.004 C 
ATOM     19  C   LIG    1       -1.221  -0.552   0.218  0.00  0.00    +0.011 C 
ENDBRANCH  16  19
ENDBRANCH  14  16
ENDBRANCH  13  14
ENDBRANCH   1  13
BRANCH  11  20
ATOM     20  C   LIG    1        1.031  -2.223   4.471  0.00  0.00    +0.008 C 
BRANCH  20  21
ATOM     21  C   LIG    1        1.619  -1.206   5.452  0.00  0.00    +0.045 C 
BRANCH  21  22
ATOM     22  C   LIG    1        0.967   0.159   5.223  0.00  0.00    +0.179 C 
ATOM     23  C   LIG    1        1.639   1.203   6.119  0.00  0.00    +0.076 C 
ATOM     24  C   LIG    1        0.957   2.559   5.918  0.00  0.00    +0.129 C 
ATOM     25  C   LIG    1       -0.528   2.426   6.279  0.00  0.00    +0.152 C 
ATOM     26  C   LIG    1       -1.099   1.252   5.515  0.00  0.00    +0.310 C 
ATOM     27  O   LIG    1       -2.130   1.358   4.892  0.00  0.00    -0.251 OA
ATOM     28  O   LIG    1       -0.426   0.084   5.547  0.00  0.00    -0.461 OA
BRANCH  24  29
ATOM     29  O   LIG    1        1.085   2.962   4.553  0.00  0.00    -0.391 OA
ATOM     30  H   LIG    1        0.675   3.815   4.354  0.00  0.00    +0.210 HD
ENDBRANCH  24  29
ENDBRANCH  21  22
ENDBRANCH  20  21
ENDBRANCH  11  20
TORSDOF 8
