REMARK  Name = ZINC03834173
REMARK                            x       y       z     vdW  Elec       q    Type
REMARK                         _______ _______ _______ _____ _____    ______ ____
ROOT
ATOM      1  C   LIG    1       -0.017   1.365   0.009  0.00  0.00    +0.113 A 
ATOM      2  C   LIG    1        1.148   2.049   0.002  0.00  0.00    +0.094 A 
ATOM      3  I   LIG    1        1.147   4.144   0.013  0.00  0.00    -0.037 I 
ATOM      4  C   LIG    1        2.369   1.332  -0.013  0.00  0.00    +0.267 A 
ATOM      5  N   LIG    1        2.344  -0.016  -0.020  0.00  0.00    -0.274 N 
ATOM      6  C   LIG    1        1.169  -0.673  -0.012  0.00  0.00    +0.331 A 
ATOM      7  O   LIG    1        1.162  -1.889  -0.018  0.00  0.00    -0.246 OA
ATOM      8  H   LIG    1        3.176  -0.515  -0.031  0.00  0.00    +0.173 HD
ATOM      9  O   LIG    1        3.431   1.927  -0.020  0.00  0.00    -0.267 OA
ATOM     10  N   LIG    1        0.002  -0.004   0.002  0.00  0.00    -0.273 N 
ENDROOT
BRANCH  10  11
ATOM     11  C1* LIG    1       -1.261  -0.747   0.011  0.00  0.00    +0.226 C 
ATOM     12  C2* LIG    1       -1.409  -1.571  -1.288  0.00  0.00    +0.088 C 
ATOM     13  C3* LIG    1       -2.085  -2.881  -0.826  0.00  0.00    +0.150 C 
ATOM     14  C4* LIG    1       -2.265  -2.694   0.697  0.00  0.00    +0.175 C 
ATOM     15  O4* LIG    1       -1.261  -1.725   1.073  0.00  0.00    -0.348 OA
BRANCH  13  16
ATOM     16  O3* LIG    1       -3.352  -3.043  -1.467  0.00  0.00    -0.389 OA
ATOM     17  H3* LIG    1       -3.300  -3.106  -2.431  0.00  0.00    +0.210 HD
ENDBRANCH  13  16
BRANCH  14  18
ATOM     18  C5* LIG    1       -2.033  -4.018   1.427  0.00  0.00    +0.190 C 
BRANCH  18  19
ATOM     19  O5* LIG    1       -2.318  -3.851   2.817  0.00  0.00    -0.392 OA
ATOM     20  H5* LIG    1       -2.192  -4.653   3.344  0.00  0.00    +0.210 HD
ENDBRANCH  18  19
ENDBRANCH  14  18
ENDBRANCH  10  11
TORSDOF 4
