REMARK  Name = ZINC03870708
REMARK                            x       y       z     vdW  Elec       q    Type
REMARK                         _______ _______ _______ _____ _____    ______ ____
ROOT
ATOM      1  CA  THR A  1        1.145   3.085   0.008  0.00  0.00    -0.014 C 
ATOM      2  N   THR A  1        0.650   3.569   1.297  0.00  0.00    +0.389 N 
ATOM      3  H1  THR A  1       -0.372   3.484   1.339  0.00  0.00    -0.085 HD
ATOM      4  H2  THR A  1        1.070   3.029   2.063  0.00  0.00    -0.085 HD
ATOM      5  CA  THR A  1        1.046   4.975   1.393  0.00  0.00    -0.014 C 
ATOM      6  CB  THR A  1        2.464   4.998   0.783  0.00  0.00    +0.130 C 
ATOM      7  CG2 THR A  1        2.529   3.755  -0.128  0.00  0.00    +0.130 C 
ENDROOT
BRANCH   6   8
ATOM      8  OG1 THR A  1        3.450   4.911   1.813  0.00  0.00    -0.391 OA
ATOM      9  HG1 THR A  1        4.359   4.878   1.485  0.00  0.00    +0.210 HD
ENDBRANCH   6   8
BRANCH   7  10
ATOM     10  OG1 THR A  1        3.556   2.867   0.317  0.00  0.00    -0.391 OA
ATOM     11  HG1 THR A  1        4.448   3.235   0.255  0.00  0.00    +0.210 HD
ENDBRANCH   7  10
BRANCH   1  12
ATOM     12  C   THR A  1        1.286   1.562  -0.002  0.00  0.00    +0.143 C 
BRANCH  12  13
ATOM     13  O   THR A  1       -0.011   0.963   0.007  0.00  0.00    -0.397 OA
ATOM     14  H   THR A  1        0.002  -0.004   0.002  0.00  0.00    +0.209 HD
ENDBRANCH  12  13
ENDBRANCH   1  12
BRANCH   5  15
ATOM     15  C   THR A  1        1.082   5.451   2.846  0.00  0.00    +0.143 C 
BRANCH  15  16
ATOM     16  O   THR A  1       -0.252   5.532   3.354  0.00  0.00    -0.397 OA
ATOM     17  H   THR A  1       -0.305   5.828   4.273  0.00  0.00    +0.209 HD
ENDBRANCH  15  16
ENDBRANCH   5  15
TORSDOF 6
