REMARK  Name = ZINC03870482
REMARK                            x       y       z     vdW  Elec       q    Type
REMARK                         _______ _______ _______ _____ _____    ______ ____
ROOT
ATOM      1  C   LIG    1        4.928   1.299  -3.081  0.00  0.00    +0.127 A 
ATOM      2  C   LIG    1        5.392   1.870  -4.252  0.00  0.00    +0.041 A 
ATOM      3  C   LIG    1        6.761   1.788  -4.560  0.00  0.00    -0.014 A 
ATOM      4  C   LIG    1        7.299   2.345  -5.729  0.00  0.00    +0.008 A 
ATOM      5  C   LIG    1        8.636   2.232  -5.972  0.00  0.00    +0.001 A 
ATOM      6  C   LIG    1        9.474   1.571  -5.077  0.00  0.00    +0.001 A 
ATOM      7  C   LIG    1        8.983   1.018  -3.931  0.00  0.00    +0.010 A 
ATOM      8  C   LIG    1        7.617   1.115  -3.649  0.00  0.00    +0.008 A 
ATOM      9  C   LIG    1        7.031   0.545  -2.439  0.00  0.00    +0.081 A 
ATOM     10  N   LIG    1        5.736   0.673  -2.225  0.00  0.00    -0.241 NA
ENDROOT
BRANCH   9  11
ATOM     11  C   LIG    1        7.884  -0.166  -1.459  0.00  0.00    +0.019 A 
ATOM     12  C   LIG    1        9.040   0.441  -0.966  0.00  0.00    +0.011 A 
ATOM     13  C   LIG    1        9.831  -0.227  -0.054  0.00  0.00    +0.001 A 
ATOM     14  C   LIG    1        9.480  -1.495   0.374  0.00  0.00    +0.001 A 
ATOM     15  C   LIG    1        8.336  -2.103  -0.111  0.00  0.00    +0.020 A 
ATOM     16  C   LIG    1        7.532  -1.443  -1.020  0.00  0.00    +0.050 A 
ATOM     17 CL   LIG    1        6.093  -2.204  -1.622  0.00  0.00    -0.083 Cl
ENDBRANCH   9  11
BRANCH   1  19
ATOM     18  N   LIG    1        3.028   0.956  -1.574  0.00  0.00    -0.297 N 
ATOM     19  C   LIG    1        3.485   1.391  -2.764  0.00  0.00    +0.265 C 
ATOM     20  O   LIG    1        2.713   1.860  -3.578  0.00  0.00    -0.268 OA
ATOM     21  C   LIG    1        3.970   0.494  -0.551  0.00  0.00    +0.132 C 
BRANCH  18  22
ATOM     22  C   LIG    1        1.588   0.945  -1.302  0.00  0.00    +0.073 C 
ATOM     23  C   LIG    1        1.136  -0.486  -1.003  0.00  0.00    +0.028 C 
BRANCH  22  25
ATOM     24  C   LIG    1        1.626   3.289  -0.438  0.00  0.00    +0.005 C 
ATOM     25  C   LIG    1        1.290   1.837  -0.095  0.00  0.00    +0.019 C 
ENDBRANCH  22  25
ENDBRANCH  18  22
ENDBRANCH   1  19
TORSDOF 4
