REMARK  Name = ZINC03831531
REMARK                            x       y       z     vdW  Elec       q    Type
REMARK                         _______ _______ _______ _____ _____    ______ ____
ROOT
ATOM      1  C   LIG    1        0.289  -0.603   2.346  0.00  0.00    -0.001 C 
ATOM      2  C   LIG    1        0.382   0.738   2.384  0.00  0.00    -0.019 C 
ENDROOT
BRANCH   1   8
ATOM      3  C   LIG    1        2.714  -2.017   1.097  0.00  0.00    +0.045 C 
ATOM      4  C   LIG    1        1.359  -1.956   0.440  0.00  0.00    -0.036 A 
ATOM      5  C   LIG    1        1.144  -2.555  -0.782  0.00  0.00    +0.011 A 
ATOM      6  C   LIG    1       -0.088  -2.482  -1.346  0.00  0.00    +0.046 A 
ATOM      7  S   LIG    1       -1.000  -1.541  -0.134  0.00  0.00    -0.096 S 
ATOM      8  C   LIG    1        0.317  -1.310   1.049  0.00  0.00    +0.023 A 
ENDBRANCH   1   8
BRANCH   1   9
ATOM      9  C   LIG    1        0.159  -1.370   3.603  0.00  0.00    +0.023 A 
ATOM     10  C   LIG    1       -0.070  -2.709   3.777  0.00  0.00    -0.036 A 
ATOM     11  C   LIG    1       -0.229  -3.622   2.588  0.00  0.00    +0.045 C 
ATOM     12  C   LIG    1       -0.152  -3.206   5.059  0.00  0.00    +0.011 A 
ATOM     13  C   LIG    1       -0.005  -2.356   6.108  0.00  0.00    +0.046 A 
ATOM     14  S   LIG    1        0.268  -0.794   5.289  0.00  0.00    -0.096 S 
ENDBRANCH   1   9
BRANCH   2  15
ATOM     15  C   LIG    1        0.392   1.528   1.101  0.00  0.00    +0.009 C 
BRANCH  15  16
ATOM     16  C   LIG    1       -0.757   2.539   1.117  0.00  0.00    -0.075 C 
BRANCH  16  17
ATOM     17  N   LIG    1       -0.776   3.278  -0.153  0.00  0.00    +0.380 N 
ATOM     18  H   LIG    1        0.138   3.668  -0.328  0.00  0.00    -0.082 HD
ATOM     19  C   LIG    1       -1.132   2.364  -1.244  0.00  0.00    -0.079 C 
ATOM     20  C   LIG    1       -1.075   3.110  -2.579  0.00  0.00    -0.018 C 
ATOM     21  C   LIG    1       -2.063   4.279  -2.547  0.00  0.00    +0.011 C 
ATOM     22  C   LIG    1       -1.727   5.187  -1.360  0.00  0.00    +0.081 C 
ATOM     23  C   LIG    1       -1.761   4.364  -0.070  0.00  0.00    -0.064 C 
BRANCH  22  24
ATOM     24  C   LIG    1       -2.740   6.299  -1.274  0.00  0.00    +0.306 C 
ATOM     25  O   LIG    1       -3.647   6.362  -2.087  0.00  0.00    -0.251 OA
BRANCH  24  26
ATOM     26  O   LIG    1       -2.653   7.137  -0.393  0.00  0.00    -0.480 OA
ATOM     27  H   LIG    1       -1.956   7.089   0.232  0.00  0.00    +0.295 HD
ENDBRANCH  24  26
ENDBRANCH  22  24
ENDBRANCH  16  17
ENDBRANCH  15  16
ENDBRANCH   2  15
TORSDOF 7
