REMARK  Name = ZINC03872286
REMARK                            x       y       z     vdW  Elec       q    Type
REMARK                         _______ _______ _______ _____ _____    ______ ____
ROOT
ATOM      1  N   LIG    1        3.423   2.162  -0.019  0.00  0.00    -0.288 N 
ATOM      2  C   LIG    1        2.869   3.407  -0.006  0.00  0.00    +0.203 A 
ATOM      3  N   LIG    1        1.571   3.317   0.005  0.00  0.00    -0.231 NA
ATOM      4  C   LIG    1        1.210   2.011   0.001  0.00  0.00    +0.147 A 
ATOM      5  C   LIG    1       -0.016   1.325   0.009  0.00  0.00    +0.147 A 
ATOM      6  N   LIG    1        0.002  -0.004   0.002  0.00  0.00    -0.219 NA
ATOM      7  C   LIG    1        1.141  -0.672  -0.012  0.00  0.00    +0.225 A 
ATOM      8  N   LIG    1        2.312  -0.072  -0.021  0.00  0.00    -0.216 NA
ATOM      9  C   LIG    1        2.394   1.254  -0.015  0.00  0.00    +0.167 A 
ENDROOT
BRANCH   1  14
ATOM     10  C   LIG    1        8.026   2.887   0.699  0.00  0.00    +0.040 C 
ATOM     11  C   LIG    1        6.842   3.083  -0.251  0.00  0.00    +0.146 C 
ATOM     12  C   LIG    1        6.856   1.989  -1.340  0.00  0.00    +0.147 C 
ATOM     13  C   LIG    1        5.346   1.654  -1.492  0.00  0.00    +0.088 C 
ATOM     14  C   LIG    1        4.854   1.849  -0.035  0.00  0.00    +0.225 C 
ATOM     15  O   LIG    1        5.612   2.958   0.473  0.00  0.00    -0.351 OA
BRANCH  12  16
ATOM     16  O   LIG    1        7.391   2.496  -2.564  0.00  0.00    -0.389 OA
ATOM     17  H   LIG    1        7.420   1.846  -3.279  0.00  0.00    +0.210 HD
ENDBRANCH  12  16
ENDBRANCH   1  14
BRANCH   5  18
ATOM     18  N   LIG    1       -1.214   2.017   0.019  0.00  0.00    -0.341 N 
ATOM     19  H   LIG    1       -1.214   2.987   0.024  0.00  0.00    +0.144 HD
ATOM     20  H   LIG    1       -1.743   1.780  -0.796  0.00  0.00    +0.144 HD
ENDBRANCH   5  18
TORSDOF 3
