REMARK  Name = ZINC03871453
REMARK                            x       y       z     vdW  Elec       q    Type
REMARK                         _______ _______ _______ _____ _____    ______ ____
ROOT
ATOM      1  C   LIG    1       -0.431   2.482   0.959  0.00  0.00    -0.020 C 
ATOM      2  C   LIG    1       -0.962   1.019   0.859  0.00  0.00    -0.009 C 
ATOM      3  C   LIG    1       -0.343   0.468  -0.462  0.00  0.00    +0.004 C 
ATOM      4  C   LIG    1       -1.079   1.229  -1.589  0.00  0.00    +0.002 C 
ATOM      5  C   LIG    1       -2.076   2.169  -0.844  0.00  0.00    -0.025 C 
ATOM      6  C   LIG    1       -2.442   1.278   0.396  0.00  0.00    +0.005 C 
ATOM      7  C   LIG    1       -1.171   3.255  -0.186  0.00  0.00    -0.068 C 
ENDROOT
BRANCH   7   8
ATOM      8  N   LIG    1       -0.202   3.772  -1.169  0.00  0.00    +0.380 N 
ATOM      9  H   LIG    1        0.537   3.074  -1.314  0.00  0.00    -0.090 HD
ATOM     10  H   LIG    1        0.217   4.635  -0.826  0.00  0.00    -0.090 HD
ATOM     11  H   LIG    1       -0.668   3.952  -2.057  0.00  0.00    -0.090 HD
ENDBRANCH   7   8
BRANCH   1  13
ATOM     12  C   LIG    1        1.612   3.919   1.034  0.00  0.00    +0.007 C 
ATOM     13  C   LIG    1        1.081   2.517   0.726  0.00  0.00    -0.015 C 
ATOM     14  C   LIG    1        1.762   1.501   1.645  0.00  0.00    +0.007 C 
ENDBRANCH   1  13
TORSDOF 2
