REMARK  Name = ZINC03815386
REMARK                            x       y       z     vdW  Elec       q    Type
REMARK                         _______ _______ _______ _____ _____    ______ ____
ROOT
ATOM      1  C   LIG    1       -4.654  -3.046  -0.302  0.00  0.00    +0.001 A 
ATOM      2  C   LIG    1       -4.525  -4.428  -0.415  0.00  0.00    +0.002 A 
ATOM      3  C   LIG    1       -3.298  -5.021  -0.425  0.00  0.00    +0.028 A 
ATOM      4  C   LIG    1       -2.146  -4.229  -0.321  0.00  0.00    +0.078 A 
ATOM      5  C   LIG    1       -2.279  -2.823  -0.206  0.00  0.00    +0.062 A 
ATOM      6  C   LIG    1       -1.101  -2.047  -0.102  0.00  0.00    +0.231 A 
ATOM      7  N   LIG    1        0.065  -2.674  -0.122  0.00  0.00    -0.201 NA
ATOM      8  C   LIG    1        0.142  -3.991  -0.226  0.00  0.00    +0.225 A 
ATOM      9  N   LIG    1       -0.915  -4.761  -0.326  0.00  0.00    -0.235 NA
ATOM     10  C   LIG    1       -3.554  -2.246  -0.199  0.00  0.00    +0.015 A 
ENDROOT
BRANCH   6  11
ATOM     11  O   LIG    1       -1.165  -0.701   0.010  0.00  0.00    -0.437 OA
BRANCH  11  12
ATOM     12  C   LIG    1        0.001  -0.003  -0.017  0.00  0.00    +0.131 A 
ATOM     13  C   LIG    1        0.717   0.110  -1.200  0.00  0.00    +0.046 A 
ATOM     14  C   LIG    1        1.902   0.819  -1.225  0.00  0.00    +0.005 A 
ATOM     15  C   LIG    1        2.375   1.418  -0.072  0.00  0.00    +0.015 A 
ATOM     16  C   LIG    1        1.664   1.308   1.109  0.00  0.00    +0.021 A 
ATOM     17 BR   LIG    1        2.314   2.127   2.684  0.00  0.00    -0.050 Br
ATOM     18  C   LIG    1        0.477   0.598   1.139  0.00  0.00    +0.061 A 
ENDBRANCH  11  12
ENDBRANCH   6  11
TORSDOF 2
