REMARK  Name = ZINC03828422
REMARK                            x       y       z     vdW  Elec       q    Type
REMARK                         _______ _______ _______ _____ _____    ______ ____
ROOT
ATOM      1  C   LIG    1        0.048  -2.826  -0.415  0.00  0.00    +0.108 C 
ATOM      2  C   LIG    1       -1.165  -2.249   0.330  0.00  0.00    +0.106 C 
ATOM      3  C   LIG    1       -1.249  -0.771   0.005  0.00  0.00    +0.167 C 
ATOM      4  C   LIG    1        0.002  -0.004   0.002  0.00  0.00    +0.042 A 
ATOM      5  C   LIG    1       -0.017   1.396   0.010  0.00  0.00    +0.062 A 
ATOM      6  C   LIG    1        1.171   2.095   0.002  0.00  0.00    +0.167 A 
ATOM      7  C   LIG    1        2.391   1.410  -0.012  0.00  0.00    +0.168 A 
ATOM      8  O   LIG    1        3.401   2.326  -0.017  0.00  0.00    -0.453 OA
ATOM      9  C   LIG    1        2.795   3.568  -0.420  0.00  0.00    +0.466 C 
ATOM     10  C   LIG    1        2.416   0.025  -0.018  0.00  0.00    +0.073 A 
ATOM     11  O   LIG    1        1.426   3.438   0.006  0.00  0.00    -0.453 OA
ATOM     12  C   LIG    1        1.230  -0.692  -0.011  0.00  0.00    +0.042 A 
ATOM     13  O   LIG    1       -2.312  -0.242  -0.245  0.00  0.00    -0.292 OA
ATOM     14  N   LIG    1        1.247  -2.082  -0.014  0.00  0.00    -0.336 N 
ATOM     15  H   LIG    1        2.050  -2.558   0.248  0.00  0.00    +0.147 HD
ENDROOT
BRANCH   1  18
ATOM     16  C   LIG    1       -0.114  -1.353  -3.888  0.00  0.00    +0.003 A 
ATOM     17  C   LIG    1        0.072  -1.478  -2.523  0.00  0.00    +0.005 A 
ATOM     18  C   LIG    1       -0.161  -2.690  -1.901  0.00  0.00    -0.024 A 
ATOM     19  C   LIG    1       -0.591  -3.776  -2.641  0.00  0.00    +0.043 A 
ATOM     20  C   LIG    1       -0.782  -3.650  -4.006  0.00  0.00    +0.124 A 
ATOM     21  F   LIG    1       -1.203  -4.711  -4.730  0.00  0.00    -0.205 F 
ATOM     22  C   LIG    1       -0.543  -2.437  -4.630  0.00  0.00    +0.038 A 
ENDBRANCH   1  18
TORSDOF 1
