REMARK  Name = ZINC03871852
REMARK                            x       y       z     vdW  Elec       q    Type
REMARK                         _______ _______ _______ _____ _____    ______ ____
ROOT
ATOM      1  C   LIG    1       -0.260   1.841   0.069  0.00  0.00    +0.027 C 
ATOM      2  C   LIG    1        0.155   0.372  -0.032  0.00  0.00    +0.108 C 
ATOM      3  C   LIG    1       -1.085  -0.562   0.097  0.00  0.00    +0.136 C 
ATOM      4  C   LIG    1       -0.581  -1.976  -0.322  0.00  0.00    +0.035 C 
ATOM      5  C   LIG    1        0.294  -2.400   0.885  0.00  0.00    +0.035 C 
ATOM      6  C   LIG    1        0.179  -1.175   1.841  0.00  0.00    +0.136 C 
ATOM      7  O   LIG    1       -1.192  -0.698   1.552  0.00  0.00    -0.371 OA
ATOM      8  C   LIG    1        1.021  -0.039   1.187  0.00  0.00    +0.108 C 
ATOM      9  C   LIG    1        1.212   1.143   2.139  0.00  0.00    +0.027 C 
ENDROOT
BRANCH   2  10
ATOM     10  C   LIG    1        0.891   0.115  -1.321  0.00  0.00    +0.314 C 
ATOM     11  O   LIG    1        1.496  -0.932  -1.479  0.00  0.00    -0.250 OA
BRANCH  10  12
ATOM     12  O   LIG    1        0.882   0.953  -2.206  0.00  0.00    -0.480 OA
ATOM     13  H   LIG    1        0.418   1.758  -2.084  0.00  0.00    +0.295 HD
ENDBRANCH  10  12
ENDBRANCH   2  10
BRANCH   8  14
ATOM     14  C   LIG    1        2.352  -0.583   0.736  0.00  0.00    +0.314 C 
ATOM     15  O   LIG    1        3.021   0.035  -0.074  0.00  0.00    -0.250 OA
BRANCH  14  16
ATOM     16  O   LIG    1        2.760  -1.642   1.182  0.00  0.00    -0.480 OA
ATOM     17  H   LIG    1        2.246  -2.117   1.805  0.00  0.00    +0.295 HD
ENDBRANCH  14  16
ENDBRANCH   8  14
TORSDOF 4
