REMARK  Name = ZINC03817105
REMARK                            x       y       z     vdW  Elec       q    Type
REMARK                         _______ _______ _______ _____ _____    ______ ____
ROOT
ATOM      1  C   LIG    1       -2.024   8.768  -3.010  0.00  0.00    +0.134 A 
ATOM      2  C   LIG    1       -1.462   7.911  -2.030  0.00  0.00    +0.041 A 
ATOM      3  C   LIG    1       -1.874   6.584  -1.885  0.00  0.00    +0.021 A 
ATOM      4  C   LIG    1       -1.290   5.795  -0.905  0.00  0.00    -0.024 A 
ATOM      5  C   LIG    1       -0.286   6.320  -0.074  0.00  0.00    +0.010 A 
ATOM      6  C   LIG    1        0.128   7.608  -0.209  0.00  0.00    +0.029 A 
ATOM      7  C   LIG    1       -0.449   8.431  -1.188  0.00  0.00    +0.076 A 
ATOM      8  N   LIG    1       -0.068   9.706  -1.352  0.00  0.00    -0.235 NA
ATOM      9  C   LIG    1       -0.623  10.454  -2.276  0.00  0.00    +0.223 A 
ATOM     10  N   LIG    1       -1.572  10.013  -3.086  0.00  0.00    -0.220 NA
ENDROOT
BRANCH   1  11
ATOM     11  N   LIG    1       -3.014   8.321  -3.859  0.00  0.00    -0.299 N 
ATOM     12  H   LIG    1       -3.281   7.388  -3.843  0.00  0.00    +0.154 HD
BRANCH  11  16
ATOM     13  C   LIG    1       -4.856  10.974  -6.494  0.00  0.00    +0.132 A 
ATOM     14  C   LIG    1       -4.418  11.419  -5.255  0.00  0.00    +0.048 A 
ATOM     15  C   LIG    1       -3.813  10.540  -4.379  0.00  0.00    +0.027 A 
ATOM     16  C   LIG    1       -3.632   9.212  -4.744  0.00  0.00    +0.033 A 
ATOM     17  C   LIG    1       -4.070   8.767  -5.984  0.00  0.00    +0.030 A 
ATOM     18  C   LIG    1       -4.680   9.646  -6.857  0.00  0.00    -0.006 A 
ATOM     19  C   LIG    1       -5.156   9.164  -8.203  0.00  0.00    +0.047 C 
BRANCH  13  20
ATOM     20  O   LIG    1       -5.456  11.839  -7.354  0.00  0.00    -0.454 OA
BRANCH  20  25
ATOM     21  C   LIG    1      -11.037  12.033  -7.205  0.00  0.00    +0.065 C 
ATOM     22  C   LIG    1       -9.532  12.000  -7.261  0.00  0.00    +0.038 A 
ATOM     23  C   LIG    1       -8.860  12.888  -8.080  0.00  0.00    +0.026 A 
ATOM     24  C   LIG    1       -7.476  12.851  -8.127  0.00  0.00    +0.049 A 
ATOM     25  C   LIG    1       -6.813  11.914  -7.341  0.00  0.00    +0.146 A 
ATOM     26  C   LIG    1       -7.557  11.052  -6.548  0.00  0.00    +0.157 A 
ATOM     27  N   LIG    1       -8.873  11.123  -6.529  0.00  0.00    -0.257 NA
ENDBRANCH  20  25
ENDBRANCH  13  20
ENDBRANCH  11  16
ENDBRANCH   1  11
BRANCH   4  28
ATOM     28  C   LIG    1       -1.721   4.392  -0.738  0.00  0.00    +0.005 C 
ATOM     29  C   LIG    1       -1.161   3.632   0.194  0.00  0.00    -0.008 C 
BRANCH  29  30
ATOM     30  C   LIG    1       -1.601   2.201   0.364  0.00  0.00    +0.131 C 
BRANCH  30  31
ATOM     31  N   LIG    1       -0.437   1.318   0.268  0.00  0.00    -0.310 N 
ATOM     32  H   LIG    1        0.444   1.692   0.112  0.00  0.00    +0.149 HD
ATOM     33  C   LIG    1       -0.591  -0.016   0.391  0.00  0.00    +0.239 C 
ATOM     34  O   LIG    1       -1.693  -0.483   0.586  0.00  0.00    -0.273 OA
BRANCH  33  35
ATOM     35  C   LIG    1        0.606  -0.925   0.285  0.00  0.00    +0.255 C 
BRANCH  35  36
ATOM     36  O   LIG    1        0.189  -2.282   0.448  0.00  0.00    -0.374 OA
ATOM     37  C   LIG    1        1.254  -3.232   0.365  0.00  0.00    +0.194 C 
ENDBRANCH  35  36
ENDBRANCH  33  35
ENDBRANCH  30  31
ENDBRANCH  29  30
ENDBRANCH   4  28
TORSDOF 9
