REMARK  Name = ZINC03782341
REMARK                            x       y       z     vdW  Elec       q    Type
REMARK                         _______ _______ _______ _____ _____    ______ ____
ROOT
ATOM      1  C   LIG    1       -4.342   4.949  -0.837  0.00  0.00    -0.066 C 
ENDROOT
BRANCH   1   5
ATOM      2  C   LIG    1       -7.736   4.664  -3.310  0.00  0.00    +0.006 C 
ATOM      3  C   LIG    1       -7.502   5.997  -2.596  0.00  0.00    -0.021 C 
ATOM      4  C   LIG    1       -6.534   5.788  -1.429  0.00  0.00    -0.075 C 
ATOM      5  N   LIG    1       -5.254   5.267  -1.955  0.00  0.00    +0.380 N 
ATOM      6  H   LIG    1       -5.438   4.410  -2.489  0.00  0.00    -0.082 HD
ATOM      7  C   LIG    1       -4.629   6.264  -2.849  0.00  0.00    -0.078 C 
ATOM      8  C   LIG    1       -5.540   6.487  -4.058  0.00  0.00    -0.007 C 
ATOM      9  C   LIG    1       -6.899   7.005  -3.579  0.00  0.00    -0.008 C 
ATOM     10  C   LIG    1       -6.717   8.354  -2.880  0.00  0.00    +0.016 C 
BRANCH   9  11
ATOM     11  C   LIG    1       -7.821   7.169  -4.760  0.00  0.00    -0.038 A 
ATOM     12  C   LIG    1       -7.388   6.823  -6.027  0.00  0.00    +0.004 A 
ATOM     13  C   LIG    1       -8.233   6.968  -7.112  0.00  0.00    +0.004 A 
ATOM     14  C   LIG    1       -9.508   7.470  -6.934  0.00  0.00    +0.045 A 
ATOM     15  C   LIG    1       -9.942   7.823  -5.664  0.00  0.00    +0.117 A 
ATOM     16  C   LIG    1       -9.094   7.671  -4.577  0.00  0.00    +0.049 A 
BRANCH  15  17
ATOM     17  O   LIG    1      -11.196   8.316  -5.487  0.00  0.00    -0.507 OA
ATOM     18  H   LIG    1      -11.254   9.278  -5.559  0.00  0.00    +0.292 HD
ENDBRANCH  15  17
ENDBRANCH   9  11
ENDBRANCH   1   5
BRANCH   1  19
ATOM     19  C   LIG    1       -3.122   4.210  -1.391  0.00  0.00    +0.063 C 
BRANCH  19  20
ATOM     20  C   LIG    1       -3.557   2.891  -1.975  0.00  0.00    +0.215 C 
ATOM     21  N   LIG    1       -4.043   2.837  -3.231  0.00  0.00    -0.305 N 
ATOM     22  H   LIG    1       -4.112   3.648  -3.759  0.00  0.00    +0.149 HD
ATOM     23  O   LIG    1       -3.470   1.877  -1.315  0.00  0.00    -0.276 OA
BRANCH  21  24
ATOM     24  C   LIG    1       -4.465   1.554  -3.799  0.00  0.00    +0.224 C 
BRANCH  24  25
ATOM     25  C   LIG    1       -4.965   1.767  -5.204  0.00  0.00    +0.322 C 
ATOM     26  O   LIG    1       -4.968   2.876  -5.683  0.00  0.00    -0.249 OA
BRANCH  25  27
ATOM     27  O   LIG    1       -5.407   0.724  -5.925  0.00  0.00    -0.480 OA
ATOM     28  H   LIG    1       -5.405  -0.136  -5.553  0.00  0.00    +0.295 HD
ENDBRANCH  25  27
ENDBRANCH  24  25
ENDBRANCH  21  24
ENDBRANCH  19  20
BRANCH  19  29
ATOM     29  C   LIG    1       -2.119   3.963  -0.263  0.00  0.00    +0.046 C 
BRANCH  29  30
ATOM     30  C   LIG    1       -1.640   5.284   0.282  0.00  0.00    -0.047 A 
ATOM     31  C   LIG    1       -0.606   5.955  -0.343  0.00  0.00    +0.003 A 
ATOM     32  C   LIG    1       -0.162   7.164   0.160  0.00  0.00    +0.000 A 
ATOM     33  C   LIG    1       -0.760   7.707   1.281  0.00  0.00    +0.000 A 
ATOM     34  C   LIG    1       -1.798   7.039   1.903  0.00  0.00    +0.000 A 
ATOM     35  C   LIG    1       -2.238   5.827   1.403  0.00  0.00    +0.003 A 
ENDBRANCH  29  30
ENDBRANCH  19  29
ENDBRANCH   1  19
TORSDOF 10
