REMARK  Name = ZINC03861066
REMARK                            x       y       z     vdW  Elec       q    Type
REMARK                         _______ _______ _______ _____ _____    ______ ____
ROOT
ATOM      1  C   LIG    1       -0.013   1.076   0.008  0.00  0.00    +0.032 A 
ATOM      2  C   LIG    1        1.176   1.783   0.000  0.00  0.00    +0.016 A 
ATOM      3  I   LIG    1        3.003   0.758  -0.023  0.00  0.00    -0.044 I 
ATOM      4  C   LIG    1        1.161   3.166   0.008  0.00  0.00    +0.032 A 
ATOM      5  C   LIG    1       -0.043   3.845   0.023  0.00  0.00    +0.057 A 
ATOM      6  I   LIG    1       -0.066   5.939   0.035  0.00  0.00    -0.040 I 
ATOM      7  C   LIG    1       -1.237   3.137   0.031  0.00  0.00    +0.143 A 
ATOM      8  C   LIG    1       -1.219   1.750   0.017  0.00  0.00    +0.057 A 
ATOM      9  I   LIG    1       -3.019   0.678   0.020  0.00  0.00    -0.040 I 
ENDROOT
BRANCH   7  10
ATOM     10  O   LIG    1       -2.422   3.803   0.046  0.00  0.00    -0.505 OA
ATOM     11  H   LIG    1       -2.774   4.000  -0.833  0.00  0.00    +0.292 HD
ENDBRANCH   7  10
TORSDOF 1
