REMARK  Name = ZINC03782839
REMARK                            x       y       z     vdW  Elec       q    Type
REMARK                         _______ _______ _______ _____ _____    ______ ____
ROOT
ATOM      1  C   LIG    1       -2.332   0.888   1.126  0.00  0.00    -0.064 C 
ATOM      2  C   LIG    1       -0.866   1.319   1.244  0.00  0.00    -0.010 C 
ATOM      3  C   LIG    1       -0.135   0.892  -0.027  0.00  0.00    +0.034 C 
ATOM      4  C   LIG    1       -0.878   1.363  -1.251  0.00  0.00    -0.044 A 
ATOM      5  C   LIG    1       -0.179   1.398  -2.457  0.00  0.00    +0.006 A 
ATOM      6  C   LIG    1       -0.785   1.811  -3.620  0.00  0.00    +0.026 A 
ATOM      7  C   LIG    1       -2.119   2.203  -3.601  0.00  0.00    +0.047 A 
ATOM      8  C   LIG    1       -2.821   2.169  -2.389  0.00  0.00    +0.013 A 
ATOM      9  C   LIG    1       -4.187   2.635  -2.700  0.00  0.00    +0.039 A 
ATOM     10  C   LIG    1       -4.200   2.909  -4.052  0.00  0.00    +0.094 A 
ATOM     11  N   LIG    1       -2.985   2.654  -4.576  0.00  0.00    -0.360 N 
ATOM     12  H   LIG    1       -2.752   2.771  -5.510  0.00  0.00    +0.165 HD
ATOM     13  C   LIG    1       -2.194   1.750  -1.211  0.00  0.00    -0.036 A 
ATOM     14  C   LIG    1       -3.002   1.752   0.060  0.00  0.00    +0.021 C 
ENDROOT
BRANCH   1  15
ATOM     15  N   LIG    1       -2.994   1.066   2.435  0.00  0.00    +0.382 N 
ATOM     16  H   LIG    1       -2.429   0.607   3.160  0.00  0.00    -0.081 HD
BRANCH  15  17
ATOM     17  C   LIG    1       -3.107   2.505   2.754  0.00  0.00    -0.079 C 
BRANCH  17  19
ATOM     18  C   LIG    1       -3.687   4.140   4.551  0.00  0.00    +0.002 C 
ATOM     19  C   LIG    1       -3.586   2.655   4.199  0.00  0.00    -0.022 C 
ENDBRANCH  17  19
ENDBRANCH  15  17
BRANCH  15  20
ATOM     20  C   LIG    1       -4.337   0.448   2.410  0.00  0.00    -0.079 C 
BRANCH  20  21
ATOM     21  C   LIG    1       -4.181  -1.068   2.550  0.00  0.00    -0.022 C 
ATOM     22  C   LIG    1       -5.562  -1.712   2.692  0.00  0.00    +0.002 C 
ENDBRANCH  20  21
ENDBRANCH  15  20
ENDBRANCH   1  15
BRANCH   9  23
ATOM     23  C   LIG    1       -5.267   2.775  -1.793  0.00  0.00    +0.260 C 
ATOM     24  O   LIG    1       -6.342   3.179  -2.187  0.00  0.00    -0.296 OA
ENDBRANCH   9  23
TORSDOF 6
