REMARK  Name = ZINC03825191
REMARK                            x       y       z     vdW  Elec       q    Type
REMARK                         _______ _______ _______ _____ _____    ______ ____
ROOT
ATOM      1  N   LIG    1        7.124   4.878   0.252  0.00  0.00    -0.347 N 
ATOM      2  C   LIG    1        6.103   3.994   0.159  0.00  0.00    +0.098 A 
ATOM      3  C   LIG    1        4.911   4.662   0.181  0.00  0.00    +0.047 A 
ATOM      4  C   LIG    1        5.238   6.094   0.309  0.00  0.00    +0.011 A 
ATOM      5  C   LIG    1        4.475   7.256   0.389  0.00  0.00    +0.011 A 
ATOM      6  C   LIG    1        5.103   8.477   0.507  0.00  0.00    +0.001 A 
ATOM      7  C   LIG    1        6.488   8.551   0.545  0.00  0.00    +0.002 A 
ATOM      8  C   LIG    1        7.254   7.409   0.467  0.00  0.00    +0.026 A 
ATOM      9  C   LIG    1        6.639   6.167   0.348  0.00  0.00    +0.050 A 
ENDROOT
BRANCH   3  10
ATOM     10  C   LIG    1        3.570   4.069   0.100  0.00  0.00    +0.196 C 
ATOM     11  O   LIG    1        2.589   4.788   0.046  0.00  0.00    -0.287 OA
BRANCH  10  12
ATOM     12  C   LIG    1        3.412   2.603   0.083  0.00  0.00    +0.030 A 
ATOM     13  C   LIG    1        2.975   1.923   1.213  0.00  0.00    +0.012 A 
ATOM     14  C   LIG    1        2.828   0.544   1.194  0.00  0.00    +0.001 A 
ATOM     15  C   LIG    1        3.099  -0.193   0.082  0.00  0.00    +0.008 A 
ATOM     16  C   LIG    1        3.544   0.428  -1.097  0.00  0.00    -0.017 A 
ATOM     17  C   LIG    1        3.829  -0.319  -2.254  0.00  0.00    +0.008 A 
ATOM     18  C   LIG    1        4.259   0.319  -3.377  0.00  0.00    +0.001 A 
ATOM     19  C   LIG    1        4.421   1.702  -3.400  0.00  0.00    +0.001 A 
ATOM     20  C   LIG    1        4.154   2.457  -2.297  0.00  0.00    +0.009 A 
ATOM     21  C   LIG    1        3.710   1.834  -1.124  0.00  0.00    -0.007 A 
ENDBRANCH  10  12
ENDBRANCH   3  10
BRANCH   1  22
ATOM     22  C   LIG    1        8.544   4.518   0.255  0.00  0.00    +0.106 C 
BRANCH  22  26
ATOM     23  C   LIG    1       10.582   2.676   0.868  0.00  0.00    -0.096 C 
ATOM     24  N   LIG    1       10.434   3.899   1.684  0.00  0.00    +0.381 N 
ATOM     25  H   LIG    1       11.005   4.646   1.272  0.00  0.00    -0.082 HD
ATOM     26  C   LIG    1        9.019   4.329   1.697  0.00  0.00    -0.049 C 
ATOM     27  C   LIG    1        8.912   5.659   2.447  0.00  0.00    -0.014 C 
ATOM     28  C   LIG    1        9.407   5.471   3.884  0.00  0.00    -0.003 C 
ATOM     29  C   LIG    1       10.848   4.954   3.855  0.00  0.00    -0.019 C 
ATOM     30  C   LIG    1       10.899   3.645   3.064  0.00  0.00    -0.079 C 
ENDBRANCH  22  26
ENDBRANCH   1  22
TORSDOF 4
