REMARK  Name = ZINC03872370
REMARK                            x       y       z     vdW  Elec       q    Type
REMARK                         _______ _______ _______ _____ _____    ______ ____
ROOT
ATOM      1  C   LIG    1       -0.017   1.378   0.010  0.00  0.00    +0.053 A 
ATOM      2  C   LIG    1        1.170   2.101   0.002  0.00  0.00    -0.041 A 
ATOM      3  C   LIG    1        2.376   1.437  -0.016  0.00  0.00    -0.042 A 
ATOM      4  C   LIG    1        3.698   2.159  -0.041  0.00  0.00    +0.019 C 
ATOM      5  C   LIG    1        3.526   3.612   0.395  0.00  0.00    -0.071 C 
ATOM      6  C   LIG    1        2.391   4.233  -0.428  0.00  0.00    -0.011 C 
ATOM      7  C   LIG    1        2.399   0.048  -0.020  0.00  0.00    +0.053 A 
ATOM      8  C   LIG    1        1.222  -0.675  -0.011  0.00  0.00    +0.158 A 
ATOM      9  C   LIG    1        1.073   3.605   0.019  0.00  0.00    +0.034 C 
ATOM     10  C   LIG    1        0.002  -0.004   0.002  0.00  0.00    +0.158 A 
ENDROOT
BRANCH   5  11
ATOM     11  N   LIG    1        4.772   4.352   0.157  0.00  0.00    +0.380 N 
ATOM     12  H   LIG    1        5.520   3.930   0.687  0.00  0.00    -0.090 HD
ATOM     13  H   LIG    1        4.655   5.311   0.446  0.00  0.00    -0.090 HD
ATOM     14  H   LIG    1        4.998   4.322  -0.826  0.00  0.00    -0.090 HD
ENDBRANCH   5  11
BRANCH   8  15
ATOM     15  O   LIG    1        1.254  -2.035  -0.017  0.00  0.00    -0.503 OA
ATOM     16  H   LIG    1        1.271  -2.431   0.865  0.00  0.00    +0.292 HD
ENDBRANCH   8  15
BRANCH  10  17
ATOM     17  O   LIG    1       -1.164  -0.704   0.007  0.00  0.00    -0.503 OA
ATOM     18  H   LIG    1       -1.508  -0.902  -0.875  0.00  0.00    +0.292 HD
ENDBRANCH  10  17
TORSDOF 3
