REMARK  Name = ZINC03809190
REMARK                            x       y       z     vdW  Elec       q    Type
REMARK                         _______ _______ _______ _____ _____    ______ ____
ROOT
ATOM      1  C   LIG    1        4.931   9.813   1.231  0.00  0.00    +0.159 C 
ENDROOT
BRANCH   1   2
ATOM      2  C   LIG    1        5.373  10.418   2.538  0.00  0.00    +0.237 C 
ATOM      3  N   LIG    1        6.441  11.239   2.574  0.00  0.00    -0.288 N 
ATOM      4  C   LIG    1        7.265  11.628   1.415  0.00  0.00    +0.109 C 
ATOM      5  C   LIG    1        8.638  12.019   2.018  0.00  0.00    +0.021 C 
ATOM      6  C   LIG    1        8.212  12.712   3.339  0.00  0.00    +0.033 C 
ATOM      7  C   LIG    1        6.974  11.900   3.774  0.00  0.00    +0.162 C 
ATOM      8  O   LIG    1        4.766  10.167   3.558  0.00  0.00    -0.274 OA
BRANCH   7   9
ATOM      9  C   LIG    1        5.933  12.821   4.357  0.00  0.00    +0.231 C 
ATOM     10  N   LIG    1        6.208  13.533   5.468  0.00  0.00    -0.328 N 
ATOM     11  H   LIG    1        5.538  14.125   5.843  0.00  0.00    +0.145 HD
ATOM     12  H   LIG    1        7.077  13.452   5.892  0.00  0.00    +0.145 HD
ATOM     13  O   LIG    1        4.846  12.921   3.827  0.00  0.00    -0.274 OA
ENDBRANCH   7   9
ENDBRANCH   1   2
BRANCH   1  15
ATOM     14  C   LIG    1        3.916   7.686   1.848  0.00  0.00    +0.248 C 
ATOM     15  N   LIG    1        3.758   8.966   1.456  0.00  0.00    -0.300 N 
ATOM     16  H   LIG    1        2.867   9.326   1.324  0.00  0.00    +0.150 HD
ATOM     17  O   LIG    1        5.033   7.234   2.013  0.00  0.00    -0.270 OA
BRANCH  14  25
ATOM     18  C   LIG    1       -0.496   3.154   3.096  0.00  0.00    +0.001 A 
ATOM     19  C   LIG    1        0.772   2.616   3.298  0.00  0.00    +0.001 A 
ATOM     20  C   LIG    1        1.891   3.368   3.100  0.00  0.00    +0.012 A 
ATOM     21  C   LIG    1        1.766   4.706   2.693  0.00  0.00    +0.024 A 
ATOM     22  C   LIG    1        0.475   5.255   2.493  0.00  0.00    -0.014 A 
ATOM     23  C   LIG    1        0.343   6.596   2.084  0.00  0.00    +0.009 A 
ATOM     24  C   LIG    1        1.445   7.361   1.882  0.00  0.00    +0.017 A 
ATOM     25  C   LIG    1        2.735   6.834   2.074  0.00  0.00    +0.079 A 
ATOM     26  C   LIG    1        2.903   5.511   2.479  0.00  0.00    +0.137 A 
ATOM     27  C   LIG    1       -0.655   4.449   2.706  0.00  0.00    +0.008 A 
BRANCH  26  28
ATOM     28  O   LIG    1        4.145   5.005   2.665  0.00  0.00    -0.505 OA
ATOM     29  H   LIG    1        4.528   4.601   1.874  0.00  0.00    +0.292 HD
ENDBRANCH  26  28
ENDBRANCH  14  25
ENDBRANCH   1  15
BRANCH   1  30
ATOM     30  C   LIG    1        4.574  10.928   0.247  0.00  0.00    +0.035 C 
BRANCH  30  31
ATOM     31  C   LIG    1        4.246  10.319  -1.118  0.00  0.00    +0.039 C 
BRANCH  31  32
ATOM     32  C   LIG    1        3.888  11.435  -2.102  0.00  0.00    +0.196 C 
BRANCH  32  33
ATOM     33  N   LIG    1        3.574  10.851  -3.409  0.00  0.00    -0.279 N 
ATOM     34  H   LIG    1        3.615   9.890  -3.533  0.00  0.00    +0.258 HD
BRANCH  33  35
ATOM     35  C   LIG    1        3.222  11.666  -4.459  0.00  0.00    +0.341 C 
ATOM     36  N   LIG    1        3.185  12.970  -4.224  0.00  0.00    -0.292 N 
ATOM     37  H   LIG    1        3.414  13.330  -3.290  0.00  0.00    +0.255 HD
ATOM     38  H   LIG    1        2.929  13.615  -4.971  0.00  0.00    +0.255 HD
BRANCH  35  39
ATOM     39  N   LIG    1        2.928  11.118  -5.685  0.00  0.00    -0.292 N 
ATOM     40  H   LIG    1        2.679  11.693  -6.426  0.00  0.00    +0.255 HD
ATOM     41  H   LIG    1        2.968  10.157  -5.809  0.00  0.00    +0.255 HD
ENDBRANCH  35  39
ENDBRANCH  33  35
ENDBRANCH  32  33
ENDBRANCH  31  32
ENDBRANCH  30  31
ENDBRANCH   1  30
TORSDOF 11
