REMARK  Name = ZINC03830212
REMARK                            x       y       z     vdW  Elec       q    Type
REMARK                         _______ _______ _______ _____ _____    ______ ____
ROOT
ATOM      1  C   LIG    1        2.383   3.628   3.857  0.00  0.00    +0.025 A 
ATOM      2  C   LIG    1        2.902   2.955   4.966  0.00  0.00    +0.029 A 
ATOM      3  C   LIG    1        3.891   3.542   5.724  0.00  0.00    +0.057 A 
ATOM      4  I   LIG    1        4.677   2.530   7.382  0.00  0.00    -0.040 I 
ATOM      5  C   LIG    1        4.365   4.806   5.394  0.00  0.00    +0.147 A 
ATOM      6  C   LIG    1        3.848   5.482   4.294  0.00  0.00    +0.057 A 
ATOM      7  I   LIG    1        4.568   7.386   3.802  0.00  0.00    -0.040 I 
ATOM      8  C   LIG    1        2.863   4.899   3.527  0.00  0.00    +0.029 A 
ENDROOT
BRANCH   1   9
ATOM      9  C   LIG    1        1.327   3.001   3.038  0.00  0.00    +0.197 C 
ATOM     10  O   LIG    1        0.943   3.545   2.019  0.00  0.00    -0.287 OA
BRANCH   9  12
ATOM     11  C   LIG    1       -0.293   1.531   4.323  0.00  0.00    +0.117 A 
ATOM     12  C   LIG    1        0.739   1.720   3.453  0.00  0.00    +0.071 A 
ATOM     13  C   LIG    1        1.143   0.369   3.014  0.00  0.00    +0.031 A 
ATOM     14  C   LIG    1        2.116  -0.120   2.148  0.00  0.00    +0.012 A 
ATOM     15  C   LIG    1        2.233  -1.479   1.952  0.00  0.00    +0.001 A 
ATOM     16  C   LIG    1        1.388  -2.355   2.616  0.00  0.00    +0.004 A 
ATOM     17  C   LIG    1        0.420  -1.882   3.476  0.00  0.00    +0.047 A 
ATOM     18  C   LIG    1        0.286  -0.515   3.686  0.00  0.00    +0.136 A 
ATOM     19  O   LIG    1       -0.543   0.223   4.453  0.00  0.00    -0.459 OA
BRANCH  11  20
ATOM     20  C   LIG    1       -1.036   2.631   5.036  0.00  0.00    +0.075 C 
BRANCH  20  21
ATOM     21  C   LIG    1       -2.224   3.079   4.183  0.00  0.00    +0.007 C 
BRANCH  21  23
ATOM     22  C   LIG    1       -4.168   4.645   4.055  0.00  0.00    +0.004 C 
ATOM     23  C   LIG    1       -2.979   4.196   4.908  0.00  0.00    -0.003 C 
ENDBRANCH  21  23
ENDBRANCH  20  21
ENDBRANCH  11  20
ENDBRANCH   9  12
ENDBRANCH   1   9
BRANCH   5  24
ATOM     24  O   LIG    1        5.336   5.383   6.147  0.00  0.00    -0.492 OA
BRANCH  24  25
ATOM     25  C   LIG    1        4.911   6.187   7.250  0.00  0.00    +0.211 C 
BRANCH  25  26
ATOM     26  C   LIG    1        6.136   6.748   7.974  0.00  0.00    -0.037 C 
BRANCH  26  27
ATOM     27  N   LIG    1        6.861   7.652   7.056  0.00  0.00    +0.382 N 
ATOM     28  H   LIG    1        7.032   7.160   6.171  0.00  0.00    -0.082 HD
BRANCH  27  29
ATOM     29  C   LIG    1        8.158   8.040   7.648  0.00  0.00    -0.082 C 
ATOM     30  C   LIG    1        9.027   8.671   6.559  0.00  0.00    -0.017 C 
ENDBRANCH  27  29
BRANCH  27  31
ATOM     31  C   LIG    1        6.048   8.856   6.785  0.00  0.00    -0.082 C 
ATOM     32  C   LIG    1        5.823   9.652   8.073  0.00  0.00    -0.017 C 
ENDBRANCH  27  31
ENDBRANCH  26  27
ENDBRANCH  25  26
ENDBRANCH  24  25
ENDBRANCH   5  24
TORSDOF 11
