REMARK  Name = ZINC03635496
REMARK                            x       y       z     vdW  Elec       q    Type
REMARK                         _______ _______ _______ _____ _____    ______ ____
ROOT
ATOM      1  C   LIG    1       -1.198   2.334   0.021  0.00  0.00    +0.249 C 
ATOM      2  O   LIG    1       -2.310   1.843   0.024  0.00  0.00    -0.282 OA
ENDROOT
BRANCH   1   3
ATOM      3  C   LIG    1       -0.018   1.472   0.010  0.00  0.00    +0.052 A 
ATOM      4  C   LIG    1        1.304   1.874  -0.000  0.00  0.00    +0.095 A 
ATOM      5  N   LIG    1        2.105   0.793  -0.014  0.00  0.00    -0.360 N 
ATOM      6  C   LIG    1        1.358  -0.369  -0.013  0.00  0.00    +0.047 A 
ATOM      7  C   LIG    1        1.700  -1.717  -0.023  0.00  0.00    +0.026 A 
ATOM      8  C   LIG    1        0.711  -2.678  -0.018  0.00  0.00    +0.002 A 
ATOM      9  C   LIG    1       -0.627  -2.315  -0.003  0.00  0.00    +0.001 A 
ATOM     10  C   LIG    1       -0.986  -0.984   0.007  0.00  0.00    +0.011 A 
ATOM     11  H   LIG    1        3.074   0.825  -0.023  0.00  0.00    +0.165 HD
ATOM     12  C   LIG    1        0.002  -0.004   0.002  0.00  0.00    +0.011 A 
ENDBRANCH   1   3
BRANCH   1  15
ATOM     13  N   LIG    1       -2.127   4.612   0.038  0.00  0.00    -0.309 N 
ATOM     14  H   LIG    1       -3.014   4.220   0.040  0.00  0.00    +0.149 HD
ATOM     15  C   LIG    1       -1.038   3.817   0.028  0.00  0.00    +0.285 C 
ATOM     16  O   LIG    1        0.072   4.308   0.025  0.00  0.00    -0.267 OA
BRANCH  13  17
ATOM     17  C   LIG    1       -1.970   6.069   0.045  0.00  0.00    +0.104 C 
BRANCH  17  18
ATOM     18  C   LIG    1       -3.349   6.730   0.055  0.00  0.00    +0.018 C 
BRANCH  18  20
ATOM     19  C   LIG    1       -4.565   8.913   0.073  0.00  0.00    +0.004 C 
ATOM     20  C   LIG    1       -3.185   8.252   0.063  0.00  0.00    -0.002 C 
ENDBRANCH  18  20
ENDBRANCH  17  18
ENDBRANCH  13  17
ENDBRANCH   1  15
TORSDOF 5
