REMARK  Name = ZINC03780340
REMARK                            x       y       z     vdW  Elec       q    Type
REMARK                         _______ _______ _______ _____ _____    ______ ____
ROOT
ATOM      1  C   LIG    1       -0.018   1.502   0.010  0.00  0.00    +0.044 C 
ATOM      2  C   LIG    1        0.002  -0.004   0.002  0.00  0.00    -0.039 A 
ATOM      3  C   LIG    1       -0.055  -0.626  -1.232  0.00  0.00    +0.050 A 
ATOM      4  C   LIG    1        0.042  -2.008  -1.358  0.00  0.00    +0.129 A 
ATOM      5  C   LIG    1        0.269  -2.787  -0.220  0.00  0.00    +0.072 A 
ATOM      6  C   LIG    1        0.328  -2.147   1.035  0.00  0.00    +0.006 A 
ATOM      7  C   LIG    1        0.760  -2.902   2.206  0.00  0.00    +0.000 A 
ATOM      8  C   LIG    1        1.058  -4.326   2.109  0.00  0.00    +0.009 A 
ATOM      9  C   LIG    1        1.579  -5.012   3.228  0.00  0.00    +0.036 A 
ATOM     10  C   LIG    1        2.042  -4.239   4.382  0.00  0.00    +0.036 A 
ATOM     11  C   LIG    1        1.576  -2.913   4.540  0.00  0.00    +0.009 A 
ATOM     12  C   LIG    1        1.764  -2.224   5.761  0.00  0.00    +0.072 A 
ATOM     13  C   LIG    1        2.551  -2.814   6.757  0.00  0.00    +0.132 A 
ATOM     14  C   LIG    1        3.147  -4.048   6.526  0.00  0.00    +0.092 A 
ATOM     15  C   LIG    1        1.144  -0.908   5.956  0.00  0.00    +0.201 C 
ATOM     16  O   LIG    1        1.319  -0.296   6.995  0.00  0.00    -0.286 OA
ATOM     17  C   LIG    1        0.315  -0.327   4.890  0.00  0.00    +0.072 A 
ATOM     18  C   LIG    1        0.312  -0.922   3.612  0.00  0.00    +0.006 A 
ATOM     19  C   LIG    1       -0.301  -0.279   2.507  0.00  0.00    -0.005 A 
ATOM     20  C   LIG    1       -1.266   0.675   2.821  0.00  0.00    -0.039 A 
ATOM     21  C   LIG    1       -2.407   0.997   1.886  0.00  0.00    +0.044 C 
ATOM     22  C   LIG    1       -1.287   1.266   4.067  0.00  0.00    +0.050 A 
ATOM     23  C   LIG    1       -0.471   0.809   5.099  0.00  0.00    +0.129 A 
ATOM     24  C   LIG    1        2.941  -4.733   5.340  0.00  0.00    +0.129 A 
ATOM     25  C   LIG    1        1.620  -6.415   3.180  0.00  0.00    +0.129 A 
ATOM     26  C   LIG    1        1.394  -7.079   1.987  0.00  0.00    +0.092 A 
ATOM     27  C   LIG    1        1.030  -6.390   0.837  0.00  0.00    +0.132 A 
ATOM     28  C   LIG    1        0.845  -5.002   0.886  0.00  0.00    +0.072 A 
ATOM     29  C   LIG    1        0.880  -2.255   3.441  0.00  0.00    +0.000 A 
ATOM     30  C   LIG    1        0.437  -4.244  -0.303  0.00  0.00    +0.201 C 
ATOM     31  O   LIG    1        0.236  -4.822  -1.356  0.00  0.00    -0.286 OA
ATOM     32  C   LIG    1        0.024  -0.767   1.165  0.00  0.00    -0.005 A 
ENDROOT
BRANCH   4  33
ATOM     33  O   LIG    1       -0.084  -2.583  -2.578  0.00  0.00    -0.506 OA
ATOM     34  H   LIG    1        0.751  -2.678  -3.056  0.00  0.00    +0.292 HD
ENDBRANCH   4  33
BRANCH  13  35
ATOM     35  O   LIG    1        2.739  -2.195   7.947  0.00  0.00    -0.506 OA
ATOM     36  H   LIG    1        2.079  -2.421   8.617  0.00  0.00    +0.292 HD
ENDBRANCH  13  35
BRANCH  23  37
ATOM     37  O   LIG    1       -0.451   1.462   6.284  0.00  0.00    -0.506 OA
ATOM     38  H   LIG    1       -1.102   1.140   6.922  0.00  0.00    +0.292 HD
ENDBRANCH  23  37
BRANCH  24  39
ATOM     39  O   LIG    1        3.680  -5.846   5.107  0.00  0.00    -0.506 OA
ATOM     40  H   LIG    1        4.537  -5.670   4.694  0.00  0.00    +0.292 HD
ENDBRANCH  24  39
BRANCH  25  41
ATOM     41  O   LIG    1        1.809  -7.154   4.301  0.00  0.00    -0.506 OA
ATOM     42  H   LIG    1        0.991  -7.399   4.754  0.00  0.00    +0.292 HD
ENDBRANCH  25  41
BRANCH  27  43
ATOM     43  O   LIG    1        0.859  -7.070  -0.322  0.00  0.00    -0.506 OA
ATOM     44  H   LIG    1       -0.043  -7.388  -0.461  0.00  0.00    +0.292 HD
ENDBRANCH  27  43
TORSDOF 6
