REMARK  Name = ZINC03810860
REMARK                            x       y       z     vdW  Elec       q    Type
REMARK                         _______ _______ _______ _____ _____    ______ ____
ROOT
ATOM      1  C   LIG    1       -1.293  -0.774   0.011  0.00  0.00    +0.123 C 
ATOM      2  C   LIG    1       -1.672  -1.293   1.398  0.00  0.00    +0.101 C 
ATOM      3  C   LIG    1       -1.478  -2.630   0.732  0.00  0.00    +0.226 C 
ATOM      4  O   LIG    1       -1.585  -3.764   1.149  0.00  0.00    -0.275 OA
ATOM      5  N   LIG    1       -1.148  -2.146  -0.477  0.00  0.00    -0.263 N 
ENDROOT
BRANCH   5   6
ATOM      6  C   LIG    1       -0.804  -2.722  -1.706  0.00  0.00    +0.037 A 
ATOM      7  C   LIG    1       -0.503  -1.913  -2.794  0.00  0.00    +0.026 A 
ATOM      8  C   LIG    1       -0.164  -2.483  -4.005  0.00  0.00    +0.040 A 
ATOM      9  C   LIG    1       -0.124  -3.861  -4.136  0.00  0.00    +0.124 A 
ATOM     10  F   LIG    1        0.207  -4.417  -5.322  0.00  0.00    -0.205 F 
ATOM     11  C   LIG    1       -0.423  -4.670  -3.052  0.00  0.00    +0.040 A 
ATOM     12  C   LIG    1       -0.757  -4.104  -1.838  0.00  0.00    +0.026 A 
ENDBRANCH   5   6
BRANCH   1  18
ATOM     13  C   LIG    1       -0.017   1.378   0.010  0.00  0.00    +0.009 A 
ATOM     14  C   LIG    1        1.169   2.087   0.002  0.00  0.00    +0.046 A 
ATOM     15  C   LIG    1        2.380   1.409  -0.013  0.00  0.00    +0.117 A 
ATOM     16  C   LIG    1        2.396   0.022  -0.021  0.00  0.00    +0.046 A 
ATOM     17  C   LIG    1        1.207  -0.681  -0.013  0.00  0.00    +0.009 A 
ATOM     18  C   LIG    1        0.002  -0.004   0.002  0.00  0.00    -0.026 A 
BRANCH  15  19
ATOM     19  O   LIG    1        3.548   2.104  -0.021  0.00  0.00    -0.507 OA
ATOM     20  H   LIG    1        3.895   2.300   0.860  0.00  0.00    +0.292 HD
ENDBRANCH  15  19
ENDBRANCH   1  18
BRANCH   2  21
ATOM     21  C   LIG    1       -3.114  -0.996   1.812  0.00  0.00    +0.018 C 
BRANCH  21  22
ATOM     22  C   LIG    1       -3.335  -1.450   3.256  0.00  0.00    +0.037 C 
BRANCH  22  23
ATOM     23  C   LIG    1       -4.777  -1.153   3.670  0.00  0.00    +0.145 C 
BRANCH  23  24
ATOM     24  C   LIG    1       -5.030  -1.710   5.047  0.00  0.00    -0.019 A 
ATOM     25  C   LIG    1       -4.701  -0.966   6.165  0.00  0.00    +0.009 A 
ATOM     26  C   LIG    1       -4.933  -1.476   7.428  0.00  0.00    +0.039 A 
ATOM     27  C   LIG    1       -5.494  -2.733   7.574  0.00  0.00    +0.123 A 
ATOM     28  F   LIG    1       -5.721  -3.233   8.809  0.00  0.00    -0.205 F 
ATOM     29  C   LIG    1       -5.823  -3.478   6.454  0.00  0.00    +0.039 A 
ATOM     30  C   LIG    1       -5.595  -2.964   5.192  0.00  0.00    +0.009 A 
ENDBRANCH  23  24
BRANCH  23  31
ATOM     31  O   LIG    1       -4.987   0.261   3.682  0.00  0.00    -0.387 OA
ATOM     32  H   LIG    1       -4.410   0.739   4.294  0.00  0.00    +0.210 HD
ENDBRANCH  23  31
ENDBRANCH  22  23
ENDBRANCH  21  22
ENDBRANCH   2  21
TORSDOF 8
