REMARK  Name = ZINC03870413
REMARK                            x       y       z     vdW  Elec       q    Type
REMARK                         _______ _______ _______ _____ _____    ______ ____
ROOT
ATOM      1  C   LIG    1        1.145   3.598   0.011  0.00  0.00    +0.245 C 
ATOM      2  C   LIG    1        1.413   4.112   1.431  0.00  0.00    +0.226 C 
ATOM      3  C   LIG    1        1.271   5.636   1.426  0.00  0.00    +0.091 C 
ATOM      4  C   LIG    1        2.050   6.215   0.272  0.00  0.00    +0.039 A 
ATOM      5  C   LIG    1        2.370   7.568   0.293  0.00  0.00    +0.127 A 
ATOM      6  C   LIG    1        3.080   8.134  -0.752  0.00  0.00    +0.091 A 
ATOM      7  C   LIG    1        3.475   7.348  -1.825  0.00  0.00    +0.124 A 
ATOM      8  C   LIG    1        3.160   6.000  -1.846  0.00  0.00    +0.091 A 
ATOM      9  C   LIG    1        2.447   5.429  -0.796  0.00  0.00    +0.132 A 
ATOM     10  O   LIG    1        2.166   4.101  -0.852  0.00  0.00    -0.480 OA
ENDROOT
BRANCH   1  12
ATOM     11  C   LIG    1       -0.017   1.382   0.010  0.00  0.00    +0.056 A 
ATOM     12  C   LIG    1        1.170   2.092   0.002  0.00  0.00    +0.003 A 
ATOM     13  C   LIG    1        2.379   1.423  -0.013  0.00  0.00    +0.056 A 
ATOM     14  C   LIG    1        2.407   0.036  -0.022  0.00  0.00    +0.162 A 
ATOM     15  C   LIG    1        1.216  -0.681  -0.014  0.00  0.00    +0.201 A 
ATOM     16  C   LIG    1        0.002  -0.004   0.002  0.00  0.00    +0.162 A 
BRANCH  14  17
ATOM     17  O   LIG    1        3.597  -0.621  -0.038  0.00  0.00    -0.503 OA
ATOM     18  H   LIG    1        3.951  -0.816   0.841  0.00  0.00    +0.292 HD
ENDBRANCH  14  17
BRANCH  15  19
ATOM     19  O   LIG    1        1.239  -2.041  -0.022  0.00  0.00    -0.501 OA
ATOM     20  H   LIG    1        1.254  -2.440   0.859  0.00  0.00    +0.292 HD
ENDBRANCH  15  19
BRANCH  16  21
ATOM     21  O   LIG    1       -1.166  -0.701   0.010  0.00  0.00    -0.503 OA
ATOM     22  H   LIG    1       -1.512  -0.898  -0.871  0.00  0.00    +0.292 HD
ENDBRANCH  16  21
ENDBRANCH   1  12
BRANCH   5  23
ATOM     23  O   LIG    1        1.982   8.338   1.344  0.00  0.00    -0.506 OA
ATOM     24  H   LIG    1        2.628   8.375   2.063  0.00  0.00    +0.292 HD
ENDBRANCH   5  23
BRANCH   7  25
ATOM     25  O   LIG    1        4.171   7.900  -2.853  0.00  0.00    -0.507 OA
ATOM     26  H   LIG    1        5.130   7.876  -2.737  0.00  0.00    +0.292 HD
ENDBRANCH   7  25
BRANCH   2  27
ATOM     27  O   LIG    1        0.466   3.542   2.336  0.00  0.00    -0.453 OA
BRANCH  27  28
ATOM     28  C   LIG    1        0.871   3.354   3.607  0.00  0.00    +0.340 C 
ATOM     29  O   LIG    1        1.998   3.665   3.938  0.00  0.00    -0.245 OA
BRANCH  28  30
ATOM     30  C   LIG    1       -0.054   2.771   4.597  0.00  0.00    +0.066 A 
ATOM     31  C   LIG    1       -1.349   2.407   4.217  0.00  0.00    +0.064 A 
ATOM     32  C   LIG    1       -2.213   1.860   5.146  0.00  0.00    +0.163 A 
ATOM     33  C   LIG    1       -1.795   1.672   6.461  0.00  0.00    +0.201 A 
ATOM     34  C   LIG    1       -0.506   2.034   6.843  0.00  0.00    +0.163 A 
ATOM     35  C   LIG    1        0.365   2.575   5.916  0.00  0.00    +0.064 A 
BRANCH  32  36
ATOM     36  O   LIG    1       -3.473   1.506   4.777  0.00  0.00    -0.503 OA
ATOM     37  H   LIG    1       -3.549   0.595   4.462  0.00  0.00    +0.292 HD
ENDBRANCH  32  36
BRANCH  33  38
ATOM     38  O   LIG    1       -2.647   1.135   7.373  0.00  0.00    -0.501 OA
ATOM     39  H   LIG    1       -2.606   0.171   7.430  0.00  0.00    +0.292 HD
ENDBRANCH  33  38
BRANCH  34  40
ATOM     40  O   LIG    1       -0.101   1.849   8.129  0.00  0.00    -0.503 OA
ATOM     41  H   LIG    1        0.304   0.987   8.293  0.00  0.00    +0.292 HD
ENDBRANCH  34  40
ENDBRANCH  28  30
ENDBRANCH  27  28
ENDBRANCH   2  27
TORSDOF 12
