REMARK  Name = ZINC03783617
REMARK                            x       y       z     vdW  Elec       q    Type
REMARK                         _______ _______ _______ _____ _____    ______ ____
ROOT
ATOM      1  C   LIG    1        1.275  -5.987   6.343  0.00  0.00    +0.006 C 
ATOM      2  C   LIG    1        2.172  -6.640   5.289  0.00  0.00    -0.021 C 
ATOM      3  C   LIG    1        1.839  -6.066   3.910  0.00  0.00    -0.075 C 
ATOM      4  N   LIG    1        2.067  -4.606   3.930  0.00  0.00    +0.380 N 
ATOM      5  H   LIG    1        1.511  -4.192   4.687  0.00  0.00    -0.082 HD
ATOM      6  C   LIG    1        3.497  -4.319   4.173  0.00  0.00    -0.078 C 
ATOM      7  C   LIG    1        3.880  -4.840   5.560  0.00  0.00    -0.007 C 
ATOM      8  C   LIG    1        3.640  -6.352   5.615  0.00  0.00    -0.008 C 
ATOM      9  C   LIG    1        4.538  -7.051   4.593  0.00  0.00    +0.016 C 
ENDROOT
BRANCH   8  10
ATOM     10  C   LIG    1        3.958  -6.862   6.997  0.00  0.00    -0.038 A 
ATOM     11  C   LIG    1        4.486  -6.004   7.945  0.00  0.00    +0.004 A 
ATOM     12  C   LIG    1        4.774  -6.468   9.215  0.00  0.00    +0.004 A 
ATOM     13  C   LIG    1        4.545  -7.792   9.538  0.00  0.00    +0.045 A 
ATOM     14  C   LIG    1        4.019  -8.655   8.587  0.00  0.00    +0.117 A 
ATOM     15  C   LIG    1        3.726  -8.186   7.315  0.00  0.00    +0.049 A 
BRANCH  14  16
ATOM     16  O   LIG    1        3.792  -9.957   8.902  0.00  0.00    -0.507 OA
ATOM     17  H   LIG    1        4.543 -10.540   8.729  0.00  0.00    +0.292 HD
ENDBRANCH  14  16
ENDBRANCH   8  10
BRANCH   4  18
ATOM     18  C   LIG    1        1.645  -4.011   2.645  0.00  0.00    -0.076 C 
BRANCH  18  19
ATOM     19  C   LIG    1        1.682  -2.487   2.771  0.00  0.00    +0.013 C 
BRANCH  19  20
ATOM     20  C   LIG    1        1.225  -1.855   1.455  0.00  0.00    +0.116 C 
BRANCH  20  21
ATOM     21  C   LIG    1        1.143  -0.336   1.620  0.00  0.00    +0.018 C 
ATOM     22  C   LIG    1        0.567   0.285   0.346  0.00  0.00    +0.006 C 
ATOM     23  C   LIG    1        0.485   1.804   0.511  0.00  0.00    +0.000 C 
ATOM     24  C   LIG    1        1.885   2.366   0.765  0.00  0.00    +0.000 C 
ATOM     25  C   LIG    1        2.461   1.745   2.039  0.00  0.00    +0.000 C 
ATOM     26  C   LIG    1        2.543   0.226   1.874  0.00  0.00    +0.006 C 
ENDBRANCH  20  21
BRANCH  20  27
ATOM     27  O   LIG    1        2.162  -2.172   0.423  0.00  0.00    -0.392 OA
ATOM     28  H   LIG    1        3.059  -1.854   0.596  0.00  0.00    +0.210 HD
ENDBRANCH  20  27
ENDBRANCH  19  20
ENDBRANCH  18  19
ENDBRANCH   4  18
TORSDOF 7
