REMARK  Name = ZINC03784077
REMARK                            x       y       z     vdW  Elec       q    Type
REMARK                         _______ _______ _______ _____ _____    ______ ____
ROOT
ATOM      1  C   LIG    1        0.019   1.548   0.005  0.00  0.00    +0.016 C 
ATOM      2  C   LIG    1        0.026   0.018  -0.003  0.00  0.00    -0.010 C 
ATOM      3  C   LIG    1       -1.416  -0.493   0.018  0.00  0.00    +0.016 C 
ATOM      4  C   LIG    1        0.715  -0.475  -1.274  0.00  0.00    +0.012 C 
ATOM      5  C   LIG    1        0.906  -1.992  -1.163  0.00  0.00    +0.012 C 
ATOM      6  C   LIG    1        1.966  -2.267  -0.098  0.00  0.00    -0.010 C 
ATOM      7  C   LIG    1        2.021  -3.770   0.183  0.00  0.00    +0.016 C 
ATOM      8  C   LIG    1        3.330  -1.800  -0.611  0.00  0.00    +0.016 C 
ATOM      9  C   LIG    1        1.637  -1.535   1.177  0.00  0.00    -0.037 A 
ATOM     10  C   LIG    1        2.267  -1.954   2.339  0.00  0.00    +0.017 A 
ATOM     11  C   LIG    1        2.010  -1.316   3.551  0.00  0.00    +0.037 A 
ATOM     12  C   LIG    1        1.112  -0.248   3.587  0.00  0.00    +0.013 A 
ATOM     13  C   LIG    1        0.491   0.158   2.428  0.00  0.00    +0.005 A 
ATOM     14  C   LIG    1        0.749  -0.482   1.221  0.00  0.00    -0.038 A 
ENDROOT
BRANCH  11  15
ATOM     15  C   LIG    1        2.683  -1.766   4.787  0.00  0.00    +0.248 C 
ATOM     16  N   LIG    1        2.431  -1.145   5.956  0.00  0.00    -0.282 N 
ATOM     17  H   LIG    1        1.859  -0.361   5.975  0.00  0.00    +0.155 HD
ATOM     18  O   LIG    1        3.464  -2.697   4.750  0.00  0.00    -0.270 OA
BRANCH  16  19
ATOM     19  C   LIG    1        2.990  -1.627   7.136  0.00  0.00    +0.034 A 
ATOM     20  C   LIG    1        2.270  -1.557   8.325  0.00  0.00    +0.024 A 
ATOM     21  C   LIG    1        2.818  -2.032   9.490  0.00  0.00    +0.017 A 
ATOM     22  C   LIG    1        4.102  -2.587   9.481  0.00  0.00    +0.059 A 
ATOM     23  C   LIG    1        4.823  -2.655   8.284  0.00  0.00    +0.017 A 
ATOM     24  C   LIG    1        4.266  -2.184   7.123  0.00  0.00    +0.024 A 
BRANCH  22  25
ATOM     25  C   LIG    1        4.694  -3.096  10.729  0.00  0.00    +0.337 C 
ATOM     26  O   LIG    1        4.063  -3.035  11.775  0.00  0.00    -0.245 OA
BRANCH  25  27
ATOM     27  O   LIG    1        5.817  -3.581  10.720  0.00  0.00    -0.477 OA
ATOM     28  H   LIG    1        6.301  -3.628   9.919  0.00  0.00    +0.295 HD
ENDBRANCH  25  27
ENDBRANCH  22  25
ENDBRANCH  16  19
ENDBRANCH  11  15
TORSDOF 4
