REMARK  Name = ZINC03829025
REMARK                            x       y       z     vdW  Elec       q    Type
REMARK                         _______ _______ _______ _____ _____    ______ ____
ROOT
ATOM      1  O   LIG    1        1.230   3.418   0.008  0.00  0.00    -0.492 OA
ENDROOT
BRANCH   1   3
ATOM      2  C   LIG    1       -0.017   1.382   0.010  0.00  0.00    +0.063 A 
ATOM      3  C   LIG    1        1.198   2.059   0.002  0.00  0.00    +0.139 A 
ATOM      4  C   LIG    1        2.377   1.329  -0.013  0.00  0.00    +0.156 A 
ATOM      5  N   LIG    1        2.352   0.010  -0.021  0.00  0.00    -0.259 NA
ATOM      6  C   LIG    1        1.218  -0.662  -0.014  0.00  0.00    +0.125 A 
ATOM      7  C   LIG    1        0.002  -0.004   0.002  0.00  0.00    +0.035 A 
ATOM      8  I   LIG    1       -1.790  -1.089   0.014  0.00  0.00    -0.042 I 
ENDBRANCH   1   3
BRANCH   1   9
ATOM      9  C   LIG    1        2.518   4.037  -0.001  0.00  0.00    +0.213 C 
BRANCH   9  10
ATOM     10  C   LIG    1        2.352   5.558   0.009  0.00  0.00    -0.035 C 
ATOM     11  C   LIG    1        1.141   6.037   0.821  0.00  0.00    -0.032 C 
ATOM     12  C   LIG    1        0.991   7.049  -0.323  0.00  0.00    -0.084 C 
ATOM     13  N   LIG    1        1.686   6.084  -1.197  0.00  0.00    +0.383 N 
ATOM     14  H   LIG    1        1.065   5.420  -1.635  0.00  0.00    -0.085 HD
ATOM     15  H   LIG    1        2.321   6.518  -1.850  0.00  0.00    -0.085 HD
ENDBRANCH   9  10
ENDBRANCH   1   9
TORSDOF 3
