REMARK  Name = ZINC03869964
REMARK                            x       y       z     vdW  Elec       q    Type
REMARK                         _______ _______ _______ _____ _____    ______ ____
ROOT
ATOM      1  C   LIG    1       -0.788   1.610   1.237  0.00  0.00    +0.253 C 
ATOM      2  C   LIG    1       -0.015   1.087   0.006  0.00  0.00    +0.195 C 
ATOM      3  C   LIG    1       -0.815   1.626  -1.201  0.00  0.00    +0.178 C 
ATOM      4  C   LIG    1       -1.980   2.411  -0.558  0.00  0.00    +0.178 C 
ATOM      5  O   LIG    1       -1.501   2.773   0.756  0.00  0.00    -0.346 OA
ENDROOT
BRANCH   1  16
ATOM      6  C   LIG    1       -3.071   0.559   1.464  0.00  0.00    +0.203 A 
ATOM      7  N   LIG    1       -3.595  -0.483   2.044  0.00  0.00    -0.229 NA
ATOM      8  C   LIG    1       -2.624  -1.159   2.701  0.00  0.00    +0.172 A 
ATOM      9  C   LIG    1       -2.594  -2.375   3.521  0.00  0.00    +0.280 A 
ATOM     10  O   LIG    1       -3.615  -3.011   3.731  0.00  0.00    -0.265 OA
ATOM     11  N   LIG    1       -1.420  -2.773   4.035  0.00  0.00    -0.293 N 
ATOM     12  C   LIG    1       -0.312  -2.098   3.817  0.00  0.00    +0.195 A 
ATOM     13  N   LIG    1       -0.283  -0.966   3.066  0.00  0.00    -0.196 NA
ATOM     14  H   LIG    1       -1.386  -3.601   4.596  0.00  0.00    +0.172 HD
ATOM     15  C   LIG    1       -1.431  -0.477   2.497  0.00  0.00    +0.171 A 
ATOM     16  N   LIG    1       -1.731   0.596   1.716  0.00  0.00    -0.285 N 
BRANCH  12  17
ATOM     17  N   LIG    1        0.856  -2.552   4.367  0.00  0.00    -0.329 N 
ATOM     18  H   LIG    1        0.767  -2.578   5.363  0.00  0.00    +0.145 HD
ATOM     19  H   LIG    1        1.683  -2.068   4.218  0.00  0.00    +0.145 HD
ENDBRANCH  12  17
ENDBRANCH   1  16
BRANCH   2  20
ATOM     20  O   LIG    1        1.318   1.604  -0.005  0.00  0.00    -0.385 OA
ATOM     21  H   LIG    1        1.839   1.330  -0.772  0.00  0.00    +0.210 HD
ENDBRANCH   2  20
BRANCH   3  22
ATOM     22  O   LIG    1       -0.002   2.495  -1.992  0.00  0.00    -0.386 OA
ATOM     23  H   LIG    1        0.778   2.067  -2.371  0.00  0.00    +0.210 HD
ENDBRANCH   3  22
BRANCH   4  24
ATOM     24  C   LIG    1       -2.293   3.665  -1.377  0.00  0.00    +0.206 C 
BRANCH  24  25
ATOM     25  O   LIG    1       -3.445   4.313  -0.835  0.00  0.00    -0.284 OA
BRANCH  25  26
ATOM     26  P   LIG    1       -4.060   5.668  -1.449  0.00  0.00    +0.472 P 
ATOM     27  O   LIG    1       -4.349   5.470  -2.887  0.00  0.00    -0.228 OA
BRANCH  26  28
ATOM     28  O   LIG    1       -2.999   6.866  -1.276  0.00  0.00    -0.303 OA
ATOM     29  H   LIG    1       -2.179   6.642  -1.743  0.00  0.00    +0.222 HD
ENDBRANCH  26  28
BRANCH  26  30
ATOM     30  O   LIG    1       -5.421   6.040  -0.674  0.00  0.00    -0.303 OA
ATOM     31  H   LIG    1       -6.060   5.318  -0.779  0.00  0.00    +0.222 HD
ENDBRANCH  26  30
ENDBRANCH  25  26
ENDBRANCH  24  25
ENDBRANCH   4  24
TORSDOF 9
