REMARK  Name = ZINC03786387
REMARK                            x       y       z     vdW  Elec       q    Type
REMARK                         _______ _______ _______ _____ _____    ______ ____
ROOT
ATOM      1  C   LIG    1        3.515   0.633  -0.028  0.00  0.00    +0.169 C 
ENDROOT
BRANCH   1   6
ATOM      2  C   LIG    1        6.719   3.710   3.410  0.00  0.00    +0.175 C 
ATOM      3  N   LIG    1        6.258   2.377   3.805  0.00  0.00    -0.247 N 
ATOM      4  C   LIG    1        5.474   1.524   3.064  0.00  0.00    +0.089 A 
ATOM      5  C   LIG    1        4.891   1.598   1.804  0.00  0.00    +0.035 A 
ATOM      6  C   LIG    1        4.146   0.551   1.338  0.00  0.00    -0.017 A 
ATOM      7  C   LIG    1        3.962  -0.586   2.114  0.00  0.00    +0.008 A 
ATOM      8  C   LIG    1        4.529  -0.685   3.351  0.00  0.00    +0.032 A 
ATOM      9  C   LIG    1        5.296   0.374   3.853  0.00  0.00    +0.113 A 
ATOM     10  N   LIG    1        5.959   0.565   5.010  0.00  0.00    -0.129 NA
ATOM     11  N   LIG    1        6.529   1.719   5.014  0.00  0.00    -0.065 NA
ENDBRANCH   1   6
BRANCH   1  12
ATOM     12  C   LIG    1        4.138  -0.399  -0.932  0.00  0.00    -0.019 A 
ATOM     13  C   LIG    1        5.399  -0.892  -0.653  0.00  0.00    +0.007 A 
ATOM     14  C   LIG    1        5.968  -1.843  -1.478  0.00  0.00    +0.020 A 
ATOM     15  C   LIG    1        5.281  -2.293  -2.591  0.00  0.00    +0.041 A 
ATOM     16 CL   LIG    1        5.998  -3.482  -3.633  0.00  0.00    -0.084 Cl
ATOM     17  C   LIG    1        4.021  -1.795  -2.874  0.00  0.00    +0.020 A 
ATOM     18  C   LIG    1        3.450  -0.849  -2.044  0.00  0.00    +0.007 A 
ENDBRANCH   1  12
BRANCH   1  19
ATOM     19  N   LIG    1        2.076   0.380   0.083  0.00  0.00    -0.240 N 
ATOM     20  C   LIG    1        1.469  -0.819   0.115  0.00  0.00    +0.220 A 
ATOM     21  N   LIG    1        0.180  -0.618   0.220  0.00  0.00    -0.223 NA
ATOM     22  C   LIG    1       -0.072   0.690   0.258  0.00  0.00    +0.245 A 
ATOM     23  N   LIG    1        1.057   1.342   0.177  0.00  0.00    -0.158 NA
ENDBRANCH   1  19
TORSDOF 3
