REMARK  Name = ZINC03861807
REMARK                            x       y       z     vdW  Elec       q    Type
REMARK                         _______ _______ _______ _____ _____    ______ ____
ROOT
ATOM      1  N   LIG    1       -2.105  -0.148  -1.230  0.00  0.00    -0.276 N 
ATOM      2  C   LIG    1       -2.790   1.054  -1.303  0.00  0.00    +0.168 A 
ATOM      3  C   LIG    1       -3.419   1.397  -2.493  0.00  0.00    +0.149 A 
ATOM      4  N   LIG    1       -4.010   2.626  -2.277  0.00  0.00    -0.339 N 
ATOM      5  C   LIG    1       -3.732   2.979  -1.007  0.00  0.00    +0.199 A 
ATOM      6  H   LIG    1       -4.528   3.137  -2.918  0.00  0.00    +0.167 HD
ATOM      7  C   LIG    1       -3.343   0.513  -3.591  0.00  0.00    +0.282 A 
ATOM      8  N   LIG    1       -2.661  -0.644  -3.459  0.00  0.00    -0.262 N 
ATOM      9  C   LIG    1       -2.579  -1.566  -4.594  0.00  0.00    +0.157 C 
ATOM     10  O   LIG    1       -3.886   0.791  -4.645  0.00  0.00    -0.265 OA
ATOM     11  N   LIG    1       -3.011   2.047  -0.438  0.00  0.00    -0.218 NA
ATOM     12  C   LIG    1       -2.053  -0.961  -2.303  0.00  0.00    +0.333 A 
ATOM     13  O   LIG    1       -1.443  -2.010  -2.222  0.00  0.00    -0.246 OA
ENDROOT
BRANCH   1  14
ATOM     14  C   LIG    1       -1.433  -0.534   0.013  0.00  0.00    +0.131 C 
BRANCH  14  16
ATOM     15  C   LIG    1       -0.019   1.526   0.010  0.00  0.00    +0.009 C 
ATOM     16  C   LIG    1        0.002  -0.004   0.002  0.00  0.00    +0.003 C 
ATOM     17  C   LIG    1        0.742  -0.511   1.242  0.00  0.00    +0.009 C 
ENDBRANCH  14  16
ENDBRANCH   1  14
TORSDOF 2
