REMARK  Name = ZINC03817388
REMARK                            x       y       z     vdW  Elec       q    Type
REMARK                         _______ _______ _______ _____ _____    ______ ____
ROOT
ATOM      1  C   LIG    1       -0.013   1.076   0.008  0.00  0.00    +0.001 A 
ATOM      2  C   LIG    1       -1.218   1.753   0.017  0.00  0.00    +0.001 A 
ATOM      3  C   LIG    1       -1.229   3.132   0.029  0.00  0.00    +0.016 A 
ATOM      4  C   LIG    1       -0.035   3.858   0.021  0.00  0.00    +0.026 A 
ATOM      5  C   LIG    1        1.170   3.181   0.007  0.00  0.00    +0.026 A 
ATOM      6  S   LIG    1        2.725   3.992  -0.003  0.00  0.00    -0.087 S 
ATOM      7  C   LIG    1        2.486   5.538  -0.795  0.00  0.00    +0.027 A 
ATOM      8  C   LIG    1        3.577   6.095  -1.465  0.00  0.00    +0.016 A 
ATOM      9  C   LIG    1        3.475   7.310  -2.116  0.00  0.00    +0.002 A 
ATOM     10  C   LIG    1        2.279   7.994  -2.111  0.00  0.00    +0.013 A 
ATOM     11  C   LIG    1        1.177   7.455  -1.448  0.00  0.00    +0.032 A 
ATOM     12  C   LIG    1        1.280   6.214  -0.782  0.00  0.00    +0.037 A 
ATOM     13  S   LIG    1       -0.152   5.608   0.029  0.00  0.00    -0.087 S 
ATOM     14  C   LIG    1        1.171   1.784   0.001  0.00  0.00    +0.016 A 
ENDROOT
BRANCH  11  15
ATOM     15  C   LIG    1       -0.103   8.185  -1.442  0.00  0.00    +0.142 A 
ATOM     16  C   LIG    1       -0.127   9.500  -1.089  0.00  0.00    +0.098 A 
ATOM     17  C   LIG    1       -1.362  10.191  -1.093  0.00  0.00    +0.187 A 
ATOM     18  C   LIG    1       -2.527   9.482  -1.454  0.00  0.00    +0.113 A 
ATOM     19  C   LIG    1       -2.425   8.166  -1.789  0.00  0.00    +0.193 A 
ATOM     20  O   LIG    1       -1.419  11.374  -0.786  0.00  0.00    -0.288 OA
ATOM     21  O   LIG    1       -1.236   7.543  -1.780  0.00  0.00    -0.441 OA
BRANCH  19  22
ATOM     22  N   LIG    1       -3.555   7.467  -2.143  0.00  0.00    -0.297 N 
ATOM     23  C   LIG    1       -4.568   7.532  -1.080  0.00  0.00    +0.136 C 
ATOM     24  C   LIG    1       -5.828   6.792  -1.538  0.00  0.00    +0.179 C 
ATOM     25  O   LIG    1       -5.487   5.446  -1.879  0.00  0.00    -0.377 OA
ATOM     26  C   LIG    1       -4.503   5.345  -2.911  0.00  0.00    +0.179 C 
ATOM     27  C   LIG    1       -3.229   6.070  -2.467  0.00  0.00    +0.136 C 
ENDBRANCH  19  22
ENDBRANCH  11  15
TORSDOF 2
