REMARK  Name = ZINC03814297
REMARK                            x       y       z     vdW  Elec       q    Type
REMARK                         _______ _______ _______ _____ _____    ______ ____
ROOT
ATOM      1  C   LIG    1        0.457  -2.027  -1.050  0.00  0.00    +0.116 C 
ENDROOT
BRANCH   1   2
ATOM      2  N   LIG    1        0.970  -2.477  -2.346  0.00  0.00    -0.332 N 
ATOM      3  C   LIG    1        0.324  -3.277  -3.227  0.00  0.00    +0.118 A 
ATOM      4  C   LIG    1        1.156  -3.444  -4.295  0.00  0.00    +0.119 A 
ATOM      5  N   LIG    1        2.288  -2.743  -4.040  0.00  0.00    -0.342 N 
ATOM      6  H   LIG    1        3.103  -2.681  -4.662  0.00  0.00    +0.167 HD
ATOM      7  C   LIG    1        2.178  -2.162  -2.883  0.00  0.00    +0.174 A 
BRANCH   4   8
ATOM      8  C   LIG    1        0.875  -4.240  -5.502  0.00  0.00    +0.259 C 
ATOM      9  N   LIG    1        1.792  -4.320  -6.486  0.00  0.00    -0.324 N 
ATOM     10  H   LIG    1        1.607  -4.844  -7.281  0.00  0.00    +0.145 HD
ATOM     11  H   LIG    1        2.638  -3.852  -6.399  0.00  0.00    +0.145 HD
ATOM     12  O   LIG    1       -0.185  -4.826  -5.610  0.00  0.00    -0.269 OA
ENDBRANCH   4   8
ENDBRANCH   1   2
BRANCH   1  13
ATOM     13  C   LIG    1        1.389  -2.510   0.063  0.00  0.00    +0.134 C 
ATOM     14  C   LIG    1        1.423  -4.040   0.072  0.00  0.00    +0.040 C 
BRANCH  13  15
ATOM     15  O   LIG    1        2.707  -2.006  -0.167  0.00  0.00    -0.390 OA
ATOM     16  H   LIG    1        2.760  -1.041  -0.185  0.00  0.00    +0.210 HD
ENDBRANCH  13  15
ENDBRANCH   1  13
BRANCH   1  17
ATOM     17  C   LIG    1        0.389  -0.499  -1.031  0.00  0.00    +0.028 C 
BRANCH  17  18
ATOM     18  C   LIG    1       -0.644  -0.022  -2.053  0.00  0.00    +0.002 C 
BRANCH  18  19
ATOM     19  C   LIG    1       -0.811   1.495  -1.940  0.00  0.00    +0.000 C 
BRANCH  19  20
ATOM     20  C   LIG    1       -1.845   1.972  -2.963  0.00  0.00    -0.000 C 
BRANCH  20  22
ATOM     21  C   LIG    1       -3.045   3.966  -3.872  0.00  0.00    +0.004 C 
ATOM     22  C   LIG    1       -2.011   3.489  -2.850  0.00  0.00    -0.003 C 
ENDBRANCH  20  22
ENDBRANCH  19  20
ENDBRANCH  18  19
ENDBRANCH  17  18
ENDBRANCH   1  17
TORSDOF 9
