REMARK  Name = ZINC03811810
REMARK                            x       y       z     vdW  Elec       q    Type
REMARK                         _______ _______ _______ _____ _____    ______ ____
ROOT
ATOM      1  N   LIG    1       -3.648  -4.382  -1.204  0.00  0.00    -0.285 N 
ATOM      2  C   LIG    1       -4.498  -3.482  -1.775  0.00  0.00    +0.203 A 
ATOM      3  N   LIG    1       -5.488  -4.105  -2.345  0.00  0.00    -0.231 NA
ATOM      4  C   LIG    1       -5.337  -5.441  -2.177  0.00  0.00    +0.147 A 
ATOM      5  C   LIG    1       -6.073  -6.574  -2.561  0.00  0.00    +0.150 A 
ATOM      6  N   LIG    1       -5.608  -7.774  -2.227  0.00  0.00    -0.219 NA
ATOM      7  C   LIG    1       -4.489  -7.906  -1.538  0.00  0.00    +0.225 A 
ATOM      8  N   LIG    1       -3.771  -6.873  -1.152  0.00  0.00    -0.216 NA
ATOM      9  C   LIG    1       -4.152  -5.635  -1.448  0.00  0.00    +0.167 A 
ENDROOT
BRANCH   1  13
ATOM     10  C   LIG    1       -1.135  -2.201   0.001  0.00  0.00    +0.237 C 
ATOM     11  C   LIG    1       -0.578  -2.732  -1.344  0.00  0.00    +0.185 C 
ATOM     12  C   LIG    1       -1.208  -4.144  -1.422  0.00  0.00    +0.196 C 
ATOM     13  C   LIG    1       -2.419  -4.069  -0.471  0.00  0.00    +0.254 C 
ATOM     14  O   LIG    1       -2.479  -2.728   0.045  0.00  0.00    -0.339 OA
BRANCH  10  18
ATOM     15  C   LIG    1       -0.018   1.461   0.010  0.00  0.00    +0.128 C 
ATOM     16  N   LIG    1        0.002  -0.004   0.002  0.00  0.00    -0.316 N 
ATOM     17  H   LIG    1        0.849  -0.478  -0.009  0.00  0.00    +0.148 HD
ATOM     18  C   LIG    1       -1.156  -0.694   0.009  0.00  0.00    +0.244 C 
ATOM     19  O   LIG    1       -2.214  -0.102   0.023  0.00  0.00    -0.273 OA
ENDBRANCH  10  18
BRANCH  11  20
ATOM     20  O   LIG    1        0.848  -2.810  -1.310  0.00  0.00    -0.386 OA
ATOM     21  H   LIG    1        1.286  -1.959  -1.172  0.00  0.00    +0.210 HD
ENDBRANCH  11  20
BRANCH  12  22
ATOM     22  O   LIG    1       -0.278  -5.132  -0.975  0.00  0.00    -0.385 OA
ATOM     23  H   LIG    1        0.529  -5.180  -1.505  0.00  0.00    +0.210 HD
ENDBRANCH  12  22
ENDBRANCH   1  13
BRANCH   5  24
ATOM     24  N   LIG    1       -7.245  -6.446  -3.285  0.00  0.00    -0.323 N 
ATOM     25  H   LIG    1       -7.568  -5.565  -3.533  0.00  0.00    +0.148 HD
BRANCH  24  26
ATOM     26  C   LIG    1       -7.999  -7.639  -3.677  0.00  0.00    +0.138 C 
BRANCH  26  27
ATOM     27  C   LIG    1       -9.225  -7.228  -4.450  0.00  0.00    -0.029 A 
ATOM     28  C   LIG    1      -10.410  -6.975  -3.783  0.00  0.00    +0.005 A 
ATOM     29  C   LIG    1      -11.535  -6.598  -4.492  0.00  0.00    +0.001 A 
ATOM     30  C   LIG    1      -11.476  -6.472  -5.867  0.00  0.00    +0.014 A 
ATOM     31  C   LIG    1      -10.292  -6.725  -6.534  0.00  0.00    +0.014 A 
ATOM     32  I   LIG    1      -10.203  -6.536  -8.619  0.00  0.00    -0.044 I 
ATOM     33  C   LIG    1       -9.165  -7.097  -5.824  0.00  0.00    +0.019 A 
ENDBRANCH  26  27
ENDBRANCH  24  26
ENDBRANCH   5  24
TORSDOF 7
