REMARK  Name = ZINC03860201
REMARK                            x       y       z     vdW  Elec       q    Type
REMARK                         _______ _______ _______ _____ _____    ______ ____
ROOT
ATOM      1  C   LIG    1       -0.017   1.385   0.010  0.00  0.00    +0.046 A 
ATOM      2  C   LIG    1        1.165   2.100   0.002  0.00  0.00    +0.016 A 
ATOM      3  C   LIG    1        2.384   1.427  -0.013  0.00  0.00    +0.033 A 
ATOM      4  C   LIG    1        2.406   0.018  -0.020  0.00  0.00    +0.037 A 
ATOM      5  C   LIG    1        3.704  -0.694  -0.035  0.00  0.00    +0.195 C 
ATOM      6  C   LIG    1        4.941   0.055   0.267  0.00  0.00    +0.033 A 
ATOM      7  C   LIG    1        6.127  -0.621   0.545  0.00  0.00    +0.016 A 
ATOM      8  C   LIG    1        7.276   0.092   0.826  0.00  0.00    +0.046 A 
ATOM      9  C   LIG    1        7.257   1.481   0.833  0.00  0.00    +0.118 A 
ATOM     10  C   LIG    1        6.079   2.170   0.557  0.00  0.00    +0.057 A 
ATOM     11  C   LIG    1        4.918   1.463   0.274  0.00  0.00    +0.037 A 
ATOM     12  O   LIG    1        3.751  -1.881  -0.293  0.00  0.00    -0.287 OA
ATOM     13  C   LIG    1        1.213  -0.690  -0.013  0.00  0.00    +0.057 A 
ATOM     14  C   LIG    1        3.656   2.178  -0.020  0.00  0.00    +0.195 C 
ATOM     15  O   LIG    1        3.666   3.368  -0.264  0.00  0.00    -0.287 OA
ATOM     16  C   LIG    1        0.002  -0.004   0.002  0.00  0.00    +0.118 A 
ENDROOT
BRANCH   9  17
ATOM     17  O   LIG    1        8.393   2.170   1.110  0.00  0.00    -0.507 OA
ATOM     18  H   LIG    1        8.928   2.377   0.331  0.00  0.00    +0.292 HD
ENDBRANCH   9  17
BRANCH  16  19
ATOM     19  O   LIG    1       -1.166  -0.695   0.009  0.00  0.00    -0.507 OA
ATOM     20  H   LIG    1       -1.513  -0.891  -0.872  0.00  0.00    +0.292 HD
ENDBRANCH  16  19
TORSDOF 2
