REMARK  Name = ZINC03842753
REMARK                            x       y       z     vdW  Elec       q    Type
REMARK                         _______ _______ _______ _____ _____    ______ ____
ROOT
ATOM      1  C   LIG    1       -0.017   1.364   0.009  0.00  0.00    +0.111 A 
ATOM      2  C   LIG    1        1.147   2.049   0.002  0.00  0.00    +0.135 A 
ATOM      3  C   LIG    1        2.368   1.332  -0.013  0.00  0.00    +0.266 A 
ATOM      4  N   LIG    1        2.344  -0.016  -0.020  0.00  0.00    -0.274 N 
ATOM      5  C   LIG    1        1.169  -0.673  -0.013  0.00  0.00    +0.331 A 
ATOM      6  O   LIG    1        1.163  -1.889  -0.019  0.00  0.00    -0.246 OA
ATOM      7  H   LIG    1        3.176  -0.514  -0.031  0.00  0.00    +0.173 HD
ATOM      8  O   LIG    1        3.430   1.927  -0.020  0.00  0.00    -0.267 OA
ATOM      9  N   LIG    1        0.002  -0.004   0.002  0.00  0.00    -0.273 N 
ENDROOT
BRANCH   9  10
ATOM     10  C1* LIG    1       -1.261  -0.747   0.011  0.00  0.00    +0.226 C 
ATOM     11  C2* LIG    1       -1.409  -1.571  -1.288  0.00  0.00    +0.088 C 
ATOM     12  C3* LIG    1       -2.085  -2.881  -0.826  0.00  0.00    +0.150 C 
ATOM     13  C4* LIG    1       -2.265  -2.694   0.697  0.00  0.00    +0.175 C 
ATOM     14  O4* LIG    1       -1.261  -1.725   1.073  0.00  0.00    -0.348 OA
BRANCH  12  15
ATOM     15  O3* LIG    1       -3.352  -3.043  -1.467  0.00  0.00    -0.389 OA
ATOM     16  H3* LIG    1       -3.300  -3.106  -2.431  0.00  0.00    +0.210 HD
ENDBRANCH  12  15
BRANCH  13  17
ATOM     17  C5* LIG    1       -2.033  -4.018   1.427  0.00  0.00    +0.190 C 
BRANCH  17  18
ATOM     18  O5* LIG    1       -2.318  -3.851   2.817  0.00  0.00    -0.392 OA
ATOM     19  H5* LIG    1       -2.192  -4.653   3.344  0.00  0.00    +0.210 HD
ENDBRANCH  17  18
ENDBRANCH  13  17
ENDBRANCH   9  10
BRANCH   2  20
ATOM     20  C   LIG    1        1.147   3.556   0.010  0.00  0.00    +0.424 C 
ATOM     21  F   LIG    1       -0.054   4.024  -0.534  0.00  0.00    -0.166 F 
ATOM     22  F   LIG    1        2.220   4.026  -0.754  0.00  0.00    -0.166 F 
ATOM     23  F   LIG    1        1.274   4.015   1.325  0.00  0.00    -0.166 F 
ENDBRANCH   2  20
TORSDOF 5
