REMARK  Name = ZINC03871987
REMARK                            x       y       z     vdW  Elec       q    Type
REMARK                         _______ _______ _______ _____ _____    ______ ____
ROOT
ATOM      1  C   LIG    1       -4.954  -2.594  -0.083  0.00  0.00    +0.181 A 
ATOM      2  C   LIG    1       -6.082  -1.863   0.137  0.00  0.00    +0.211 A 
ATOM      3  C   LIG    1       -7.331  -2.526   0.254  0.00  0.00    +0.238 A 
ATOM      4  C   LIG    1       -7.335  -3.992   0.131  0.00  0.00    +0.113 A 
ATOM      5  C   LIG    1       -6.112  -4.650  -0.096  0.00  0.00    +0.147 A 
ATOM      6  C   LIG    1       -6.093  -6.031  -0.215  0.00  0.00    +0.096 A 
ATOM      7  C   LIG    1       -7.270  -6.754  -0.113  0.00  0.00    +0.166 A 
ATOM      8  C   LIG    1       -8.484  -6.106   0.111  0.00  0.00    +0.204 A 
ATOM      9  C   LIG    1       -8.522  -4.727   0.233  0.00  0.00    +0.177 A 
ATOM     10  O   LIG    1       -8.363  -1.904   0.451  0.00  0.00    -0.283 OA
ATOM     11  O   LIG    1       -4.973  -3.933  -0.199  0.00  0.00    -0.451 OA
ENDROOT
BRANCH   1  15
ATOM     12  C   LIG    1       -1.236  -0.567  -0.434  0.00  0.00    +0.161 A 
ATOM     13  C   LIG    1       -1.588  -1.536  -1.363  0.00  0.00    +0.050 A 
ATOM     14  C   LIG    1       -2.793  -2.196  -1.252  0.00  0.00    +0.015 A 
ATOM     15  C   LIG    1       -3.664  -1.890  -0.203  0.00  0.00    +0.025 A 
ATOM     16  C   LIG    1       -3.309  -0.914   0.733  0.00  0.00    +0.060 A 
ATOM     17  C   LIG    1       -2.097  -0.260   0.618  0.00  0.00    +0.159 A 
BRANCH  12  19
ATOM     18  C   LIG    1        0.787  -0.282  -1.650  0.00  0.00    +0.277 C 
ATOM     19  O   LIG    1       -0.047   0.081  -0.548  0.00  0.00    -0.491 OA
ENDBRANCH  12  19
BRANCH  17  20
ATOM     20  O   LIG    1       -1.746   0.687   1.529  0.00  0.00    -0.503 OA
ATOM     21  H   LIG    1       -2.030   1.581   1.297  0.00  0.00    +0.292 HD
ENDBRANCH  17  20
ENDBRANCH   1  15
BRANCH   2  22
ATOM     22  O   LIG    1       -6.012  -0.508   0.242  0.00  0.00    -0.488 OA
ATOM     23  C   LIG    1       -6.659   0.256  -0.778  0.00  0.00    +0.277 C 
ENDBRANCH   2  22
BRANCH   7  24
ATOM     24  O   LIG    1       -7.242  -8.107  -0.233  0.00  0.00    -0.503 OA
ATOM     25  H   LIG    1       -7.112  -8.573   0.605  0.00  0.00    +0.292 HD
ENDBRANCH   7  24
BRANCH   8  26
ATOM     26  O   LIG    1       -9.633  -6.830   0.209  0.00  0.00    -0.488 OA
ATOM     27  C   LIG    1      -10.005  -7.282   1.513  0.00  0.00    +0.277 C 
ENDBRANCH   8  26
BRANCH   9  28
ATOM     28  O   LIG    1       -9.703  -4.092   0.451  0.00  0.00    -0.503 OA
ATOM     29  H   LIG    1      -10.166  -3.834  -0.358  0.00  0.00    +0.292 HD
ENDBRANCH   9  28
TORSDOF 7
