REMARK  Name = ZINC03780893
REMARK                            x       y       z     vdW  Elec       q    Type
REMARK                         _______ _______ _______ _____ _____    ______ ____
ROOT
ATOM      1  C   LIG    1        2.817  -4.723  -3.301  0.00  0.00    +0.185 C 
ATOM      2  C   LIG    1        1.661  -5.700  -3.506  0.00  0.00    +0.052 C 
ATOM      3  C   LIG    1        2.217  -6.980  -4.147  0.00  0.00    +0.012 C 
ATOM      4  C   LIG    1        1.092  -7.999  -4.333  0.00  0.00    +0.012 C 
ATOM      5  C   LIG    1        2.796  -6.605  -5.487  0.00  0.00    -0.020 C 
ATOM      6  C   LIG    1        3.356  -5.425  -5.677  0.00  0.00    -0.044 C 
ATOM      7  C   LIG    1        3.860  -5.067  -7.022  0.00  0.00    -0.000 C 
ATOM      8  C   LIG    1        4.139  -3.807  -7.303  0.00  0.00    -0.023 C 
ATOM      9  C   LIG    1        4.003  -2.678  -6.328  0.00  0.00    +0.012 C 
ATOM     10  C   LIG    1        5.386  -2.328  -5.777  0.00  0.00    +0.012 C 
ATOM     11  C   LIG    1        3.080  -3.042  -5.164  0.00  0.00    +0.007 C 
ATOM     12  C   LIG    1        3.515  -4.395  -4.598  0.00  0.00    +0.063 C 
ENDROOT
BRANCH   1  13
ATOM     13  O   LIG    1        2.308  -3.516  -2.729  0.00  0.00    -0.460 OA
BRANCH  13  14
ATOM     14  C   LIG    1        2.031  -3.534  -1.416  0.00  0.00    +0.313 C 
ATOM     15  O   LIG    1        2.285  -4.515  -0.758  0.00  0.00    -0.250 OA
BRANCH  14  16
ATOM     16  C   LIG    1        1.403  -2.330  -0.762  0.00  0.00    +0.062 C 
ATOM     17  C   LIG    1        2.395  -1.166  -0.777  0.00  0.00    +0.022 C 
ATOM     18  C   LIG    1        0.140  -1.934  -1.530  0.00  0.00    +0.022 C 
BRANCH  16  20
ATOM     19  C   LIG    1        0.397  -1.447   1.347  0.00  0.00    +0.005 C 
ATOM     20  C   LIG    1        1.035  -2.669   0.684  0.00  0.00    +0.014 C 
ENDBRANCH  16  20
ENDBRANCH  14  16
ENDBRANCH  13  14
ENDBRANCH   1  13
BRANCH  11  21
ATOM     21  C   LIG    1        3.179  -1.974  -4.072  0.00  0.00    +0.008 C 
BRANCH  21  22
ATOM     22  C   LIG    1        3.358  -0.599  -4.719  0.00  0.00    +0.045 C 
BRANCH  22  23
ATOM     23  C   LIG    1        3.949   0.373  -3.696  0.00  0.00    +0.179 C 
ATOM     24  C   LIG    1        4.143   1.745  -4.346  0.00  0.00    +0.076 C 
ATOM     25  C   LIG    1        4.773   2.704  -3.331  0.00  0.00    +0.129 C 
ATOM     26  C   LIG    1        6.124   2.133  -2.882  0.00  0.00    +0.152 C 
ATOM     27  C   LIG    1        5.910   0.704  -2.433  0.00  0.00    +0.310 C 
ATOM     28  O   LIG    1        6.349   0.312  -1.377  0.00  0.00    -0.251 OA
ATOM     29  O   LIG    1        5.215  -0.120  -3.244  0.00  0.00    -0.461 OA
BRANCH  25  30
ATOM     30  O   LIG    1        3.909   2.840  -2.201  0.00  0.00    -0.391 OA
ATOM     31  H   LIG    1        4.247   3.435  -1.517  0.00  0.00    +0.210 HD
ENDBRANCH  25  30
ENDBRANCH  22  23
ENDBRANCH  21  22
ENDBRANCH  11  21
TORSDOF 8
