REMARK  Name = ZINC03794726
REMARK                            x       y       z     vdW  Elec       q    Type
REMARK                         _______ _______ _______ _____ _____    ______ ____
ROOT
ATOM      1  C   LIG    1       -3.583  -0.987   0.444  0.00  0.00    -0.001 A 
ATOM      2  C   LIG    1       -2.442  -0.280   0.053  0.00  0.00    +0.011 A 
ATOM      3  C   LIG    1       -2.487   1.092  -0.040  0.00  0.00    +0.024 A 
ATOM      4  C   LIG    1       -3.663   1.778   0.254  0.00  0.00    +0.040 A 
ATOM      5  C   LIG    1       -4.800   1.082   0.641  0.00  0.00    -0.025 A 
ATOM      6  C   LIG    1       -6.088   1.795   0.959  0.00  0.00    +0.038 C 
ATOM      7  C   LIG    1       -5.820   3.263   1.290  0.00  0.00    +0.024 C 
ATOM      8  C   LIG    1       -4.968   3.875   0.177  0.00  0.00    +0.114 C 
ATOM      9  N   LIG    1       -3.677   3.174   0.154  0.00  0.00    -0.267 N 
ATOM     10  C   LIG    1       -2.525   3.864   0.045  0.00  0.00    +0.251 C 
ATOM     11  O   LIG    1       -1.464   3.272  -0.001  0.00  0.00    -0.270 OA
ATOM     12  C   LIG    1       -4.761  -0.296   0.737  0.00  0.00    +0.015 A 
ENDROOT
BRANCH   1  15
ATOM     13  C   LIG    1       -2.301  -3.670  -1.219  0.00  0.00    +0.026 C 
ATOM     14  C   LIG    1       -2.257  -3.164   0.225  0.00  0.00    +0.103 C 
ATOM     15  C   LIG    1       -3.544  -2.457   0.548  0.00  0.00    +0.079 C 
ATOM     16  N   LIG    1       -4.607  -3.074   0.915  0.00  0.00    -0.183 NA
ATOM     17  N   LIG    1       -4.725  -4.451   1.048  0.00  0.00    -0.198 N 
ATOM     18  H   LIG    1       -5.607  -4.850   0.992  0.00  0.00    +0.178 HD
ATOM     19  C   LIG    1       -3.668  -5.256   1.254  0.00  0.00    +0.292 C 
ATOM     20  O   LIG    1       -3.829  -6.455   1.373  0.00  0.00    -0.261 OA
ATOM     21  S   LIG    1       -2.047  -4.568   1.351  0.00  0.00    -0.057 S 
ENDBRANCH   1  15
BRANCH  10  22
ATOM     22  C   LIG    1       -2.551   5.338  -0.019  0.00  0.00    +0.041 A 
ATOM     23  C   LIG    1       -3.483   5.987  -0.833  0.00  0.00    +0.017 A 
ATOM     24  C   LIG    1       -3.503   7.364  -0.895  0.00  0.00    +0.050 A 
ATOM     25  C   LIG    1       -2.605   8.109  -0.143  0.00  0.00    +0.162 A 
ATOM     26  C   LIG    1       -1.675   7.468   0.675  0.00  0.00    +0.162 A 
ATOM     27  C   LIG    1       -1.647   6.088   0.738  0.00  0.00    +0.062 A 
BRANCH  25  28
ATOM     28  O   LIG    1       -2.632   9.465  -0.204  0.00  0.00    -0.491 OA
ATOM     29  C   LIG    1       -3.610  10.057  -1.062  0.00  0.00    +0.277 C 
ENDBRANCH  25  28
BRANCH  26  30
ATOM     30  O   LIG    1       -0.797   8.201   1.410  0.00  0.00    -0.491 OA
ATOM     31  C   LIG    1        0.127   7.478   2.226  0.00  0.00    +0.277 C 
ENDBRANCH  26  30
ENDBRANCH  10  22
TORSDOF 4
