REMARK  Name = ZINC03815034
REMARK                            x       y       z     vdW  Elec       q    Type
REMARK                         _______ _______ _______ _____ _____    ______ ____
ROOT
ATOM      1  C   LIG    1        1.203   3.046  -0.154  0.00  0.00    +0.134 A 
ATOM      2  C   LIG    1       -0.026   3.749  -0.130  0.00  0.00    +0.042 A 
ATOM      3  C   LIG    1       -0.085   5.135   0.046  0.00  0.00    +0.036 A 
ATOM      4  C   LIG    1       -1.314   5.764   0.060  0.00  0.00    +0.025 A 
ATOM      5  C   LIG    1       -2.492   5.027  -0.100  0.00  0.00    +0.025 A 
ATOM      6  C   LIG    1       -2.455   3.677  -0.273  0.00  0.00    +0.030 A 
ATOM      7  C   LIG    1       -1.223   3.009  -0.292  0.00  0.00    +0.076 A 
ATOM      8  N   LIG    1       -1.140   1.681  -0.465  0.00  0.00    -0.235 NA
ATOM      9  C   LIG    1        0.027   1.082  -0.473  0.00  0.00    +0.223 A 
ATOM     10  N   LIG    1        1.171   1.732  -0.326  0.00  0.00    -0.220 NA
ENDROOT
BRANCH   4  11
ATOM     11  N   LIG    1       -1.382   7.148   0.236  0.00  0.00    -0.358 N 
ATOM     12  H   LIG    1       -0.567   7.663   0.348  0.00  0.00    +0.142 HD
ATOM     13  H   LIG    1       -2.243   7.594   0.247  0.00  0.00    +0.142 HD
ENDBRANCH   4  11
BRANCH   1  14
ATOM     14  N   LIG    1        2.403   3.712  -0.002  0.00  0.00    -0.299 N 
ATOM     15  H   LIG    1        2.418   4.681   0.042  0.00  0.00    +0.154 HD
BRANCH  14  18
ATOM     16  C   LIG    1        5.951   2.807  -0.331  0.00  0.00    +0.003 A 
ATOM     17  C   LIG    1        4.773   3.523  -0.421  0.00  0.00    +0.023 A 
ATOM     18  C   LIG    1        3.596   2.990   0.088  0.00  0.00    +0.033 A 
ATOM     19  C   LIG    1        3.609   1.739   0.693  0.00  0.00    +0.038 A 
ATOM     20  C   LIG    1        4.790   1.026   0.776  0.00  0.00    +0.020 A 
ATOM     21 BR   LIG    1        4.807  -0.680   1.593  0.00  0.00    -0.050 Br
ATOM     22  C   LIG    1        5.960   1.561   0.267  0.00  0.00    +0.015 A 
ENDBRANCH  14  18
ENDBRANCH   1  14
TORSDOF 3
