REMARK  Name = ZINC03814179
REMARK                            x       y       z     vdW  Elec       q    Type
REMARK                         _______ _______ _______ _____ _____    ______ ____
ROOT
ATOM      1  C   LIG    1        0.188   1.197   0.141  0.00  0.00    +0.224 C 
ATOM      2  N   LIG    1        1.096   1.741   0.976  0.00  0.00    -0.257 N 
ATOM      3  C   LIG    1        1.330   3.112   1.122  0.00  0.00    +0.040 A 
ATOM      4  C   LIG    1        0.719   4.188   0.477  0.00  0.00    +0.024 A 
ATOM      5  C   LIG    1        1.101   5.481   0.766  0.00  0.00    +0.002 A 
ATOM      6  C   LIG    1        2.092   5.721   1.700  0.00  0.00    +0.000 A 
ATOM      7  C   LIG    1        2.702   4.660   2.344  0.00  0.00    +0.005 A 
ATOM      8  C   LIG    1        2.323   3.363   2.056  0.00  0.00    -0.024 A 
ATOM      9  C   LIG    1        2.816   2.042   2.602  0.00  0.00    +0.071 C 
ATOM     10  C   LIG    1        1.977   0.983   1.869  0.00  0.00    +0.194 C 
ATOM     11  O   LIG    1       -0.580   1.911  -0.468  0.00  0.00    -0.275 OA
ENDROOT
BRANCH   1  13
ATOM     12  C   LIG    1        0.963  -0.709  -1.242  0.00  0.00    +0.018 C 
ATOM     13  C   LIG    1        0.123  -0.299  -0.031  0.00  0.00    +0.082 C 
BRANCH  13  14
ATOM     14  C   LIG    1       -1.330  -0.725  -0.249  0.00  0.00    +0.078 C 
BRANCH  14  15
ATOM     15  S   LIG    1       -1.427  -2.535  -0.308  0.00  0.00    -0.178 S 
ATOM     16  H   LIG    1       -2.734  -2.785  -0.501  0.00  0.00    +0.102 HD
ENDBRANCH  14  15
ENDBRANCH  13  14
ENDBRANCH   1  13
BRANCH  10  17
ATOM     17  C   LIG    1        1.162   0.184   2.853  0.00  0.00    +0.326 C 
ATOM     18  O   LIG    1       -0.045   0.236   2.821  0.00  0.00    -0.249 OA
BRANCH  17  19
ATOM     19  O   LIG    1        1.776  -0.585   3.765  0.00  0.00    -0.479 OA
ATOM     20  H   LIG    1        2.712  -0.625   3.790  0.00  0.00    +0.295 HD
ENDBRANCH  17  19
ENDBRANCH  10  17
TORSDOF 5
