REMARK  Name = ZINC03817307
REMARK                            x       y       z     vdW  Elec       q    Type
REMARK                         _______ _______ _______ _____ _____    ______ ____
ROOT
ATOM      1  C   LIG    1        0.150  -2.720  -0.080  0.00  0.00    +0.080 A 
ATOM      2  C   LIG    1       -0.852  -2.117   0.677  0.00  0.00    +0.033 A 
ATOM      3  C   LIG    1       -0.928  -0.733   0.717  0.00  0.00    -0.034 A 
ATOM      4  C   LIG    1        0.000  -0.004  -0.000  0.00  0.00    +0.033 A 
ATOM      5  C   LIG    1        0.980  -0.665  -0.736  0.00  0.00    +0.135 A 
ATOM      6  N   LIG    1        1.910   0.092  -1.450  0.00  0.00    -0.235 N 
ATOM      7  H   LIG    1        2.452  -0.324  -2.138  0.00  0.00    +0.160 HD
ATOM      8  C   LIG    1        2.052   1.405  -1.179  0.00  0.00    +0.406 C 
ATOM      9  O   LIG    1        1.327   1.993  -0.210  0.00  0.00    -0.445 OA
ATOM     10  O   LIG    1        2.845   2.067  -1.818  0.00  0.00    -0.226 OA
ATOM     11  C   LIG    1       -0.027   1.503  -0.002  0.00  0.00    +0.273 C 
ATOM     12  N   LIG    1        1.027  -1.986  -0.756  0.00  0.00    -0.231 NA
ENDROOT
BRANCH   3  13
ATOM     13  C   LIG    1       -1.998  -0.041   1.522  0.00  0.00    +0.002 C 
ATOM     14  C   LIG    1       -1.864  -0.436   2.996  0.00  0.00    +0.004 C 
ATOM     15  C   LIG    1       -2.990   0.222   3.797  0.00  0.00    -0.019 C 
ATOM     16  C   LIG    1       -4.341  -0.206   3.218  0.00  0.00    -0.083 C 
ATOM     17  N   LIG    1       -4.428   0.203   1.803  0.00  0.00    +0.379 N 
ATOM     18  H   LIG    1       -5.348  -0.058   1.431  0.00  0.00    -0.086 HD
ATOM     19  H   LIG    1       -4.308   1.221   1.737  0.00  0.00    -0.086 HD
ATOM     20  C   LIG    1       -3.377  -0.462   1.009  0.00  0.00    -0.074 C 
ENDBRANCH   3  13
BRANCH   1  24
ATOM     21  C   LIG    1        0.408  -6.967  -0.225  0.00  0.00    +0.007 A 
ATOM     22  C   LIG    1        1.543  -6.218   0.025  0.00  0.00    +0.046 A 
ATOM     23  C   LIG    1        1.469  -4.835   0.069  0.00  0.00    +0.130 A 
ATOM     24  C   LIG    1        0.240  -4.198  -0.130  0.00  0.00    +0.083 A 
ATOM     25  C   LIG    1       -0.902  -4.963  -0.382  0.00  0.00    +0.133 A 
ATOM     26  C   LIG    1       -0.809  -6.345  -0.428  0.00  0.00    +0.046 A 
BRANCH  23  27
ATOM     27  O   LIG    1        2.586  -4.100   0.309  0.00  0.00    -0.506 OA
ATOM     28  H   LIG    1        2.748  -3.927   1.247  0.00  0.00    +0.292 HD
ENDBRANCH  23  27
BRANCH  25  29
ATOM     29  O   LIG    1       -2.100  -4.354  -0.581  0.00  0.00    -0.491 OA
BRANCH  29  30
ATOM     30  C   LIG    1       -3.224  -5.200  -0.833  0.00  0.00    +0.232 C 
BRANCH  30  31
ATOM     31  C   LIG    1       -4.474  -4.341  -1.031  0.00  0.00    +0.027 C 
ATOM     32  C   LIG    1       -5.607  -4.498  -0.014  0.00  0.00    +0.007 C 
ATOM     33  C   LIG    1       -5.767  -5.056  -1.430  0.00  0.00    +0.007 C 
ENDBRANCH  30  31
ENDBRANCH  29  30
ENDBRANCH  25  29
ENDBRANCH   1  24
TORSDOF 6
