REMARK  Name = ZINC03792990
REMARK                            x       y       z     vdW  Elec       q    Type
REMARK                         _______ _______ _______ _____ _____    ______ ____
ROOT
ATOM      1  C   LIG    1       -1.132  -0.535   0.733  0.00  0.00    +0.403 C 
ATOM      2  N   LIG    1       -1.183  -1.868   0.542  0.00  0.00    -0.264 N 
ATOM      3  C   LIG    1        0.050  -2.668   0.517  0.00  0.00    +0.130 C 
ATOM      4  C   LIG    1       -0.069  -3.785   1.561  0.00  0.00    +0.127 C 
ATOM      5  N   LIG    1       -1.359  -4.466   1.375  0.00  0.00    -0.297 N 
ATOM      6  C   LIG    1       -1.410  -5.799   1.185  0.00  0.00    +0.220 C 
ATOM      7  O   LIG    1       -2.482  -6.362   1.126  0.00  0.00    -0.275 OA
ATOM      8  C   LIG    1       -2.591  -3.666   1.401  0.00  0.00    +0.077 C 
ATOM      9  C   LIG    1       -2.473  -2.549   0.362  0.00  0.00    +0.131 C 
ATOM     10  O   LIG    1       -2.158   0.115   0.757  0.00  0.00    -0.226 OA
ENDROOT
BRANCH   1  12
ATOM     11  C   LIG    1        0.036   1.492   1.094  0.00  0.00    +0.282 C 
ATOM     12  O   LIG    1        0.056   0.077   0.896  0.00  0.00    -0.454 OA
ENDBRANCH   1  12
BRANCH   6  13
ATOM     13  C   LIG    1       -0.134  -6.590   1.046  0.00  0.00    +0.131 C 
BRANCH  13  14
ATOM     14  C   LIG    1       -0.466  -8.046   0.844  0.00  0.00    -0.037 A 
ATOM     15  C   LIG    1       -0.599  -8.882   1.937  0.00  0.00    +0.005 A 
ATOM     16  C   LIG    1       -0.902 -10.218   1.752  0.00  0.00    +0.022 A 
ATOM     17  C   LIG    1       -1.073 -10.719   0.474  0.00  0.00    +0.059 A 
ATOM     18 CL   LIG    1       -1.453 -12.397   0.242  0.00  0.00    -0.082 Cl
ATOM     19  C   LIG    1       -0.939  -9.881  -0.620  0.00  0.00    +0.060 A 
ATOM     20 CL   LIG    1       -1.152 -10.508  -2.225  0.00  0.00    -0.082 Cl
ATOM     21  C   LIG    1       -0.641  -8.543  -0.434  0.00  0.00    +0.025 A 
ENDBRANCH  13  14
ENDBRANCH   6  13
BRANCH   8  22
ATOM     22  C   LIG    1       -3.789  -4.558   1.068  0.00  0.00    -0.055 C 
BRANCH  22  23
ATOM     23  N   LIG    1       -5.017  -3.752   1.077  0.00  0.00    +0.381 N 
ATOM     24  H   LIG    1       -4.994  -3.090   1.838  0.00  0.00    -0.082 HD
ATOM     25  C   LIG    1       -5.173  -3.041  -0.218  0.00  0.00    -0.079 C 
ATOM     26  C   LIG    1       -6.690  -2.733  -0.273  0.00  0.00    -0.020 C 
ATOM     27  C   LIG    1       -7.323  -3.996   0.355  0.00  0.00    -0.020 C 
ATOM     28  C   LIG    1       -6.202  -4.630   1.200  0.00  0.00    -0.079 C 
ENDBRANCH  22  23
ENDBRANCH   8  22
TORSDOF 5
