REMARK  Name = ZINC03870799
REMARK                            x       y       z     vdW  Elec       q    Type
REMARK                         _______ _______ _______ _____ _____    ______ ____
ROOT
ATOM      1  C   LIG    1       -0.766   1.600  -1.226  0.00  0.00    +0.148 C 
ATOM      2  C   LIG    1       -2.173   0.990  -1.217  0.00  0.00    +0.165 C 
ATOM      3  C   LIG    1       -2.773   1.136   0.155  0.00  0.00    +0.059 C 
ATOM      4  C   LIG    1       -2.037   1.393   1.226  0.00  0.00    +0.203 C 
ATOM      5  O   LIG    1       -0.693   1.552   1.177  0.00  0.00    -0.478 OA
ATOM      6  C   LIG    1       -0.013   1.086   0.008  0.00  0.00    +0.228 C 
ENDROOT
BRANCH   1   9
ATOM      7  C   LIG    1       -1.101   5.270  -2.261  0.00  0.00    +0.109 C 
ATOM      8  C   LIG    1       -1.004   3.767  -2.314  0.00  0.00    +0.210 C 
ATOM      9  N   LIG    1       -0.860   3.061  -1.175  0.00  0.00    -0.306 N 
ATOM     10  H   LIG    1       -0.819   3.520  -0.321  0.00  0.00    +0.149 HD
ATOM     11  O   LIG    1       -1.056   3.193  -3.381  0.00  0.00    -0.276 OA
ENDBRANCH   1   9
BRANCH   2  12
ATOM     12  O   LIG    1       -2.094  -0.395  -1.558  0.00  0.00    -0.386 OA
ATOM     13  H   LIG    1       -2.949  -0.846  -1.572  0.00  0.00    +0.210 HD
ENDBRANCH   2  12
BRANCH   4  14
ATOM     14  C   LIG    1       -2.712   1.510   2.530  0.00  0.00    +0.372 C 
ATOM     15  O   LIG    1       -3.917   1.372   2.606  0.00  0.00    -0.242 OA
BRANCH  14  16
ATOM     16  O   LIG    1       -1.992   1.770   3.640  0.00  0.00    -0.475 OA
ATOM     17  H   LIG    1       -1.063   1.876   3.582  0.00  0.00    +0.296 HD
ENDBRANCH  14  16
ENDBRANCH   4  14
BRANCH   6  18
ATOM     18  C   LIG    1        1.421   1.621  -0.003  0.00  0.00    +0.187 C 
BRANCH  18  19
ATOM     19  O   LIG    1        2.091   1.163  -1.179  0.00  0.00    -0.385 OA
ATOM     20  H   LIG    1        2.146   0.200  -1.250  0.00  0.00    +0.210 HD
ENDBRANCH  18  19
BRANCH  18  21
ATOM     21  C   LIG    1        2.163   1.117   1.237  0.00  0.00    +0.172 C 
BRANCH  21  22
ATOM     22  O   LIG    1        1.492   1.575   2.412  0.00  0.00    -0.387 OA
ATOM     23  H   LIG    1        1.438   2.538   2.484  0.00  0.00    +0.210 HD
ENDBRANCH  21  22
BRANCH  21  24
ATOM     24  C   LIG    1        3.596   1.652   1.226  0.00  0.00    +0.189 C 
BRANCH  24  25
ATOM     25  O   LIG    1        4.323   1.089   2.320  0.00  0.00    -0.392 OA
ATOM     26  H   LIG    1        5.242   1.384   2.375  0.00  0.00    +0.210 HD
ENDBRANCH  24  25
ENDBRANCH  21  24
ENDBRANCH  18  21
ENDBRANCH   6  18
TORSDOF 10
