REMARK  Name = ZINC03861461
REMARK                            x       y       z     vdW  Elec       q    Type
REMARK                         _______ _______ _______ _____ _____    ______ ____
ROOT
ATOM      1  C   LIG    1       -5.891   3.423   1.607  0.00  0.00    +0.034 A 
ATOM      2  C   LIG    1       -4.680   4.064   1.385  0.00  0.00    +0.070 A 
ATOM      3  C   LIG    1       -3.536   3.320   1.140  0.00  0.00    +0.138 A 
ATOM      4  C   LIG    1       -3.624   1.914   1.119  0.00  0.00    +0.026 A 
ATOM      5  C   LIG    1       -2.418   1.119   0.860  0.00  0.00    +0.004 A 
ATOM      6  C   LIG    1       -1.212   1.810   0.641  0.00  0.00    +0.026 A 
ATOM      7  C   LIG    1       -0.016   1.105   0.387  0.00  0.00    +0.017 A 
ATOM      8  C   LIG    1        1.135   1.783   0.173  0.00  0.00    -0.025 A 
ATOM      9  C   LIG    1        2.411   1.032  -0.104  0.00  0.00    +0.046 C 
ATOM     10  C   LIG    1        1.140   3.245   0.212  0.00  0.00    +0.065 A 
ATOM     11  C   LIG    1       -0.053   3.952   0.471  0.00  0.00    +0.074 A 
ATOM     12  N   LIG    1        2.270   3.908   0.002  0.00  0.00    -0.284 NA
ATOM     13  C   LIG    1       -1.215   3.271   0.687  0.00  0.00    +0.138 A 
ATOM     14  C   LIG    1       -4.854   1.282   1.345  0.00  0.00    +0.017 A 
ATOM     15  O   LIG    1       -2.358   3.946   0.936  0.00  0.00    -0.455 OA
ATOM     16  C   LIG    1       -5.969   2.029   1.584  0.00  0.00    -0.029 A 
ATOM     17  C   LIG    1       -7.291   1.347   1.826  0.00  0.00    +0.045 C 
ENDROOT
BRANCH   5  18
ATOM     18  C   LIG    1       -2.468  -0.355   0.831  0.00  0.00    -0.003 A 
ATOM     19  C   LIG    1       -2.254  -1.088   1.999  0.00  0.00    +0.009 A 
ATOM     20  C   LIG    1       -2.306  -2.467   1.966  0.00  0.00    +0.001 A 
ATOM     21  C   LIG    1       -2.561  -3.132   0.778  0.00  0.00    +0.001 A 
ATOM     22  C   LIG    1       -2.772  -2.425  -0.389  0.00  0.00    +0.015 A 
ATOM     23  C   LIG    1       -2.728  -1.032  -0.378  0.00  0.00    +0.067 A 
BRANCH  23  24
ATOM     24  C   LIG    1       -2.951  -0.272  -1.623  0.00  0.00    +0.340 C 
ATOM     25  O   LIG    1       -2.911   0.943  -1.609  0.00  0.00    -0.245 OA
BRANCH  24  26
ATOM     26  O   LIG    1       -3.198  -0.924  -2.776  0.00  0.00    -0.461 OA
BRANCH  26  27
ATOM     27  C   LIG    1       -3.408  -0.111  -3.961  0.00  0.00    +0.229 C 
ATOM     28  C   LIG    1       -3.673  -1.021  -5.163  0.00  0.00    +0.048 C 
ENDBRANCH  26  27
ENDBRANCH  24  26
ENDBRANCH  23  24
ENDBRANCH   5  18
BRANCH   1  29
ATOM     29  N   LIG    1       -7.035   4.174   1.852  0.00  0.00    -0.344 N 
ATOM     30  H   LIG    1       -7.883   3.729   2.007  0.00  0.00    +0.146 HD
BRANCH  29  32
ATOM     31  C   LIG    1       -8.346   6.214   2.165  0.00  0.00    +0.024 C 
ATOM     32  C   LIG    1       -6.959   5.636   1.876  0.00  0.00    +0.098 C 
ENDBRANCH  29  32
ENDBRANCH   1  29
BRANCH  12  33
ATOM     33  C   LIG    1        2.254   5.369  -0.100  0.00  0.00    +0.139 C 
ATOM     34  C   LIG    1        2.789   5.791  -1.470  0.00  0.00    +0.029 C 
ENDBRANCH  12  33
TORSDOF 7
