REMARK  Name = ZINC03860823
REMARK                            x       y       z     vdW  Elec       q    Type
REMARK                         _______ _______ _______ _____ _____    ______ ____
ROOT
ATOM      1  C   LIG    1       -0.017   1.375   0.010  0.00  0.00    +0.001 A 
ATOM      2  C   LIG    1        1.173   2.089   0.002  0.00  0.00    +0.004 A 
ATOM      3  C   LIG    1        2.389   1.438  -0.017  0.00  0.00    +0.047 A 
ATOM      4  C   LIG    1        2.431   0.050  -0.028  0.00  0.00    +0.139 A 
ATOM      5  C   LIG    1        1.223  -0.670  -0.013  0.00  0.00    +0.065 A 
ATOM      6  C   LIG    1        1.305  -2.150  -0.002  0.00  0.00    +0.200 A 
ATOM      7  C   LIG    1        2.587  -2.689   0.509  0.00  0.00    +0.065 A 
ATOM      8  C   LIG    1        2.687  -3.979   1.021  0.00  0.00    +0.015 A 
ATOM      9  C   LIG    1        3.903  -4.429   1.490  0.00  0.00    +0.001 A 
ATOM     10  C   LIG    1        5.015  -3.601   1.452  0.00  0.00    +0.004 A 
ATOM     11  C   LIG    1        4.928  -2.322   0.943  0.00  0.00    +0.047 A 
ATOM     12  C   LIG    1        3.713  -1.849   0.462  0.00  0.00    +0.139 A 
ATOM     13  O   LIG    1        0.396  -2.863  -0.383  0.00  0.00    -0.286 OA
ATOM     14  O   LIG    1        3.613  -0.607  -0.061  0.00  0.00    -0.455 OA
ATOM     15  C   LIG    1        0.002  -0.004   0.002  0.00  0.00    +0.015 A 
ENDROOT
TORSDOF 0
