REMARK  Name = ZINC03793347
REMARK                            x       y       z     vdW  Elec       q    Type
REMARK                         _______ _______ _______ _____ _____    ______ ____
ROOT
ATOM      1  C   LIG    1        4.927   8.200  -1.255  0.00  0.00    -0.024 A 
ATOM      2  C   LIG    1        4.400   9.432  -1.187  0.00  0.00    +0.087 A 
ATOM      3  N   LIG    1        3.076   9.357  -0.851  0.00  0.00    -0.360 N 
ATOM      4  C   LIG    1        2.709   8.037  -0.690  0.00  0.00    +0.047 A 
ATOM      5  C   LIG    1        1.511   7.413  -0.357  0.00  0.00    +0.028 A 
ATOM      6  C   LIG    1        1.450   6.040  -0.270  0.00  0.00    +0.025 A 
ATOM      7  C   LIG    1        2.581   5.263  -0.514  0.00  0.00    +0.033 A 
ATOM      8  C   LIG    1        3.782   5.865  -0.841  0.00  0.00    +0.033 A 
ATOM      9  H   LIG    1        2.484  10.117  -0.741  0.00  0.00    +0.165 HD
ATOM     10  C   LIG    1        3.852   7.256  -0.936  0.00  0.00    +0.005 A 
ENDROOT
BRANCH   7  11
ATOM     11  N   LIG    1        2.502   3.868  -0.421  0.00  0.00    -0.298 N 
ATOM     12  H   LIG    1        3.261   3.360  -0.096  0.00  0.00    +0.154 HD
BRANCH  11  13
ATOM     13  C   LIG    1        1.334   3.212  -0.795  0.00  0.00    +0.153 A 
ATOM     14  C   LIG    1        1.218   1.840  -0.590  0.00  0.00    +0.161 A 
ATOM     15  C   LIG    1        0.052   1.200  -0.966  0.00  0.00    +0.037 A 
ATOM     16  C   LIG    1       -0.962   1.954  -1.543  0.00  0.00    +0.022 A 
ATOM     17  C   LIG    1       -0.781   3.312  -1.712  0.00  0.00    +0.113 A 
ATOM     18  N   LIG    1        0.343   3.897  -1.343  0.00  0.00    -0.238 NA
BRANCH  14  19
ATOM     19  N   LIG    1        2.328   1.077   0.024  0.00  0.00    +0.009 N 
ATOM     20  O   LIG    1        2.266  -0.137   0.096  0.00  0.00    -0.130 OA
BRANCH  19  21
ATOM     21  O   LIG    1        3.304   1.663   0.457  0.00  0.00    -0.396 OA
ATOM     22  H   LIG    1        3.352   2.598   0.402  0.00  0.00    +0.329 HD
ENDBRANCH  19  21
ENDBRANCH  14  19
ENDBRANCH  11  13
ENDBRANCH   7  11
BRANCH   1  23
ATOM     23  C   LIG    1        6.353   7.852  -1.595  0.00  0.00    +0.022 C 
BRANCH  23  27
ATOM     24  C   LIG    1        4.352   6.618  -3.871  0.00  0.00    -0.096 C 
ATOM     25  N   LIG    1        5.724   6.297  -3.399  0.00  0.00    +0.380 N 
ATOM     26  H   LIG    1        5.661   5.719  -2.553  0.00  0.00    -0.082 HD
ATOM     27  C   LIG    1        6.459   7.539  -3.089  0.00  0.00    -0.065 C 
ATOM     28  C   LIG    1        7.927   7.223  -3.471  0.00  0.00    -0.017 C 
ATOM     29  C   LIG    1        7.740   6.361  -4.747  0.00  0.00    -0.020 C 
ATOM     30  C   LIG    1        6.459   5.558  -4.439  0.00  0.00    -0.079 C 
ENDBRANCH  23  27
ENDBRANCH   1  23
TORSDOF 6
