REMARK  Name = ZINC03793091
REMARK                            x       y       z     vdW  Elec       q    Type
REMARK                         _______ _______ _______ _____ _____    ______ ____
ROOT
ATOM      1  C   LIG    1        3.556   0.696  -0.028  0.00  0.00    +0.110 C 
ATOM      2  C   LIG    1        4.112   1.455   1.214  0.00  0.00    +0.131 C 
ATOM      3  C   LIG    1        5.641   1.154   1.231  0.00  0.00    +0.035 C 
ATOM      4  C   LIG    1        6.170   2.001   0.046  0.00  0.00    +0.034 C 
ATOM      5  C   LIG    1        4.878   2.679  -0.499  0.00  0.00    +0.123 C 
ATOM      6  O   LIG    1        4.099   2.839   0.732  0.00  0.00    -0.372 OA
ATOM      7  C   LIG    1        4.086   1.542  -1.213  0.00  0.00    +0.037 C 
ENDROOT
BRANCH   1  11
ATOM      8  C   LIG    1        0.002  -0.004   0.002  0.00  0.00    +0.163 A 
ATOM      9  C   LIG    1       -0.016   1.357   0.009  0.00  0.00    +0.230 A 
ATOM     10  O   LIG    1        1.262   1.766  -0.001  0.00  0.00    -0.447 OA
ATOM     11  C   LIG    1        2.049   0.680  -0.014  0.00  0.00    +0.202 A 
ATOM     12  N   LIG    1        1.308  -0.387  -0.013  0.00  0.00    -0.208 NA
BRANCH   8  15
ATOM     13  N   LIG    1       -1.002  -2.233  -0.002  0.00  0.00    -0.310 N 
ATOM     14  H   LIG    1       -0.108  -2.608  -0.012  0.00  0.00    +0.149 HD
ATOM     15  C   LIG    1       -1.172  -0.896   0.008  0.00  0.00    +0.266 C 
ATOM     16  O   LIG    1       -2.293  -0.425   0.021  0.00  0.00    -0.268 OA
BRANCH  13  17
ATOM     17  C   LIG    1       -2.169  -3.119   0.004  0.00  0.00    +0.104 C 
BRANCH  17  18
ATOM     18  C   LIG    1       -1.702  -4.576  -0.009  0.00  0.00    +0.019 C 
BRANCH  18  19
ATOM     19  C   LIG    1       -2.920  -5.502  -0.003  0.00  0.00    +0.001 C 
BRANCH  19  21
ATOM     20  C   LIG    1       -3.672  -7.885  -0.009  0.00  0.00    +0.004 C 
ATOM     21  C   LIG    1       -2.454  -6.959  -0.015  0.00  0.00    -0.003 C 
ENDBRANCH  19  21
ENDBRANCH  18  19
ENDBRANCH  17  18
ENDBRANCH  13  17
ENDBRANCH   8  15
ENDBRANCH   1  11
BRANCH   7  22
ATOM     22  C   LIG    1        2.927   2.119  -2.028  0.00  0.00    +0.042 C 
BRANCH  22  23
ATOM     23  C   LIG    1        3.470   2.832  -3.239  0.00  0.00    -0.044 A 
ATOM     24  C   LIG    1        3.686   4.197  -3.199  0.00  0.00    +0.004 A 
ATOM     25  C   LIG    1        4.185   4.851  -4.309  0.00  0.00    +0.000 A 
ATOM     26  C   LIG    1        4.467   4.141  -5.461  0.00  0.00    +0.000 A 
ATOM     27  C   LIG    1        4.251   2.776  -5.502  0.00  0.00    +0.004 A 
ATOM     28  C   LIG    1        3.757   2.121  -4.389  0.00  0.00    -0.044 A 
BRANCH  28  29
ATOM     29  C   LIG    1        3.527   0.632  -4.431  0.00  0.00    +0.046 C 
BRANCH  29  30
ATOM     30  C   LIG    1        2.068   0.352  -4.798  0.00  0.00    +0.125 C 
BRANCH  30  31
ATOM     31  C   LIG    1        1.838  -1.137  -4.840  0.00  0.00    +0.305 C 
ATOM     32  O   LIG    1        2.748  -1.896  -4.602  0.00  0.00    -0.251 OA
BRANCH  31  33
ATOM     33  O   LIG    1        0.623  -1.620  -5.143  0.00  0.00    -0.481 OA
ATOM     34  H   LIG    1       -0.082  -1.031  -5.328  0.00  0.00    +0.295 HD
ENDBRANCH  31  33
ENDBRANCH  30  31
ENDBRANCH  29  30
ENDBRANCH  28  29
ENDBRANCH  22  23
ENDBRANCH   7  22
TORSDOF 12
