REMARK  Name = ZINC03861628
REMARK                            x       y       z     vdW  Elec       q    Type
REMARK                         _______ _______ _______ _____ _____    ______ ____
ROOT
ATOM      1  C   LIG    1        0.396   1.479  -0.053  0.00  0.00    +0.044 C 
ATOM      2  C   LIG    1        0.267  -0.022  -0.041  0.00  0.00    -0.049 A 
ATOM      3  C   LIG    1        0.104  -0.721  -1.229  0.00  0.00    +0.005 A 
ATOM      4  C   LIG    1       -0.014  -2.076  -1.251  0.00  0.00    +0.027 A 
ATOM      5  C   LIG    1        0.025  -2.826  -0.051  0.00  0.00    +0.056 A 
ATOM      6  C   LIG    1        0.192  -2.086   1.143  0.00  0.00    +0.038 A 
ATOM      7  S   LIG    1        0.190  -3.359   2.382  0.00  0.00    -0.069 S 
ATOM      8  C   LIG    1       -0.025  -4.747   1.276  0.00  0.00    +0.088 A 
ATOM      9  N   LIG    1       -0.077  -4.162   0.099  0.00  0.00    -0.337 N 
ATOM     10  C   LIG    1       -0.252  -4.993  -1.094  0.00  0.00    +0.150 C 
ATOM     11  C   LIG    1        0.316  -0.718   1.153  0.00  0.00    +0.020 A 
ENDROOT
BRANCH   8  12
ATOM     12  C   LIG    1       -0.120  -6.185   1.601  0.00  0.00    +0.005 A 
ATOM     13  C   LIG    1        0.643  -7.114   0.892  0.00  0.00    +0.012 A 
ATOM     14  C   LIG    1        0.553  -8.454   1.197  0.00  0.00    +0.024 A 
ATOM     15  C   LIG    1       -0.297  -8.882   2.212  0.00  0.00    +0.029 A 
ATOM     16  C   LIG    1       -1.059  -7.958   2.920  0.00  0.00    +0.024 A 
ATOM     17  C   LIG    1       -0.969  -6.617   2.623  0.00  0.00    +0.012 A 
BRANCH  15  18
ATOM     18  N   LIG    1       -0.387 -10.239   2.519  0.00  0.00    -0.336 N 
ATOM     19  C   LIG    1       -1.282 -10.691   3.587  0.00  0.00    +0.129 C 
ATOM     20  C   LIG    1        0.415 -11.213   1.773  0.00  0.00    +0.129 C 
ENDBRANCH  15  18
ENDBRANCH   8  12
TORSDOF 2
