REMARK  Name = ZINC03784127
REMARK                            x       y       z     vdW  Elec       q    Type
REMARK                         _______ _______ _______ _____ _____    ______ ____
ROOT
ATOM      1  C   LIG    1       -4.584  -6.437   0.545  0.00  0.00    -0.024 A 
ATOM      2  C   LIG    1       -4.248  -7.461  -0.323  0.00  0.00    +0.005 A 
ATOM      3  C   LIG    1       -4.512  -8.777   0.013  0.00  0.00    +0.001 A 
ATOM      4  C   LIG    1       -5.114  -9.077   1.218  0.00  0.00    +0.008 A 
ATOM      5  C   LIG    1       -5.456  -8.049   2.099  0.00  0.00    -0.025 A 
ATOM      6  C   LIG    1       -5.181  -6.722   1.755  0.00  0.00    +0.013 A 
ENDROOT
BRANCH   5   7
ATOM      7  C   LIG    1       -6.099  -8.361   3.388  0.00  0.00    +0.010 C 
ATOM      8  C   LIG    1       -6.359  -9.638   3.717  0.00  0.00    +0.028 C 
BRANCH   8   9
ATOM      9  C   LIG    1       -7.001  -9.950   5.004  0.00  0.00    +0.065 A 
ATOM     10  C   LIG    1       -7.261 -11.293   5.337  0.00  0.00    +0.028 A 
ATOM     11  C   LIG    1       -7.855 -11.593   6.524  0.00  0.00    +0.012 A 
ATOM     12  C   LIG    1       -8.194 -10.534   7.391  0.00  0.00    +0.001 A 
ATOM     13  C   LIG    1       -8.807 -10.776   8.630  0.00  0.00    +0.011 A 
ATOM     14  C   LIG    1       -9.121  -9.729   9.443  0.00  0.00    +0.021 A 
ATOM     15  C   LIG    1       -8.841  -8.418   9.061  0.00  0.00    +0.043 A 
ATOM     16 CL   LIG    1       -9.257  -7.111  10.125  0.00  0.00    -0.083 Cl
ATOM     17  C   LIG    1       -8.246  -8.146   7.866  0.00  0.00    +0.048 A 
ATOM     18  C   LIG    1       -7.907  -9.202   7.000  0.00  0.00    +0.073 A 
ATOM     19  N   LIG    1       -7.318  -8.963   5.825  0.00  0.00    -0.247 NA
ENDBRANCH   8   9
ENDBRANCH   5   7
BRANCH   1  20
ATOM     20  C   LIG    1       -4.292  -5.007   0.170  0.00  0.00    +0.133 C 
BRANCH  20  21
ATOM     21  S   LIG    1       -2.508  -4.803  -0.091  0.00  0.00    -0.141 S 
BRANCH  21  22
ATOM     22  C   LIG    1       -2.305  -3.020  -0.359  0.00  0.00    +0.080 C 
BRANCH  22  23
ATOM     23  C   LIG    1       -0.816  -2.688  -0.470  0.00  0.00    +0.106 C 
BRANCH  23  26
ATOM     24  C   LIG    1        0.751   0.759  -1.038  0.00  0.00    +0.131 C 
ATOM     25  N   LIG    1        0.587  -0.681  -0.821  0.00  0.00    -0.308 N 
ATOM     26  C   LIG    1       -0.647  -1.207  -0.693  0.00  0.00    +0.216 C 
ATOM     27  O   LIG    1       -1.622  -0.488  -0.757  0.00  0.00    -0.276 OA
ATOM     28  C   LIG    1        1.765  -1.549  -0.743  0.00  0.00    +0.131 C 
ENDBRANCH  23  26
ENDBRANCH  22  23
ENDBRANCH  21  22
ENDBRANCH  20  21
BRANCH  20  29
ATOM     29  S   LIG    1       -5.178  -4.590  -1.357  0.00  0.00    -0.141 S 
BRANCH  29  30
ATOM     30  C   LIG    1       -6.898  -4.376  -0.822  0.00  0.00    +0.081 C 
BRANCH  30  31
ATOM     31  C   LIG    1       -7.743  -3.895  -2.003  0.00  0.00    +0.131 C 
BRANCH  31  32
ATOM     32  C   LIG    1       -9.172  -3.718  -1.559  0.00  0.00    +0.305 C 
ATOM     33  O   LIG    1       -9.486  -3.954  -0.405  0.00  0.00    -0.251 OA
BRANCH  32  34
ATOM     34  O   LIG    1      -10.015  -3.338  -2.354  0.00  0.00    -0.481 OA
ATOM     35  H   LIG    1       -9.774  -3.156  -3.241  0.00  0.00    +0.295 HD
ENDBRANCH  32  34
ENDBRANCH  31  32
ENDBRANCH  30  31
ENDBRANCH  29  30
ENDBRANCH  20  29
ENDBRANCH   1  20
TORSDOF 12
