REMARK  Name = ZINC03814313
REMARK                            x       y       z     vdW  Elec       q    Type
REMARK                         _______ _______ _______ _____ _____    ______ ____
ROOT
ATOM      1  C   LIG    1       -0.017   1.386   0.010  0.00  0.00    +0.044 A 
ATOM      2  C   LIG    1        1.178   2.082   0.002  0.00  0.00    +0.115 A 
ATOM      3  N   LIG    1        2.338   1.457  -0.013  0.00  0.00    -0.236 NA
ATOM      4  C   LIG    1        2.417   0.134  -0.021  0.00  0.00    +0.164 A 
ATOM      5  C   LIG    1        1.252  -0.647  -0.013  0.00  0.00    +0.128 A 
ATOM      6  N   LIG    1        1.639  -1.948  -0.024  0.00  0.00    -0.232 NA
ATOM      7  C   LIG    1        2.938  -2.013  -0.037  0.00  0.00    +0.203 A 
ATOM      8  N   LIG    1        3.468  -0.758  -0.036  0.00  0.00    -0.286 N 
ATOM      9  C   LIG    1        0.002  -0.004   0.002  0.00  0.00    +0.055 A 
ENDROOT
BRANCH   8  10
ATOM     10  C1* LIG    1        4.893  -0.418  -0.049  0.00  0.00    +0.253 C 
ATOM     11  C2* LIG    1        5.410  -0.216   1.393  0.00  0.00    +0.195 C 
ATOM     12  C3* LIG    1        6.837  -0.809   1.366  0.00  0.00    +0.178 C 
ATOM     13  C4* LIG    1        7.012  -1.300  -0.088  0.00  0.00    +0.177 C 
ATOM     14  O4* LIG    1        5.668  -1.519  -0.571  0.00  0.00    -0.346 OA
BRANCH  11  15
ATOM     15  O2* LIG    1        5.450   1.175   1.720  0.00  0.00    -0.385 OA
ATOM     16  H2* LIG    1        5.767   1.359   2.615  0.00  0.00    +0.210 HD
ENDBRANCH  11  15
BRANCH  12  17
ATOM     17  O3* LIG    1        7.803   0.196   1.678  0.00  0.00    -0.386 OA
ATOM     18  H3* LIG    1        8.716  -0.122   1.676  0.00  0.00    +0.210 HD
ENDBRANCH  12  17
BRANCH  13  19
ATOM     19  C5* LIG    1        7.812  -2.604  -0.118  0.00  0.00    +0.190 C 
BRANCH  19  20
ATOM     20  O5* LIG    1        8.062  -2.978  -1.474  0.00  0.00    -0.392 OA
ATOM     21  H5* LIG    1        8.566  -3.798  -1.569  0.00  0.00    +0.210 HD
ENDBRANCH  19  20
ENDBRANCH  13  19
ENDBRANCH   8  10
BRANCH   9  22
ATOM     22  N   LIG    1       -1.180  -0.736   0.010  0.00  0.00    -0.356 N 
ATOM     23  H   LIG    1       -1.151  -1.706   0.004  0.00  0.00    +0.142 HD
ATOM     24  H   LIG    1       -2.035  -0.278   0.021  0.00  0.00    +0.142 HD
ENDBRANCH   9  22
TORSDOF 6
