REMARK  Name = ZINC03830714
REMARK                            x       y       z     vdW  Elec       q    Type
REMARK                         _______ _______ _______ _____ _____    ______ ____
ROOT
ATOM      1  C   LIG    1        1.182   1.924   0.108  0.00  0.00    +0.051 C 
ATOM      2  C   LIG    1       -0.336   1.620   0.181  0.00  0.00    +0.129 C 
ATOM      3  C   LIG    1       -0.748   2.306   1.507  0.00  0.00    +0.106 C 
ATOM      4  C   LIG    1        0.425   2.061   2.440  0.00  0.00    +0.140 C 
ATOM      5  O   LIG    1        0.390   2.055   3.647  0.00  0.00    -0.297 OA
ATOM      6  C   LIG    1        1.646   1.825   1.577  0.00  0.00    +0.068 C 
ENDROOT
BRANCH   1   8
ATOM      7  C   LIG    1        2.562   1.279  -1.800  0.00  0.00    -0.000 C 
ATOM      8  C   LIG    1        1.887   0.900  -0.743  0.00  0.00    -0.022 C 
BRANCH   7   9
ATOM      9  C   LIG    1        3.267   0.255  -2.652  0.00  0.00    +0.137 C 
BRANCH   9  10
ATOM     10  O   LIG    1        4.668   0.537  -2.675  0.00  0.00    -0.388 OA
ATOM     11  H   LIG    1        4.888   1.408  -3.034  0.00  0.00    +0.210 HD
ENDBRANCH   9  10
BRANCH   9  12
ATOM     12  C   LIG    1        2.713   0.308  -4.077  0.00  0.00    +0.035 C 
BRANCH  12  13
ATOM     13  C   LIG    1        3.338  -0.813  -4.909  0.00  0.00    +0.003 C 
BRANCH  13  14
ATOM     14  C   LIG    1        2.784  -0.760  -6.335  0.00  0.00    -0.000 C 
BRANCH  14  16
ATOM     15  C   LIG    1        2.855  -1.828  -8.592  0.00  0.00    +0.004 C 
ATOM     16  C   LIG    1        3.409  -1.881  -7.167  0.00  0.00    -0.003 C 
ENDBRANCH  14  16
ENDBRANCH  13  14
ENDBRANCH  12  13
ENDBRANCH   9  12
ENDBRANCH   7   9
ENDBRANCH   1   8
BRANCH   2  17
ATOM     17  O   LIG    1       -1.023   2.198  -0.931  0.00  0.00    -0.391 OA
ATOM     18  H   LIG    1       -1.982   2.072  -0.909  0.00  0.00    +0.210 HD
ENDBRANCH   2  17
BRANCH   6  19
ATOM     19  C   LIG    1        2.704   2.892   1.864  0.00  0.00    +0.038 C 
BRANCH  19  20
ATOM     20  C   LIG    1        3.237   2.707   3.261  0.00  0.00    -0.030 C 
ATOM     21  C   LIG    1        4.529   2.621   3.463  0.00  0.00    -0.031 C 
BRANCH  21  22
ATOM     22  C   LIG    1        5.488   2.873   2.328  0.00  0.00    +0.027 C 
BRANCH  22  23
ATOM     23  C   LIG    1        6.502   3.940   2.745  0.00  0.00    +0.015 C 
BRANCH  23  24
ATOM     24  C   LIG    1        7.475   4.196   1.592  0.00  0.00    +0.121 C 
BRANCH  24  25
ATOM     25  C   LIG    1        8.475   5.247   2.003  0.00  0.00    +0.305 C 
ATOM     26  O   LIG    1        8.415   5.740   3.104  0.00  0.00    -0.251 OA
BRANCH  25  27
ATOM     27  O   LIG    1        9.431   5.634   1.145  0.00  0.00    -0.481 OA
ATOM     28  H   LIG    1        9.478   5.251   0.291  0.00  0.00    +0.295 HD
ENDBRANCH  25  27
ENDBRANCH  24  25
ENDBRANCH  23  24
ENDBRANCH  22  23
ENDBRANCH  21  22
ENDBRANCH  19  20
ENDBRANCH   6  19
TORSDOF 15
