REMARK  Name = ZINC03790076
REMARK                            x       y       z     vdW  Elec       q    Type
REMARK                         _______ _______ _______ _____ _____    ______ ____
ROOT
ATOM      1  C   LIG    1       -0.652  -0.538   1.278  0.00  0.00    +0.043 C 
ATOM      2  C   LIG    1        0.002  -0.004   0.002  0.00  0.00    +0.141 C 
ATOM      3  C   LIG    1       -0.189   1.498  -0.083  0.00  0.00    -0.046 C 
ATOM      4  C   LIG    1        1.222   2.075  -0.055  0.00  0.00    +0.067 C 
ATOM      5  C   LIG    1        2.036   0.920   0.564  0.00  0.00    +0.071 C 
ATOM      6  C   LIG    1        3.493   1.006   0.126  0.00  0.00    +0.017 C 
ATOM      7  C   LIG    1        4.289  -0.125   0.785  0.00  0.00    -0.076 C 
ATOM      8  N   LIG    1        4.178   0.006   2.254  0.00  0.00    +0.378 N 
ATOM      9  H   LIG    1        4.487   0.946   2.528  0.00  0.00    -0.082 HD
ATOM     10  C   LIG    1        5.040  -0.994   2.916  0.00  0.00    -0.096 C 
ATOM     11  C   LIG    1        2.773  -0.178   2.677  0.00  0.00    -0.076 C 
ATOM     12  C   LIG    1        1.925   0.950   2.083  0.00  0.00    +0.017 C 
ATOM     13  C   LIG    1       -1.319   2.156  -0.168  0.00  0.00    +0.010 C 
ATOM     14  O   LIG    1        1.417  -0.264   0.034  0.00  0.00    -0.366 OA
ENDROOT
TORSDOF 0
