REMARK  Name = ZINC03780994
REMARK                            x       y       z     vdW  Elec       q    Type
REMARK                         _______ _______ _______ _____ _____    ______ ____
ROOT
ATOM      1  C   LIG    1       -2.696   4.073   0.360  0.00  0.00    +0.160 C 
ENDROOT
BRANCH   1   2
ATOM      2  N   LIG    1       -1.442   3.385   0.679  0.00  0.00    -0.300 N 
ATOM      3  H   LIG    1       -0.617   3.890   0.751  0.00  0.00    +0.150 HD
ATOM      4  C   LIG    1       -1.435   2.052   0.873  0.00  0.00    +0.245 C 
ATOM      5  O   LIG    1       -2.469   1.419   0.783  0.00  0.00    -0.270 OA
BRANCH   4   6
ATOM      6  C   LIG    1       -0.171   1.358   1.195  0.00  0.00    +0.037 A 
ATOM      7  C   LIG    1        1.024   2.095   1.292  0.00  0.00    +0.013 A 
ATOM      8  C   LIG    1        2.199   1.480   1.581  0.00  0.00    +0.009 A 
ATOM      9  C   LIG    1        2.233   0.088   1.787  0.00  0.00    -0.018 A 
ATOM     10  C   LIG    1        3.438  -0.570   2.087  0.00  0.00    +0.008 A 
ATOM     11  C   LIG    1        3.440  -1.917   2.281  0.00  0.00    +0.001 A 
ATOM     12  C   LIG    1        2.263  -2.658   2.188  0.00  0.00    +0.001 A 
ATOM     13  C   LIG    1        1.078  -2.056   1.899  0.00  0.00    +0.008 A 
ATOM     14  C   LIG    1        1.036  -0.665   1.692  0.00  0.00    -0.017 A 
ATOM     15  C   LIG    1       -0.170  -0.012   1.393  0.00  0.00    +0.021 A 
ENDBRANCH   4   6
ENDBRANCH   1   2
BRANCH   1  17
ATOM     16  N   LIG    1       -3.718   6.260   0.902  0.00  0.00    -0.300 N 
ATOM     17  C   LIG    1       -2.600   5.516   0.785  0.00  0.00    +0.236 C 
ATOM     18  O   LIG    1       -1.517   6.007   1.021  0.00  0.00    -0.274 OA
BRANCH  16  19
ATOM     19  C   LIG    1       -3.619   7.680   1.247  0.00  0.00    +0.108 C 
BRANCH  19  20
ATOM     20  C   LIG    1       -3.389   8.499  -0.025  0.00  0.00    +0.019 C 
BRANCH  20  21
ATOM     21  C   LIG    1       -3.286   9.982   0.336  0.00  0.00    +0.001 C 
BRANCH  21  23
ATOM     22  C   LIG    1       -2.953  12.285  -0.576  0.00  0.00    +0.004 C 
ATOM     23  C   LIG    1       -3.056  10.801  -0.936  0.00  0.00    -0.003 C 
ENDBRANCH  21  23
ENDBRANCH  20  21
ENDBRANCH  19  20
ENDBRANCH  16  19
BRANCH  16  24
ATOM     24  C   LIG    1       -5.031   5.648   0.683  0.00  0.00    +0.108 C 
BRANCH  24  25
ATOM     25  C   LIG    1       -5.547   5.065   2.001  0.00  0.00    +0.019 C 
BRANCH  25  26
ATOM     26  C   LIG    1       -6.919   4.426   1.773  0.00  0.00    +0.001 C 
BRANCH  26  27
ATOM     27  C   LIG    1       -7.435   3.844   3.090  0.00  0.00    -0.003 C 
ATOM     28  C   LIG    1       -8.807   3.205   2.862  0.00  0.00    +0.004 C 
ENDBRANCH  26  27
ENDBRANCH  25  26
ENDBRANCH  24  25
ENDBRANCH  16  24
ENDBRANCH   1  17
BRANCH   1  29
ATOM     29  C   LIG    1       -2.948   4.000  -1.147  0.00  0.00    +0.043 C 
BRANCH  29  30
ATOM     30  C   LIG    1       -3.185   2.545  -1.555  0.00  0.00    +0.123 C 
BRANCH  30  31
ATOM     31  C   LIG    1       -3.433   2.473  -3.039  0.00  0.00    +0.305 C 
ATOM     32  O   LIG    1       -3.422   3.483  -3.703  0.00  0.00    -0.251 OA
BRANCH  31  33
ATOM     33  O   LIG    1       -3.667   1.288  -3.625  0.00  0.00    -0.481 OA
ATOM     34  H   LIG    1       -3.676   0.505  -3.110  0.00  0.00    +0.295 HD
ENDBRANCH  31  33
ENDBRANCH  30  31
ENDBRANCH  29  30
ENDBRANCH   1  29
TORSDOF 15
