REMARK  Name = ZINC03871176
REMARK                            x       y       z     vdW  Elec       q    Type
REMARK                         _______ _______ _______ _____ _____    ______ ____
ROOT
ATOM      1  C   LIG    1        3.695  -0.683  -0.037  0.00  0.00    +0.139 A 
ATOM      2  C   LIG    1        3.686  -2.043  -0.050  0.00  0.00    +0.098 A 
ATOM      3  C   LIG    1        4.913  -2.748  -0.067  0.00  0.00    +0.193 A 
ATOM      4  C   LIG    1        6.154  -1.950  -0.069  0.00  0.00    +0.068 A 
ATOM      5  C   LIG    1        7.408  -2.562  -0.086  0.00  0.00    +0.064 A 
ATOM      6  C   LIG    1        8.546  -1.783  -0.088  0.00  0.00    +0.159 A 
ATOM      7  C   LIG    1        8.443  -0.390  -0.074  0.00  0.00    +0.162 A 
ATOM      8  C   LIG    1        7.203   0.222  -0.057  0.00  0.00    +0.096 A 
ATOM      9  C   LIG    1        6.049  -0.549  -0.055  0.00  0.00    +0.143 A 
ATOM     10  O   LIG    1        4.944  -3.967  -0.079  0.00  0.00    -0.287 OA
ATOM     11  O   LIG    1        4.830   0.032  -0.045  0.00  0.00    -0.454 OA
ENDROOT
BRANCH   1  15
ATOM     12  C   LIG    1       -0.017   1.379   0.010  0.00  0.00    +0.000 A 
ATOM     13  C   LIG    1        1.168   2.094   0.002  0.00  0.00    +0.001 A 
ATOM     14  C   LIG    1        2.377   1.430  -0.013  0.00  0.00    +0.011 A 
ATOM     15  C   LIG    1        2.404   0.034  -0.021  0.00  0.00    +0.017 A 
ATOM     16  C   LIG    1        1.204  -0.681  -0.013  0.00  0.00    +0.011 A 
ATOM     17  C   LIG    1        0.002  -0.004   0.002  0.00  0.00    +0.001 A 
ENDBRANCH   1  15
BRANCH   6  18
ATOM     18  O   LIG    1        9.772  -2.373  -0.104  0.00  0.00    -0.503 OA
ATOM     19  H   LIG    1       10.119  -2.535  -0.992  0.00  0.00    +0.292 HD
ENDBRANCH   6  18
BRANCH   7  20
ATOM     20  O   LIG    1        9.569   0.370  -0.076  0.00  0.00    -0.503 OA
ATOM     21  H   LIG    1        9.888   0.598  -0.960  0.00  0.00    +0.292 HD
ENDBRANCH   7  20
TORSDOF 3
