REMARK  Name = ZINC03831511
REMARK                            x       y       z     vdW  Elec       q    Type
REMARK                         _______ _______ _______ _____ _____    ______ ____
ROOT
ATOM      1  N   LIG    1        6.405  -1.270  -9.631  0.00  0.00    +0.380 N 
ATOM      2  H   LIG    1        7.184  -1.797  -9.997  0.00  0.00    -0.082 HD
ATOM      3  C   LIG    1        5.192  -2.096  -9.683  0.00  0.00    -0.078 C 
ATOM      4  C   LIG    1        4.946  -2.556 -11.122  0.00  0.00    -0.012 C 
ATOM      5  C   LIG    1        4.769  -1.329 -12.021  0.00  0.00    +0.026 C 
ATOM      6  C   LIG    1        6.009  -0.438 -11.901  0.00  0.00    -0.012 C 
ATOM      7  C   LIG    1        6.216  -0.056 -10.434  0.00  0.00    -0.078 C 
ENDROOT
BRANCH   1   8
ATOM      8  C   LIG    1        6.681  -0.896  -8.238  0.00  0.00    -0.079 C 
BRANCH   8   9
ATOM      9  C   LIG    1        7.001  -2.153  -7.426  0.00  0.00    -0.016 C 
BRANCH   9  10
ATOM     10  C   LIG    1        7.289  -1.763  -5.974  0.00  0.00    +0.034 C 
BRANCH  10  11
ATOM     11  C   LIG    1        7.609  -3.020  -5.163  0.00  0.00    +0.144 C 
BRANCH  11  15
ATOM     12  C   LIG    1        8.070  -1.979  -1.046  0.00  0.00    -0.042 A 
ATOM     13  C   LIG    1        6.881  -2.526  -1.491  0.00  0.00    +0.004 A 
ATOM     14  C   LIG    1        6.732  -2.863  -2.824  0.00  0.00    +0.006 A 
ATOM     15  C   LIG    1        7.771  -2.652  -3.710  0.00  0.00    -0.019 A 
ATOM     16  C   LIG    1        8.960  -2.104  -3.265  0.00  0.00    +0.006 A 
ATOM     17  C   LIG    1        9.107  -1.764  -1.933  0.00  0.00    +0.004 A 
BRANCH  12  19
ATOM     18  C   LIG    1        8.516  -0.113   0.526  0.00  0.00    +0.015 C 
ATOM     19  C   LIG    1        8.233  -1.612   0.407  0.00  0.00    -0.013 C 
ATOM     20  C   LIG    1        6.948  -1.950   1.166  0.00  0.00    +0.015 C 
ATOM     21  C   LIG    1        9.400  -2.400   1.004  0.00  0.00    +0.015 C 
ENDBRANCH  12  19
ENDBRANCH  11  15
BRANCH  11  22
ATOM     22  O   LIG    1        8.821  -3.603  -5.645  0.00  0.00    -0.387 OA
ATOM     23  H   LIG    1        9.590  -3.020  -5.583  0.00  0.00    +0.210 HD
ENDBRANCH  11  22
ENDBRANCH  10  11
ENDBRANCH   9  10
ENDBRANCH   8   9
ENDBRANCH   1   8
BRANCH   5  24
ATOM     24  C   LIG    1        4.601  -1.779 -13.473  0.00  0.00    +0.119 C 
BRANCH  24  25
ATOM     25  C   LIG    1        4.416  -0.571 -14.356  0.00  0.00    -0.011 A 
ATOM     26  C   LIG    1        3.464   0.379 -14.036  0.00  0.00    +0.007 A 
ATOM     27  C   LIG    1        3.294   1.487 -14.845  0.00  0.00    +0.000 A 
ATOM     28  C   LIG    1        4.077   1.645 -15.973  0.00  0.00    +0.000 A 
ATOM     29  C   LIG    1        5.029   0.696 -16.293  0.00  0.00    +0.000 A 
ATOM     30  C   LIG    1        5.202  -0.410 -15.481  0.00  0.00    +0.007 A 
ENDBRANCH  24  25
BRANCH  24  31
ATOM     31  C   LIG    1        3.393  -2.673 -13.586  0.00  0.00    -0.011 A 
ATOM     32  C   LIG    1        2.180  -2.264 -13.063  0.00  0.00    +0.007 A 
ATOM     33  C   LIG    1        1.072  -3.084 -13.166  0.00  0.00    +0.000 A 
ATOM     34  C   LIG    1        1.176  -4.312 -13.792  0.00  0.00    +0.000 A 
ATOM     35  C   LIG    1        2.389  -4.720 -14.316  0.00  0.00    +0.000 A 
ATOM     36  C   LIG    1        3.496  -3.898 -14.216  0.00  0.00    +0.007 A 
ENDBRANCH  24  31
BRANCH  24  37
ATOM     37  O   LIG    1        5.765  -2.497 -13.887  0.00  0.00    -0.379 OA
ATOM     38  H   LIG    1        5.946  -3.289 -13.362  0.00  0.00    +0.211 HD
ENDBRANCH  24  37
ENDBRANCH   5  24
TORSDOF 11
