REMARK  Name = ZINC03815313
REMARK                            x       y       z     vdW  Elec       q    Type
REMARK                         _______ _______ _______ _____ _____    ______ ____
ROOT
ATOM      1  C   LIG    1       -1.271   3.144   0.007  0.00  0.00    +0.060 A 
ATOM      2  C   LIG    1       -0.550   2.863   1.191  0.00  0.00    +0.026 A 
ATOM      3  C   LIG    1       -1.022   3.287   2.442  0.00  0.00    +0.061 A 
ATOM      4  C   LIG    1       -0.306   3.004   3.569  0.00  0.00    +0.162 A 
ATOM      5  C   LIG    1        0.899   2.292   3.489  0.00  0.00    +0.164 A 
ATOM      6  C   LIG    1        1.383   1.864   2.274  0.00  0.00    +0.077 A 
ATOM      7  C   LIG    1        0.666   2.144   1.101  0.00  0.00    +0.077 A 
ATOM      8  N   LIG    1        1.123   1.737  -0.093  0.00  0.00    -0.253 NA
ATOM      9  C   LIG    1        0.476   1.983  -1.204  0.00  0.00    +0.132 A 
ATOM     10  C   LIG    1       -0.734   2.694  -1.209  0.00  0.00    +0.091 A 
ENDROOT
BRANCH   1  11
ATOM     11  N   LIG    1       -2.462   3.842   0.046  0.00  0.00    -0.313 N 
ATOM     12  H   LIG    1       -2.464   4.804  -0.079  0.00  0.00    +0.152 HD
BRANCH  11  16
ATOM     13  C   LIG    1       -6.042   1.818   0.697  0.00  0.00    -0.045 A 
ATOM     14  C   LIG    1       -6.058   3.167   0.393  0.00  0.00    +0.006 A 
ATOM     15  C   LIG    1       -4.872   3.841   0.177  0.00  0.00    +0.023 A 
ATOM     16  C   LIG    1       -3.663   3.163   0.264  0.00  0.00    +0.031 A 
ATOM     17  C   LIG    1       -3.652   1.806   0.564  0.00  0.00    +0.023 A 
ATOM     18  C   LIG    1       -4.841   1.139   0.785  0.00  0.00    +0.006 A 
BRANCH  13  20
ATOM     19  C   LIG    1       -7.477  -0.047  -0.085  0.00  0.00    +0.012 C 
ATOM     20  C   LIG    1       -7.338   1.085   0.934  0.00  0.00    +0.013 C 
ATOM     21  C   LIG    1       -7.343   0.502   2.348  0.00  0.00    +0.012 C 
ENDBRANCH  13  20
ENDBRANCH  11  16
ENDBRANCH   1  11
BRANCH   4  22
ATOM     22  O   LIG    1       -0.767   3.415   4.781  0.00  0.00    -0.491 OA
ATOM     23  C   LIG    1       -2.001   4.136   4.795  0.00  0.00    +0.277 C 
ENDBRANCH   4  22
BRANCH   5  24
ATOM     24  O   LIG    1        1.595   2.020   4.623  0.00  0.00    -0.491 OA
ATOM     25  C   LIG    1        2.816   1.291   4.476  0.00  0.00    +0.277 C 
ENDBRANCH   5  24
BRANCH  10  26
ATOM     26  C   LIG    1       -1.416   2.953  -2.441  0.00  0.00    +0.103 C 
ATOM     27  N   LIG    1       -1.957   3.158  -3.418  0.00  0.00    -0.191 NA
ENDBRANCH  10  26
TORSDOF 6
