REMARK  Name = ZINC03803443
REMARK                            x       y       z     vdW  Elec       q    Type
REMARK                         _______ _______ _______ _____ _____    ______ ____
ROOT
ATOM      1  C   LIG    1        5.308  -1.599   1.465  0.00  0.00    +0.404 C 
ATOM      2  N   LIG    1        5.770  -1.857   2.704  0.00  0.00    -0.256 N 
ATOM      3  C   LIG    1        5.101  -1.488   3.965  0.00  0.00    +0.112 C 
ATOM      4  C   LIG    1        6.239  -1.421   5.014  0.00  0.00    +0.021 C 
ATOM      5  C   LIG    1        7.150  -2.593   4.561  0.00  0.00    +0.033 C 
ATOM      6  C   LIG    1        7.023  -2.557   3.023  0.00  0.00    +0.165 C 
ATOM      7  O   LIG    1        5.944  -1.955   0.493  0.00  0.00    -0.226 OA
ENDROOT
BRANCH   6   8
ATOM      8  C   LIG    1        6.978  -3.961   2.477  0.00  0.00    +0.237 C 
ATOM      9  N   LIG    1        8.121  -4.657   2.314  0.00  0.00    -0.290 N 
ATOM     10  C   LIG    1        9.476  -4.172   2.633  0.00  0.00    +0.108 C 
ATOM     11  C   LIG    1       10.310  -5.455   2.872  0.00  0.00    +0.021 C 
ATOM     12  C   LIG    1        9.715  -6.416   1.809  0.00  0.00    +0.031 C 
ATOM     13  C   LIG    1        8.221  -6.029   1.794  0.00  0.00    +0.139 C 
ATOM     14  O   LIG    1        5.914  -4.464   2.184  0.00  0.00    -0.274 OA
BRANCH  13  15
ATOM     15  C   LIG    1        7.436  -6.969   2.672  0.00  0.00    +0.245 C 
ATOM     16  O   LIG    1        6.582  -7.674   2.190  0.00  0.00    -0.299 OA
ENDBRANCH  13  15
ENDBRANCH   6   8
BRANCH   1  17
ATOM     17  O   LIG    1        4.141  -0.946   1.304  0.00  0.00    -0.445 OA
BRANCH  17  18
ATOM     18  C   LIG    1        3.711  -0.707  -0.038  0.00  0.00    +0.269 C 
BRANCH  18  22
ATOM     19  C   LIG    1       -0.017   1.378   0.010  0.00  0.00    +0.000 A 
ATOM     20  C   LIG    1        1.171   2.086   0.002  0.00  0.00    +0.000 A 
ATOM     21  C   LIG    1        2.377   1.411  -0.013  0.00  0.00    +0.007 A 
ATOM     22  C   LIG    1        2.396   0.029  -0.020  0.00  0.00    -0.010 A 
ATOM     23  C   LIG    1        1.208  -0.679  -0.012  0.00  0.00    +0.007 A 
ATOM     24  C   LIG    1        0.002  -0.004   0.002  0.00  0.00    +0.000 A 
ENDBRANCH  18  22
ENDBRANCH  17  18
ENDBRANCH   1  17
TORSDOF 5
