REMARK  Name = ZINC03831317
REMARK                            x       y       z     vdW  Elec       q    Type
REMARK                         _______ _______ _______ _____ _____    ______ ____
ROOT
ATOM      1  C   LIG    1       -0.017   1.376   0.010  0.00  0.00    +0.001 A 
ATOM      2  C   LIG    1        1.169   2.090   0.002  0.00  0.00    +0.000 A 
ATOM      3  C   LIG    1        2.384   1.426  -0.013  0.00  0.00    +0.009 A 
ATOM      4  C   LIG    1        2.414   0.051  -0.021  0.00  0.00    +0.019 A 
ATOM      5  C   LIG    1        1.223  -0.680  -0.013  0.00  0.00    +0.067 A 
ATOM      6  C   LIG    1        1.577  -2.111  -0.024  0.00  0.00    +0.341 C 
ATOM      7  O   LIG    1        2.913  -2.254  -0.038  0.00  0.00    -0.440 OA
ATOM      8  O   LIG    1        0.778  -3.026  -0.021  0.00  0.00    -0.245 OA
ATOM      9  C   LIG    1        3.529  -0.963  -0.037  0.00  0.00    +0.190 C 
ATOM     10  C   LIG    1        0.002  -0.004   0.002  0.00  0.00    +0.015 A 
ENDROOT
BRANCH   9  11
ATOM     11  C   LIG    1        4.365  -0.791  -1.279  0.00  0.00    +0.005 A 
ATOM     12  C   LIG    1        4.500   0.460  -1.852  0.00  0.00    +0.012 A 
ATOM     13  C   LIG    1        5.265   0.621  -2.991  0.00  0.00    +0.046 A 
ATOM     14  C   LIG    1        5.899  -0.474  -3.559  0.00  0.00    +0.117 A 
ATOM     15  C   LIG    1        5.763  -1.728  -2.982  0.00  0.00    +0.046 A 
ATOM     16  C   LIG    1        5.001  -1.883  -1.840  0.00  0.00    +0.012 A 
BRANCH  14  17
ATOM     17  O   LIG    1        6.652  -0.319  -4.680  0.00  0.00    -0.507 OA
ATOM     18  H   LIG    1        7.582  -0.121  -4.504  0.00  0.00    +0.292 HD
ENDBRANCH  14  17
ENDBRANCH   9  11
BRANCH   9  19
ATOM     19  C   LIG    1        4.389  -0.803   1.190  0.00  0.00    +0.005 A 
ATOM     20  C   LIG    1        4.526   0.440   1.780  0.00  0.00    +0.012 A 
ATOM     21  C   LIG    1        5.314   0.589   2.905  0.00  0.00    +0.046 A 
ATOM     22  C   LIG    1        5.968  -0.509   3.442  0.00  0.00    +0.117 A 
ATOM     23  C   LIG    1        5.829  -1.756   2.849  0.00  0.00    +0.046 A 
ATOM     24  C   LIG    1        5.036  -1.901   1.728  0.00  0.00    +0.012 A 
BRANCH  22  25
ATOM     25  O   LIG    1        6.745  -0.365   4.549  0.00  0.00    -0.507 OA
ATOM     26  H   LIG    1        6.269  -0.489   5.382  0.00  0.00    +0.292 HD
ENDBRANCH  22  25
ENDBRANCH   9  19
TORSDOF 4
