REMARK  Name = ZINC03791739
REMARK                            x       y       z     vdW  Elec       q    Type
REMARK                         _______ _______ _______ _____ _____    ______ ____
ROOT
ATOM      1  C   LIG    1        2.074   0.208  -1.562  0.00  0.00    +0.089 A 
ATOM      2  C   LIG    1        2.985   0.172  -0.517  0.00  0.00    +0.030 A 
ATOM      3  C   LIG    1        4.331   0.361  -0.766  0.00  0.00    +0.034 A 
ATOM      4  C   LIG    1        4.773   0.587  -2.057  0.00  0.00    +0.125 A 
ATOM      5  C   LIG    1        3.871   0.625  -3.104  0.00  0.00    +0.080 A 
ATOM      6  C   LIG    1        2.521   0.430  -2.863  0.00  0.00    +0.145 A 
ENDROOT
BRANCH   1   7
ATOM      7  N   LIG    1        0.710   0.017  -1.312  0.00  0.00    -0.217 N 
ATOM      8  H   LIG    1        0.160  -0.454  -1.957  0.00  0.00    +0.173 HD
BRANCH   7  10
ATOM      9  C   LIG    1        0.334   2.383   0.043  0.00  0.00    +0.218 C 
ATOM     10  S   LIG    1        0.036   0.595   0.086  0.00  0.00    +0.040 S 
ATOM     11  O   LIG    1       -1.353   0.327  -0.044  0.00  0.00    -0.155 OA
ATOM     12  O   LIG    1        0.795  -0.003   1.128  0.00  0.00    -0.155 OA
ENDBRANCH   7  10
ENDBRANCH   1   7
BRANCH   4  13
ATOM     13  N   LIG    1        6.216   0.789  -2.318  0.00  0.00    +0.006 N 
ATOM     14  O   LIG    1        7.006   0.756  -1.404  0.00  0.00    -0.130 OA
BRANCH  13  15
ATOM     15  O   LIG    1        6.604   0.987  -3.446  0.00  0.00    -0.396 OA
ATOM     16  H   LIG    1        5.992   1.012  -4.154  0.00  0.00    +0.329 HD
ENDBRANCH  13  15
ENDBRANCH   4  13
BRANCH   6  17
ATOM     17  O   LIG    1        1.633   0.461  -3.893  0.00  0.00    -0.487 OA
BRANCH  17  18
ATOM     18  C   LIG    1        2.143   0.821  -5.179  0.00  0.00    +0.174 C 
ATOM     19  C   LIG    1        2.735  -0.417  -5.856  0.00  0.00    +0.044 C 
ATOM     20  C   LIG    1        3.281  -0.032  -7.233  0.00  0.00    +0.004 C 
ATOM     21  C   LIG    1        2.147   0.527  -8.094  0.00  0.00    +0.000 C 
ATOM     22  C   LIG    1        1.555   1.765  -7.416  0.00  0.00    +0.004 C 
ATOM     23  C   LIG    1        1.009   1.380  -6.039  0.00  0.00    +0.044 C 
ENDBRANCH  17  18
ENDBRANCH   6  17
TORSDOF 6
