REMARK  Name = ZINC03827029
REMARK                            x       y       z     vdW  Elec       q    Type
REMARK                         _______ _______ _______ _____ _____    ______ ____
ROOT
ATOM      1  C   LIG    1       -2.419   3.507   1.529  0.00  0.00    +0.283 C 
ATOM      2  N   LIG    1       -1.581   2.775   0.768  0.00  0.00    -0.282 N 
ATOM      3  C   LIG    1       -1.294   3.006  -0.659  0.00  0.00    +0.109 C 
ATOM      4  C   LIG    1       -0.825   1.630  -1.196  0.00  0.00    +0.021 C 
ATOM      5  C   LIG    1       -0.013   1.086   0.008  0.00  0.00    +0.035 C 
ATOM      6  C   LIG    1       -0.798   1.615   1.227  0.00  0.00    +0.185 C 
ATOM      7  O   LIG    1       -2.579   3.224   2.699  0.00  0.00    -0.267 OA
ENDROOT
BRANCH   1   8
ATOM      8  C   LIG    1       -3.149   4.662   0.935  0.00  0.00    +0.223 C 
ATOM      9  O   LIG    1       -2.989   4.944  -0.229  0.00  0.00    -0.287 OA
BRANCH   8  10
ATOM     10  C   LIG    1       -4.086   5.481   1.786  0.00  0.00    +0.032 C 
ATOM     11  C   LIG    1       -3.310   6.094   2.953  0.00  0.00    +0.019 C 
ATOM     12  C   LIG    1       -5.198   4.581   2.329  0.00  0.00    +0.019 C 
BRANCH  10  14
ATOM     13  C   LIG    1       -5.652   7.427   1.803  0.00  0.00    +0.005 C 
ATOM     14  C   LIG    1       -4.700   6.597   0.939  0.00  0.00    +0.011 C 
ENDBRANCH  10  14
ENDBRANCH   8  10
ENDBRANCH   1   8
BRANCH   6  15
ATOM     15  C   LIG    1        0.161   2.034   2.311  0.00  0.00    +0.328 C 
ATOM     16  O   LIG    1        0.186   3.183   2.685  0.00  0.00    -0.249 OA
BRANCH  15  17
ATOM     17  O   LIG    1        0.987   1.131   2.863  0.00  0.00    -0.463 OA
BRANCH  17  18
ATOM     18  C   LIG    1        1.884   1.605   3.902  0.00  0.00    +0.232 C 
BRANCH  18  19
ATOM     19  C   LIG    1        2.741   0.443   4.405  0.00  0.00    +0.046 C 
BRANCH  19  20
ATOM     20  C   LIG    1        3.686   0.943   5.500  0.00  0.00    +0.040 C 
BRANCH  20  21
ATOM     21  C   LIG    1        4.531  -0.202   5.996  0.00  0.00    -0.029 A 
ATOM     22  C   LIG    1        4.101  -0.983   7.059  0.00  0.00    +0.006 A 
ATOM     23  C   LIG    1        4.909  -2.029   7.479  0.00  0.00    +0.020 A 
ATOM     24  C   LIG    1        6.112  -2.251   6.835  0.00  0.00    +0.111 A 
ATOM     25  N   LIG    1        6.491  -1.484   5.831  0.00  0.00    -0.263 NA
ATOM     26  C   LIG    1        5.746  -0.484   5.402  0.00  0.00    +0.114 A 
ENDBRANCH  20  21
ENDBRANCH  19  20
ENDBRANCH  18  19
ENDBRANCH  17  18
ENDBRANCH  15  17
ENDBRANCH   6  15
TORSDOF 9
