REMARK  Name = ZINC03860156
REMARK                            x       y       z     vdW  Elec       q    Type
REMARK                         _______ _______ _______ _____ _____    ______ ____
ROOT
ATOM      1  C   LIG    1        0.596  -3.135  -0.019  0.00  0.00    +0.253 C 
ATOM      2  C   LIG    1        0.177  -3.493  -1.463  0.00  0.00    +0.195 C 
ATOM      3  C   LIG    1        0.106  -5.036  -1.461  0.00  0.00    +0.178 C 
ATOM      4  C   LIG    1        0.489  -5.428  -0.017  0.00  0.00    +0.178 C 
ATOM      5  O   LIG    1        1.266  -4.314   0.476  0.00  0.00    -0.346 OA
ENDROOT
BRANCH   1  11
ATOM      6  C   LIG    1       -0.016   1.312   0.009  0.00  0.00    +0.225 A 
ATOM      7  N   LIG    1        1.089   2.036   0.003  0.00  0.00    -0.219 NA
ATOM      8  C   LIG    1        2.288   1.462  -0.012  0.00  0.00    +0.147 A 
ATOM      9  C   LIG    1        2.358   0.059  -0.020  0.00  0.00    +0.147 A 
ATOM     10  C   LIG    1        1.155  -0.666  -0.013  0.00  0.00    +0.167 A 
ATOM     11  N   LIG    1        1.511  -1.991  -0.023  0.00  0.00    -0.286 N 
ATOM     12  C   LIG    1        2.873  -2.048  -0.036  0.00  0.00    +0.203 A 
ATOM     13  N   LIG    1        3.368  -0.844  -0.034  0.00  0.00    -0.231 NA
ATOM     14  N   LIG    1        0.002  -0.004   0.002  0.00  0.00    -0.216 NA
BRANCH   8  15
ATOM     15  N   LIG    1        3.439   2.229  -0.019  0.00  0.00    -0.341 N 
ATOM     16  H   LIG    1        4.309   1.799  -0.030  0.00  0.00    +0.144 HD
ATOM     17  H   LIG    1        3.377   3.197  -0.014  0.00  0.00    +0.144 HD
ENDBRANCH   8  15
ENDBRANCH   1  11
BRANCH   2  18
ATOM     18  O   LIG    1       -1.100  -2.930  -1.768  0.00  0.00    -0.385 OA
ATOM     19  H   LIG    1       -1.411  -3.124  -2.663  0.00  0.00    +0.210 HD
ENDBRANCH   2  18
BRANCH   3  20
ATOM     20  O   LIG    1       -1.219  -5.476  -1.767  0.00  0.00    -0.386 OA
ATOM     21  H   LIG    1       -1.531  -5.205  -2.641  0.00  0.00    +0.210 HD
ENDBRANCH   3  20
BRANCH   4  22
ATOM     22  C   LIG    1        1.327  -6.708  -0.016  0.00  0.00    +0.206 C 
BRANCH  22  23
ATOM     23  O   LIG    1        1.572  -7.117   1.331  0.00  0.00    -0.284 OA
BRANCH  23  24
ATOM     24  P   LIG    1        2.426  -8.429   1.708  0.00  0.00    +0.472 P 
ATOM     25  O   LIG    1        3.813  -8.352   1.033  0.00  0.00    -0.228 OA
BRANCH  24  26
ATOM     26  O   LIG    1        1.680  -9.688   1.211  0.00  0.00    -0.303 OA
ATOM     27  H   LIG    1        1.570  -9.639   0.248  0.00  0.00    +0.222 HD
ENDBRANCH  24  26
BRANCH  24  28
ATOM     28  O   LIG    1        2.609  -8.509   3.305  0.00  0.00    -0.303 OA
ATOM     29  H   LIG    1        3.115  -9.277   3.605  0.00  0.00    +0.222 HD
ENDBRANCH  24  28
ENDBRANCH  23  24
ENDBRANCH  22  23
ENDBRANCH   4  22
TORSDOF 9
