REMARK  Name = ZINC03872070
REMARK                            x       y       z     vdW  Elec       q    Type
REMARK                         _______ _______ _______ _____ _____    ______ ____
ROOT
ATOM      1  C   LIG    1        3.694  -0.682  -0.037  0.00  0.00    +0.139 A 
ATOM      2  C   LIG    1        3.699  -2.060  -0.050  0.00  0.00    +0.093 A 
ATOM      3  C   LIG    1        4.915  -2.750  -0.066  0.00  0.00    +0.135 A 
ATOM      4  C   LIG    1        6.112  -2.001  -0.068  0.00  0.00    +0.100 A 
ATOM      5  C   LIG    1        7.367  -2.644  -0.084  0.00  0.00    +0.135 A 
ATOM      6  C   LIG    1        8.511  -1.900  -0.086  0.00  0.00    +0.097 A 
ATOM      7  C   LIG    1        8.444  -0.497  -0.072  0.00  0.00    +0.186 A 
ATOM      8  C   LIG    1        7.204   0.152  -0.057  0.00  0.00    +0.098 A 
ATOM      9  O   LIG    1        9.568   0.220  -0.074  0.00  0.00    -0.288 OA
ATOM     10  C   LIG    1        6.039  -0.590  -0.054  0.00  0.00    +0.146 A 
ATOM     11  O   LIG    1        4.837   0.023  -0.045  0.00  0.00    -0.454 OA
ENDROOT
BRANCH   1  15
ATOM     12  C   LIG    1       -0.017   1.380   0.010  0.00  0.00    +0.000 A 
ATOM     13  C   LIG    1        1.168   2.095   0.002  0.00  0.00    +0.001 A 
ATOM     14  C   LIG    1        2.377   1.431  -0.013  0.00  0.00    +0.011 A 
ATOM     15  C   LIG    1        2.404   0.034  -0.021  0.00  0.00    +0.017 A 
ATOM     16  C   LIG    1        1.204  -0.681  -0.013  0.00  0.00    +0.011 A 
ATOM     17  C   LIG    1        0.002  -0.004   0.002  0.00  0.00    +0.001 A 
ENDBRANCH   1  15
BRANCH   3  18
ATOM     18  O   LIG    1        4.944  -4.101  -0.079  0.00  0.00    -0.506 OA
ATOM     19  H   LIG    1        4.142  -4.586  -0.077  0.00  0.00    +0.292 HD
ENDBRANCH   3  18
BRANCH   5  20
ATOM     20  O   LIG    1        7.436  -3.999  -0.097  0.00  0.00    -0.506 OA
ATOM     21  H   LIG    1        8.339  -4.347  -0.108  0.00  0.00    +0.292 HD
ENDBRANCH   5  20
TORSDOF 3
