REMARK  Name = ZINC03830564
REMARK                            x       y       z     vdW  Elec       q    Type
REMARK                         _______ _______ _______ _____ _____    ______ ____
ROOT
ATOM      1  C   LIG    1       -0.468  -4.990   0.926  0.00  0.00    +0.098 C 
ATOM      2  C   LIG    1       -1.961  -5.188   0.648  0.00  0.00    +0.006 C 
ATOM      3  C   LIG    1       -2.555  -6.108   1.717  0.00  0.00    -0.077 C 
ATOM      4  N   LIG    1       -1.873  -7.408   1.684  0.00  0.00    +0.382 N 
ATOM      5  H   LIG    1       -1.953  -7.804   0.759  0.00  0.00    -0.082 HD
ATOM      6  C   LIG    1       -0.454  -7.235   2.019  0.00  0.00    -0.045 C 
ATOM      7  C   LIG    1        0.222  -6.357   0.963  0.00  0.00    +0.121 C 
ENDROOT
BRANCH   1   9
ATOM      8  C   LIG    1        0.068  -2.828  -0.062  0.00  0.00    +0.248 C 
ATOM      9  N   LIG    1        0.124  -4.173  -0.136  0.00  0.00    -0.306 N 
ATOM     10  H   LIG    1        0.556  -4.599  -0.893  0.00  0.00    +0.149 HD
ATOM     11  O   LIG    1       -0.474  -2.294   0.887  0.00  0.00    -0.270 OA
BRANCH   8  18
ATOM     12  C   LIG    1        0.605  -0.606  -1.054  0.00  0.00    +0.134 A 
ATOM     13  C   LIG    1        1.171   0.158  -2.059  0.00  0.00    +0.070 A 
ATOM     14  C   LIG    1        1.788  -0.464  -3.138  0.00  0.00    +0.047 A 
ATOM     15  C   LIG    1        1.837  -1.856  -3.211  0.00  0.00    +0.062 A 
ATOM     16 CL   LIG    1        2.609  -2.623  -4.564  0.00  0.00    -0.082 Cl
ATOM     17  C   LIG    1        1.280  -2.619  -2.225  0.00  0.00    +0.038 A 
ATOM     18  C   LIG    1        0.662  -2.006  -1.129  0.00  0.00    +0.080 A 
BRANCH  14  19
ATOM     19  N   LIG    1        2.357   0.304  -4.149  0.00  0.00    -0.357 N 
ATOM     20  H   LIG    1        2.788  -0.129  -4.902  0.00  0.00    +0.142 HD
ATOM     21  H   LIG    1        2.323   1.272  -4.099  0.00  0.00    +0.142 HD
ENDBRANCH  14  19
BRANCH  12  23
ATOM     22  C   LIG    1       -0.017   1.425   0.010  0.00  0.00    +0.277 C 
ATOM     23  O   LIG    1        0.002  -0.004   0.002  0.00  0.00    -0.494 OA
ENDBRANCH  12  23
ENDBRANCH   8  18
ENDBRANCH   1   9
BRANCH   7  24
ATOM     24  O   LIG    1        1.601  -6.187   1.295  0.00  0.00    -0.380 OA
ATOM     25  C   LIG    1        2.461  -7.180   0.732  0.00  0.00    +0.194 C 
ENDBRANCH   7  24
BRANCH   4  26
ATOM     26  C   LIG    1       -2.498  -8.312   2.658  0.00  0.00    -0.075 C 
BRANCH  26  27
ATOM     27  C   LIG    1       -3.940  -8.600   2.234  0.00  0.00    +0.022 C 
BRANCH  27  28
ATOM     28  C   LIG    1       -4.591  -9.542   3.248  0.00  0.00    +0.227 C 
BRANCH  28  29
ATOM     29  O   LIG    1       -5.938  -9.811   2.853  0.00  0.00    -0.492 OA
BRANCH  29  30
ATOM     30  C   LIG    1       -6.663 -10.637   3.652  0.00  0.00    +0.121 A 
ATOM     31  C   LIG    1       -6.091 -11.174   4.796  0.00  0.00    +0.048 A 
ATOM     32  C   LIG    1       -6.829 -12.014   5.608  0.00  0.00    +0.042 A 
ATOM     33  C   LIG    1       -8.138 -12.321   5.279  0.00  0.00    +0.124 A 
ATOM     34  F   LIG    1       -8.858 -13.143   6.074  0.00  0.00    -0.205 F 
ATOM     35  C   LIG    1       -8.710 -11.787   4.137  0.00  0.00    +0.042 A 
ATOM     36  C   LIG    1       -7.977 -10.941   3.328  0.00  0.00    +0.048 A 
ENDBRANCH  29  30
ENDBRANCH  28  29
ENDBRANCH  27  28
ENDBRANCH  26  27
ENDBRANCH   4  26
TORSDOF 10
