REMARK  Name = ZINC03869890
REMARK                            x       y       z     vdW  Elec       q    Type
REMARK                         _______ _______ _______ _____ _____    ______ ____
ROOT
ATOM      1  C   LIG    1        0.730   1.609   2.241  0.00  0.00    +0.226 C 
ATOM      2  C   LIG    1       -0.540   1.631   1.363  0.00  0.00    +0.088 C 
ATOM      3  C   LIG    1       -0.013   1.086   0.008  0.00  0.00    +0.150 C 
ATOM      4  C   LIG    1        1.425   1.664  -0.003  0.00  0.00    +0.175 C 
ATOM      5  O   LIG    1        1.863   1.606   1.364  0.00  0.00    -0.348 OA
ENDROOT
BRANCH   1   8
ATOM      6  C   LIG    1        0.721   3.757   5.242  0.00  0.00    +0.088 A 
ATOM      7  C   LIG    1        0.687   2.660   4.454  0.00  0.00    +0.098 A 
ATOM      8  N   LIG    1        0.766   2.799   3.095  0.00  0.00    -0.274 N 
ATOM      9  C   LIG    1        0.883   4.017   2.537  0.00  0.00    +0.331 A 
ATOM     10  N   LIG    1        0.914   5.127   3.297  0.00  0.00    -0.275 N 
ATOM     11  H   LIG    1        0.994   6.025   2.865  0.00  0.00    +0.173 HD
ATOM     12  O   LIG    1        0.957   4.117   1.327  0.00  0.00    -0.246 OA
ATOM     13  C   LIG    1        0.839   5.033   4.640  0.00  0.00    +0.254 A 
ATOM     14  O   LIG    1        0.871   6.037   5.329  0.00  0.00    -0.268 OA
ENDBRANCH   1   8
BRANCH   3  15
ATOM     15  O   LIG    1       -0.780   1.593  -1.085  0.00  0.00    -0.389 OA
ATOM     16  H   LIG    1       -1.702   1.301  -1.089  0.00  0.00    +0.210 HD
ENDBRANCH   3  15
BRANCH   4  17
ATOM     17  C   LIG    1        2.334   0.810  -0.888  0.00  0.00    +0.206 C 
BRANCH  17  18
ATOM     18  O   LIG    1        3.622   1.422  -0.979  0.00  0.00    -0.284 OA
BRANCH  18  19
ATOM     19  P   LIG    1        4.834   0.793  -1.833  0.00  0.00    +0.472 P 
ATOM     20  O   LIG    1        4.392   0.576  -3.229  0.00  0.00    -0.228 OA
BRANCH  19  21
ATOM     21  O   LIG    1        5.275  -0.613  -1.185  0.00  0.00    -0.303 OA
ATOM     22  H   LIG    1        4.521  -1.224  -1.194  0.00  0.00    +0.222 HD
ENDBRANCH  19  21
BRANCH  19  23
ATOM     23  O   LIG    1        6.084   1.807  -1.818  0.00  0.00    -0.303 OA
ATOM     24  H   LIG    1        5.818   2.654  -2.208  0.00  0.00    +0.222 HD
ENDBRANCH  19  23
ENDBRANCH  18  19
ENDBRANCH  17  18
ENDBRANCH   4  17
TORSDOF 7
