REMARK  Name = ZINC03815953
REMARK                            x       y       z     vdW  Elec       q    Type
REMARK                         _______ _______ _______ _____ _____    ______ ____
ROOT
ATOM      1  C   LIG    1       -3.760   0.514   3.899  0.00  0.00    +0.154 C 
ATOM      2  N   LIG    1       -2.936   1.562   3.291  0.00  0.00    -0.296 N 
ATOM      3  C   LIG    1       -2.601   2.687   4.030  0.00  0.00    +0.058 A 
ATOM      4  C   LIG    1       -3.031   2.846   5.340  0.00  0.00    +0.028 A 
ATOM      5  C   LIG    1       -2.682   3.976   6.046  0.00  0.00    +0.019 A 
ATOM      6  C   LIG    1       -1.895   4.969   5.453  0.00  0.00    +0.026 A 
ATOM      7  C   LIG    1       -1.456   4.821   4.139  0.00  0.00    +0.032 A 
ATOM      8  C   LIG    1       -1.809   3.681   3.426  0.00  0.00    +0.064 A 
ATOM      9  C   LIG    1       -1.372   3.474   2.033  0.00  0.00    +0.265 A 
ATOM     10  N   LIG    1       -1.754   2.341   1.404  0.00  0.00    -0.256 N 
ATOM     11  O   LIG    1       -0.686   4.302   1.466  0.00  0.00    -0.267 OA
ATOM     12  C   LIG    1       -2.516   1.425   2.022  0.00  0.00    +0.332 A 
ATOM     13  O   LIG    1       -2.836   0.426   1.408  0.00  0.00    -0.246 OA
ENDROOT
BRANCH   6  14
ATOM     14  C   LIG    1       -1.538   6.139   6.198  0.00  0.00    -0.066 C 
ATOM     15  C   LIG    1       -1.246   7.098   6.808  0.00  0.00    -0.092 C 
BRANCH  15  16
ATOM     16  C   LIG    1       -0.880   8.301   7.574  0.00  0.00    +0.124 C 
BRANCH  16  17
ATOM     17  C   LIG    1       -1.475   8.217   8.956  0.00  0.00    -0.036 A 
ATOM     18  C   LIG    1       -2.734   8.734   9.200  0.00  0.00    +0.004 A 
ATOM     19  C   LIG    1       -3.281   8.652  10.466  0.00  0.00    +0.000 A 
ATOM     20  C   LIG    1       -2.566   8.063  11.492  0.00  0.00    +0.000 A 
ATOM     21  C   LIG    1       -1.305   7.551  11.250  0.00  0.00    +0.000 A 
ATOM     22  C   LIG    1       -0.759   7.628   9.982  0.00  0.00    +0.004 A 
ENDBRANCH  16  17
ENDBRANCH  15  16
ENDBRANCH   6  14
BRANCH  10  23
ATOM     23  C   LIG    1       -1.334   2.112   0.020  0.00  0.00    +0.165 C 
BRANCH  23  24
ATOM     24  C   LIG    1       -0.017   1.379   0.010  0.00  0.00    -0.027 A 
ATOM     25  C   LIG    1        1.168   2.094   0.002  0.00  0.00    +0.006 A 
ATOM     26  C   LIG    1        2.377   1.430  -0.013  0.00  0.00    +0.015 A 
ATOM     27  C   LIG    1        2.404   0.034  -0.021  0.00  0.00    +0.059 A 
ATOM     28  C   LIG    1        1.204  -0.681  -0.013  0.00  0.00    +0.015 A 
ATOM     29  C   LIG    1        0.002  -0.004   0.002  0.00  0.00    +0.006 A 
BRANCH  27  30
ATOM     30  C   LIG    1        3.695  -0.684  -0.036  0.00  0.00    +0.337 C 
ATOM     31  O   LIG    1        3.715  -1.898  -0.043  0.00  0.00    -0.245 OA
BRANCH  30  32
ATOM     32  O   LIG    1        4.850   0.009  -0.044  0.00  0.00    -0.477 OA
ATOM     33  H   LIG    1        4.835   0.946  -0.039  0.00  0.00    +0.295 HD
ENDBRANCH  30  32
ENDBRANCH  27  30
ENDBRANCH  23  24
ENDBRANCH  10  23
TORSDOF 7
