REMARK  Name = ZINC03841530
REMARK                            x       y       z     vdW  Elec       q    Type
REMARK                         _______ _______ _______ _____ _____    ______ ____
ROOT
ATOM      1  C   LIG    1       -0.017   1.391   0.010  0.00  0.00    +0.015 A 
ATOM      2  C   LIG    1        1.170   2.095   0.002  0.00  0.00    +0.033 A 
ATOM      3  C   LIG    1        2.378   1.419  -0.013  0.00  0.00    +0.122 A 
ATOM      4  C   LIG    1        2.403   0.036  -0.021  0.00  0.00    +0.033 A 
ATOM      5  C   LIG    1        1.224  -0.679  -0.014  0.00  0.00    +0.015 A 
ATOM      6  C   LIG    1        0.002  -0.004   0.002  0.00  0.00    +0.037 A 
ENDROOT
BRANCH   6   7
ATOM      7  C   LIG    1       -1.266  -0.764   0.011  0.00  0.00    +0.245 C 
ATOM      8  N   LIG    1       -1.244  -2.111   0.003  0.00  0.00    -0.301 N 
ATOM      9  H   LIG    1       -0.397  -2.583  -0.008  0.00  0.00    +0.150 HD
ATOM     10  O   LIG    1       -2.328  -0.173   0.024  0.00  0.00    -0.270 OA
BRANCH   8  11
ATOM     11  C   LIG    1       -2.501  -2.864   0.011  0.00  0.00    +0.225 C 
BRANCH  11  12
ATOM     12  C   LIG    1       -2.202  -4.341   0.001  0.00  0.00    +0.322 C 
ATOM     13  O   LIG    1       -1.046  -4.729  -0.013  0.00  0.00    -0.249 OA
BRANCH  12  14
ATOM     14  O   LIG    1       -3.116  -5.148   0.005  0.00  0.00    -0.480 OA
ATOM     15  H   LIG    1       -4.004  -4.850   0.016  0.00  0.00    +0.295 HD
ENDBRANCH  12  14
ENDBRANCH  11  12
ENDBRANCH   8  11
ENDBRANCH   6   7
BRANCH   3  16
ATOM     16  N   LIG    1        3.647   2.180  -0.022  0.00  0.00    +0.006 N 
ATOM     17  O   LIG    1        3.628   3.389  -0.015  0.00  0.00    -0.130 OA
BRANCH  16  18
ATOM     18  O   LIG    1        4.704   1.592  -0.035  0.00  0.00    -0.396 OA
ATOM     19  H   LIG    1        4.719   0.655  -0.040  0.00  0.00    +0.329 HD
ENDBRANCH  16  18
ENDBRANCH   3  16
TORSDOF 6
