REMARK  Name = ZINC03812983
REMARK                            x       y       z     vdW  Elec       q    Type
REMARK                         _______ _______ _______ _____ _____    ______ ____
ROOT
ATOM      1  C   LIG    1        2.553  -4.028  -1.293  0.00  0.00    -0.096 C 
ATOM      2  N   LIG    1        2.517  -2.792  -0.493  0.00  0.00    +0.380 N 
ATOM      3  H   LIG    1        2.677  -3.030   0.493  0.00  0.00    -0.082 HD
ATOM      4  C   LIG    1        1.182  -2.147  -0.615  0.00  0.00    -0.057 C 
ATOM      5  C   LIG    1        0.813  -1.900  -2.056  0.00  0.00    +0.021 C 
ATOM      6  C   LIG    1        1.332  -0.599  -2.575  0.00  0.00    -0.041 A 
ATOM      7  C   LIG    1        1.219  -0.156  -3.881  0.00  0.00    +0.007 A 
ATOM      8  C   LIG    1        1.667   1.108  -4.229  0.00  0.00    +0.049 A 
ATOM      9  C   LIG    1        2.226   2.002  -3.317  0.00  0.00    +0.159 A 
ATOM     10  C   LIG    1        2.345   1.567  -1.994  0.00  0.00    +0.166 A 
ATOM     11  O   LIG    1        2.795   2.172  -0.870  0.00  0.00    -0.481 OA
ATOM     12  C   LIG    1        2.173   1.479   0.274  0.00  0.00    +0.217 C 
ATOM     13  C   LIG    1        0.737   2.015   0.266  0.00  0.00    +0.178 C 
ATOM     14  C   LIG    1       -0.315   0.991   0.488  0.00  0.00    +0.004 C 
ATOM     15  C   LIG    1       -0.153  -0.294   0.472  0.00  0.00    -0.026 C 
ATOM     16  C   LIG    1        2.219   0.043  -0.238  0.00  0.00    +0.042 C 
ATOM     17  C   LIG    1        3.602  -0.599  -0.100  0.00  0.00    -0.003 C 
ATOM     18  C   LIG    1        1.944   0.269  -1.703  0.00  0.00    +0.011 A 
ATOM     19  C   LIG    1        1.180  -0.920   0.286  0.00  0.00    +0.012 C 
ATOM     20  C   LIG    1        3.595  -1.875  -0.942  0.00  0.00    -0.078 C 
ENDROOT
BRANCH   9  21
ATOM     21  O   LIG    1        2.637   3.241  -3.698  0.00  0.00    -0.503 OA
ATOM     22  H   LIG    1        3.559   3.278  -3.986  0.00  0.00    +0.292 HD
ENDBRANCH   9  21
BRANCH  13  23
ATOM     23  O   LIG    1        0.496   2.643  -0.995  0.00  0.00    -0.384 OA
ATOM     24  H   LIG    1       -0.362   3.083  -1.059  0.00  0.00    +0.210 HD
ENDBRANCH  13  23
TORSDOF 2
