REMARK  Name = ZINC04262470
REMARK                            x       y       z     vdW  Elec       q    Type
REMARK                         _______ _______ _______ _____ _____    ______ ____
ROOT
ATOM      1  C   LIG    1        2.244   3.677   1.024  0.00  0.00    -0.079 C 
ATOM      2  N   LIG    1        1.178   3.494   0.142  0.00  0.00    +0.388 N 
ATOM      3  H1  LIG    1        0.281   3.780   0.551  0.00  0.00    -0.085 HD
ATOM      4  H2  LIG    1        1.321   3.987  -0.748  0.00  0.00    -0.085 HD
ATOM      5  CA  LIG    1        1.279   2.109   0.001  0.00  0.00    +0.041 C 
ATOM      6  C   LIG    1        1.950   2.209   1.383  0.00  0.00    -0.021 C 
ENDROOT
BRANCH   5   7
ATOM      7  C   LIG    1       -0.016   1.338   0.009  0.00  0.00    +0.291 C 
ATOM      8  O   LIG    1       -1.071   1.928   0.018  0.00  0.00    -0.253 OA
BRANCH   7   9
ATOM      9  OXT LIG    1        0.002  -0.004   0.002  0.00  0.00    -0.482 OA
ATOM     10  HXT LIG    1        0.820  -0.462  -0.004  0.00  0.00    +0.295 HD
ENDBRANCH   7   9
ENDBRANCH   5   7
BRANCH   6  11
ATOM     11  C   LIG    1        3.204   1.343   1.522  0.00  0.00    +0.121 C 
BRANCH  11  12
ATOM     12  C   LIG    1        3.710   1.417   2.940  0.00  0.00    +0.305 C 
ATOM     13  O   LIG    1        3.128   2.093   3.755  0.00  0.00    -0.251 OA
BRANCH  12  14
ATOM     14  O   LIG    1        4.808   0.733   3.297  0.00  0.00    -0.481 OA
ATOM     15  H   LIG    1        5.259   0.209   2.665  0.00  0.00    +0.295 HD
ENDBRANCH  12  14
ENDBRANCH  11  12
ENDBRANCH   6  11
TORSDOF 5
