REMARK  Name = ZINC04324959
REMARK                            x       y       z     vdW  Elec       q    Type
REMARK                         _______ _______ _______ _____ _____    ______ ____
ROOT
ATOM      1  C   LIG    1        3.561  -1.987   0.062  0.00  0.00    +0.134 A 
ATOM      2  C   LIG    1        2.348  -2.661   0.063  0.00  0.00    +0.047 A 
ATOM      3  C   LIG    1        2.325  -4.039   0.162  0.00  0.00    +0.005 A 
ATOM      4  C   LIG    1        3.508  -4.746   0.261  0.00  0.00    +0.020 A 
ATOM      5  C   LIG    1        4.719  -4.077   0.260  0.00  0.00    +0.049 A 
ATOM      6 CL   LIG    1        6.204  -4.968   0.386  0.00  0.00    -0.083 Cl
ATOM      7  C   LIG    1        4.748  -2.698   0.155  0.00  0.00    +0.030 A 
ENDROOT
BRANCH   1   8
ATOM      8  O   LIG    1        3.586  -0.632  -0.036  0.00  0.00    -0.456 OA
BRANCH   8  12
ATOM      9  C   LIG    1       -0.012   1.385   0.070  0.00  0.00    +0.000 A 
ATOM     10  C   LIG    1        0.445   0.729   1.199  0.00  0.00    +0.004 A 
ATOM     11  C   LIG    1        1.649   0.053   1.166  0.00  0.00    +0.046 A 
ATOM     12  C   LIG    1        2.400   0.032  -0.001  0.00  0.00    +0.128 A 
ATOM     13  C   LIG    1        1.939   0.691  -1.132  0.00  0.00    +0.046 A 
ATOM     14  C   LIG    1        0.735   1.366  -1.093  0.00  0.00    +0.004 A 
ENDBRANCH   8  12
ENDBRANCH   1   8
BRANCH   7  15
ATOM     15  C   LIG    1        6.067  -1.970   0.148  0.00  0.00    +0.144 C 
BRANCH  15  16
ATOM     16  N   LIG    1        6.446  -1.633   1.522  0.00  0.00    -0.310 N 
ATOM     17  H   LIG    1        5.869  -1.884   2.260  0.00  0.00    +0.149 HD
ATOM     18  C   LIG    1        7.597  -0.974   1.761  0.00  0.00    +0.223 C 
ATOM     19  O   LIG    1        8.319  -0.660   0.838  0.00  0.00    -0.275 OA
BRANCH  18  20
ATOM     20  C   LIG    1        7.988  -0.628   3.175  0.00  0.00    +0.165 C 
BRANCH  20  21
ATOM     21  S   LIG    1        9.575   0.250   3.166  0.00  0.00    -0.140 S 
BRANCH  21  22
ATOM     22  C   LIG    1        9.899   0.590   4.918  0.00  0.00    +0.189 C 
BRANCH  22  23
ATOM     23  C   LIG    1       11.207   1.326   5.054  0.00  0.00    +0.315 C 
ATOM     24  O   LIG    1       11.860   1.596   4.061  0.00  0.00    -0.250 OA
BRANCH  23  25
ATOM     25  O   LIG    1       11.611   1.651   6.157  0.00  0.00    -0.480 OA
ATOM     26  H   LIG    1       11.109   1.444   6.920  0.00  0.00    +0.295 HD
ENDBRANCH  23  25
ENDBRANCH  22  23
ENDBRANCH  21  22
ENDBRANCH  20  21
ENDBRANCH  18  20
ENDBRANCH  15  16
ENDBRANCH   7  15
TORSDOF 9
