REMARK  Name = ZINC04128450
REMARK                            x       y       z     vdW  Elec       q    Type
REMARK                         _______ _______ _______ _____ _____    ______ ____
ROOT
ATOM      1  N   LIG    1        3.590   7.148  -1.163  0.00  0.00    -0.234 N 
ATOM      2  C   LIG    1        3.558   6.362   0.081  0.00  0.00    +0.165 C 
ATOM      3  C   LIG    1        2.208   5.623   0.012  0.00  0.00    +0.233 C 
ATOM      4  O   LIG    1        1.624   6.064  -1.248  0.00  0.00    -0.442 OA
ATOM      5  C   LIG    1        2.463   6.919  -1.850  0.00  0.00    +0.408 C 
ATOM      6  O   LIG    1        2.222   7.439  -2.921  0.00  0.00    -0.226 OA
ENDROOT
BRANCH   1  10
ATOM      7  C   LIG    1        6.683   9.672  -2.354  0.00  0.00    +0.000 A 
ATOM      8  C   LIG    1        5.568   9.522  -3.157  0.00  0.00    +0.002 A 
ATOM      9  C   LIG    1        4.541   8.686  -2.765  0.00  0.00    +0.023 A 
ATOM     10  C   LIG    1        4.629   7.996  -1.563  0.00  0.00    +0.040 A 
ATOM     11  C   LIG    1        5.748   8.154  -0.756  0.00  0.00    +0.023 A 
ATOM     12  C   LIG    1        6.774   8.987  -1.156  0.00  0.00    +0.002 A 
ENDBRANCH   1  10
BRANCH   3  13
ATOM     13  C   LIG    1        2.426   4.108   0.001  0.00  0.00    +0.275 C 
BRANCH  13  14
ATOM     14  O   LIG    1        1.160   3.445   0.010  0.00  0.00    -0.488 OA
BRANCH  14  15
ATOM     15  C   LIG    1        1.176   2.086   0.002  0.00  0.00    +0.121 A 
ATOM     16  C   LIG    1       -0.017   1.377   0.010  0.00  0.00    +0.045 A 
ATOM     17  C   LIG    1        0.002  -0.004   0.002  0.00  0.00    +0.004 A 
ATOM     18  C   LIG    1        1.208  -0.680  -0.013  0.00  0.00    +0.000 A 
ATOM     19  C   LIG    1        2.398   0.024  -0.021  0.00  0.00    +0.004 A 
ATOM     20  C   LIG    1        2.385   1.405  -0.013  0.00  0.00    +0.045 A 
ENDBRANCH  14  15
ENDBRANCH  13  14
ENDBRANCH   3  13
TORSDOF 4
