REMARK  Name = ZINC04262457
REMARK                            x       y       z     vdW  Elec       q    Type
REMARK                         _______ _______ _______ _____ _____    ______ ____
ROOT
ATOM      1  N   LIG    1       -1.575  -1.665   1.139  0.00  0.00    -0.327 N 
ATOM      2  C   LIG    1       -0.895  -2.809   1.461  0.00  0.00    +0.105 A 
ATOM      3  C   LIG    1       -1.481  -3.313   2.563  0.00  0.00    +0.105 A 
ATOM      4  N   LIG    1       -2.492  -2.500   2.905  0.00  0.00    -0.335 N 
ATOM      5  C   LIG    1       -2.550  -1.508   2.059  0.00  0.00    +0.177 A 
ENDROOT
BRANCH   1   6
ATOM      6  C   LIG    1       -1.293  -0.775   0.010  0.00  0.00    +0.148 C 
BRANCH   6  13
ATOM      7  C   LIG    1        0.779   0.208  -0.994  0.00  0.00    +0.007 A 
ATOM      8  C   LIG    1        2.066   0.698  -0.884  0.00  0.00    +0.020 A 
ATOM      9  C   LIG    1        2.687   0.741   0.352  0.00  0.00    +0.041 A 
ATOM     10 CL   LIG    1        4.304   1.356   0.491  0.00  0.00    -0.084 Cl
ATOM     11  C   LIG    1        2.018   0.292   1.477  0.00  0.00    +0.020 A 
ATOM     12  C   LIG    1        0.731  -0.198   1.366  0.00  0.00    +0.007 A 
ATOM     13  C   LIG    1        0.111  -0.240   0.131  0.00  0.00    -0.020 A 
ENDBRANCH   6  13
BRANCH   6  14
ATOM     14  C   LIG    1       -1.430  -1.541  -1.280  0.00  0.00    -0.020 A 
ATOM     15  C   LIG    1       -0.543  -2.560  -1.576  0.00  0.00    +0.007 A 
ATOM     16  C   LIG    1       -0.668  -3.263  -2.760  0.00  0.00    +0.020 A 
ATOM     17  C   LIG    1       -1.681  -2.947  -3.648  0.00  0.00    +0.041 A 
ATOM     18 CL   LIG    1       -1.838  -3.829  -5.135  0.00  0.00    -0.084 Cl
ATOM     19  C   LIG    1       -2.568  -1.927  -3.351  0.00  0.00    +0.020 A 
ATOM     20  C   LIG    1       -2.445  -1.228  -2.165  0.00  0.00    +0.007 A 
ENDBRANCH   6  14
ENDBRANCH   1   6
BRANCH   4  21
ATOM     21  C   LIG    1       -3.385  -2.692   4.050  0.00  0.00    +0.159 C 
BRANCH  21  22
ATOM     22  C   LIG    1       -2.798  -1.992   5.277  0.00  0.00    +0.170 C 
BRANCH  22  23
ATOM     23  C   LIG    1       -3.773  -2.084   6.423  0.00  0.00    +0.001 A 
ATOM     24  C   LIG    1       -3.648  -3.095   7.357  0.00  0.00    +0.009 A 
ATOM     25  C   LIG    1       -4.542  -3.181   8.407  0.00  0.00    +0.020 A 
ATOM     26  C   LIG    1       -5.563  -2.254   8.525  0.00  0.00    +0.042 A 
ATOM     27 CL   LIG    1       -6.686  -2.362   9.844  0.00  0.00    -0.083 Cl
ATOM     28  C   LIG    1       -5.688  -1.242   7.591  0.00  0.00    +0.040 A 
ATOM     29  C   LIG    1       -4.790  -1.154   6.542  0.00  0.00    +0.048 A 
ATOM     30 CL   LIG    1       -4.943   0.120   5.372  0.00  0.00    -0.083 Cl
ENDBRANCH  22  23
BRANCH  22  31
ATOM     31  O   LIG    1       -1.570  -2.623   5.645  0.00  0.00    -0.366 OA
BRANCH  31  32
ATOM     32  C   LIG    1       -0.628  -1.746   6.264  0.00  0.00    +0.197 C 
BRANCH  32  33
ATOM     33  C   LIG    1        0.623  -2.513   6.608  0.00  0.00    -0.004 A 
ATOM     34  C   LIG    1        0.712  -3.860   6.307  0.00  0.00    +0.009 A 
ATOM     35  C   LIG    1        1.858  -4.564   6.622  0.00  0.00    +0.020 A 
ATOM     36  C   LIG    1        2.918  -3.922   7.239  0.00  0.00    +0.042 A 
ATOM     37 CL   LIG    1        4.358  -4.807   7.635  0.00  0.00    -0.083 Cl
ATOM     38  C   LIG    1        2.830  -2.575   7.539  0.00  0.00    +0.040 A 
ATOM     39  C   LIG    1        1.683  -1.869   7.219  0.00  0.00    +0.048 A 
ATOM     40 CL   LIG    1        1.574  -0.177   7.591  0.00  0.00    -0.083 Cl
ENDBRANCH  32  33
ENDBRANCH  31  32
ENDBRANCH  22  31
ENDBRANCH  21  22
ENDBRANCH   4  21
TORSDOF 9
