REMARK  Name = ZINC04252698
REMARK                            x       y       z     vdW  Elec       q    Type
REMARK                         _______ _______ _______ _____ _____    ______ ____
ROOT
ATOM      1  C   LIG    1        3.772  -0.985  -0.039  0.00  0.00    +0.193 C 
ATOM      2  O   LIG    1        4.815  -0.362  -0.132  0.00  0.00    -0.287 OA
ENDROOT
BRANCH   1   3
ATOM      3  C   LIG    1        3.798  -2.453   0.064  0.00  0.00    +0.104 A 
ATOM      4  C   LIG    1        3.774  -3.072   1.324  0.00  0.00    +0.135 A 
ATOM      5  C   LIG    1        3.794  -4.452   1.411  0.00  0.00    +0.091 A 
ATOM      6  C   LIG    1        3.849  -5.225   0.258  0.00  0.00    +0.124 A 
ATOM      7  C   LIG    1        3.879  -4.619  -0.992  0.00  0.00    +0.091 A 
ATOM      8  C   LIG    1        3.854  -3.241  -1.097  0.00  0.00    +0.135 A 
BRANCH   4   9
ATOM      9  O   LIG    1        3.726  -2.320   2.451  0.00  0.00    -0.506 OA
ATOM     10  H   LIG    1        2.829  -2.119   2.752  0.00  0.00    +0.292 HD
ENDBRANCH   4   9
BRANCH   6  11
ATOM     11  O   LIG    1        3.873  -6.578   0.353  0.00  0.00    -0.507 OA
ATOM     12  H   LIG    1        4.763  -6.952   0.411  0.00  0.00    +0.292 HD
ENDBRANCH   6  11
BRANCH   8  13
ATOM     13  O   LIG    1        3.883  -2.651  -2.319  0.00  0.00    -0.506 OA
ATOM     14  H   LIG    1        4.774  -2.462  -2.643  0.00  0.00    +0.292 HD
ENDBRANCH   8  13
ENDBRANCH   1   3
BRANCH   1  16
ATOM     15  C   LIG    1        2.473   1.077  -0.018  0.00  0.00    +0.012 C 
ATOM     16  C   LIG    1        2.494  -0.274  -0.030  0.00  0.00    +0.052 C 
BRANCH  15  22
ATOM     17  C   LIG    1       -0.013   1.075  -0.011  0.00  0.00    +0.012 A 
ATOM     18  C   LIG    1       -1.216   1.747  -0.008  0.00  0.00    +0.050 A 
ATOM     19  C   LIG    1       -1.239   3.135   0.009  0.00  0.00    +0.158 A 
ATOM     20  C   LIG    1       -0.046   3.857   0.012  0.00  0.00    +0.159 A 
ATOM     21  C   LIG    1        1.164   3.191   0.003  0.00  0.00    +0.057 A 
ATOM     22  C   LIG    1        1.188   1.791  -0.009  0.00  0.00    -0.021 A 
BRANCH  19  23
ATOM     23  O   LIG    1       -2.428   3.792   0.018  0.00  0.00    -0.503 OA
ATOM     24  H   LIG    1       -2.775   3.989  -0.863  0.00  0.00    +0.292 HD
ENDBRANCH  19  23
BRANCH  20  25
ATOM     25  O   LIG    1       -0.073   5.216   0.023  0.00  0.00    -0.503 OA
ATOM     26  H   LIG    1       -0.084   5.617  -0.857  0.00  0.00    +0.292 HD
ENDBRANCH  20  25
ENDBRANCH  15  22
ENDBRANCH   1  16
TORSDOF 8
