REMARK  Name = ZINC04532102
REMARK                            x       y       z     vdW  Elec       q    Type
REMARK                         _______ _______ _______ _____ _____    ______ ____
ROOT
ATOM      1  C   LIG    1        0.335  -0.726  -1.206  0.00  0.00    +0.043 C 
ATOM      2  C   LIG    1       -0.951  -0.304  -1.966  0.00  0.00    +0.010 C 
ATOM      3  C   LIG    1       -1.875  -1.555  -1.994  0.00  0.00    +0.005 C 
ATOM      4  C   LIG    1       -1.293  -2.419  -0.861  0.00  0.00    -0.001 C 
ATOM      5  C   LIG    1       -1.738  -3.847  -0.807  0.00  0.00    +0.000 C 
ATOM      6  C   LIG    1       -2.583  -4.246  -2.025  0.00  0.00    +0.031 C 
ATOM      7  C   LIG    1       -3.014  -5.675  -1.831  0.00  0.00    -0.027 C 
ATOM      8  C   LIG    1       -2.379  -6.518  -1.080  0.00  0.00    -0.065 C 
ATOM      9  C   LIG    1       -1.104  -6.202  -0.338  0.00  0.00    -0.008 C 
ATOM     10  C   LIG    1       -0.043  -7.233  -0.740  0.00  0.00    +0.016 C 
ATOM     11  C   LIG    1       -1.367  -6.329   1.156  0.00  0.00    +0.014 C 
ATOM     12  C   LIG    1       -2.727  -6.982   1.402  0.00  0.00    +0.032 C 
ATOM     13  C   LIG    1       -2.917  -8.252   0.581  0.00  0.00    +0.119 C 
ATOM     14  C   LIG    1       -2.921  -7.928  -0.918  0.00  0.00    +0.062 C 
ATOM     15  C   LIG    1       -0.566  -4.825  -0.723  0.00  0.00    +0.003 C 
ATOM     16  C   LIG    1        0.502  -4.358   0.249  0.00  0.00    +0.005 C 
ATOM     17  C   LIG    1        1.009  -2.936  -0.027  0.00  0.00    +0.008 C 
ATOM     18  C   LIG    1        0.221  -2.260  -1.112  0.00  0.00    -0.021 C 
ATOM     19  C   LIG    1        0.642  -2.790  -2.491  0.00  0.00    +0.012 C 
ENDROOT
BRANCH   1  21
ATOM     20  C   LIG    1        0.638   1.406   0.257  0.00  0.00    +0.064 C 
ATOM     21  C   LIG    1        0.377  -0.074   0.143  0.00  0.00    +0.058 C 
ATOM     22  N   LIG    1        0.192  -0.774   1.198  0.00  0.00    -0.097 NA
BRANCH  22  23
ATOM     23  O   LIG    1        0.232  -0.159   2.473  0.00  0.00    -0.409 OA
ATOM     24  H   LIG    1        0.081  -0.767   3.209  0.00  0.00    +0.328 HD
ENDBRANCH  22  23
ENDBRANCH   1  21
BRANCH  13  25
ATOM     25  O   LIG    1       -1.876  -9.186   0.876  0.00  0.00    -0.391 OA
ATOM     26  H   LIG    1       -1.941 -10.016   0.384  0.00  0.00    +0.210 HD
ENDBRANCH  13  25
TORSDOF 3
