REMARK  Name = ZINC04249262
REMARK                            x       y       z     vdW  Elec       q    Type
REMARK                         _______ _______ _______ _____ _____    ______ ____
ROOT
ATOM      1  C   LIG    1       -0.018   1.461   0.010  0.00  0.00    +0.155 C 
ATOM      2  N   LIG    1        0.002  -0.004   0.002  0.00  0.00    -0.280 N 
ATOM      3  C   LIG    1       -1.189  -0.712   0.004  0.00  0.00    +0.170 A 
ATOM      4  C   LIG    1       -1.143  -2.104  -0.003  0.00  0.00    +0.153 A 
ATOM      5  N   LIG    1       -2.457  -2.531   0.002  0.00  0.00    -0.306 N 
ATOM      6  C   LIG    1       -3.238  -1.411   0.008  0.00  0.00    +0.201 A 
ATOM      7  N   LIG    1       -4.620  -1.479   0.008  0.00  0.00    -0.301 N 
ATOM      8  C   LIG    1       -5.212  -2.796  -0.296  0.00  0.00    +0.109 C 
ATOM      9  C   LIG    1       -4.439  -3.870   0.477  0.00  0.00    +0.041 C 
ATOM     10  C   LIG    1       -2.981  -3.898   0.003  0.00  0.00    +0.127 C 
ATOM     11  C   LIG    1        0.108  -2.746  -0.013  0.00  0.00    +0.282 A 
ATOM     12  N   LIG    1        1.234  -2.003  -0.015  0.00  0.00    -0.262 N 
ATOM     13  C   LIG    1        2.538  -2.670  -0.025  0.00  0.00    +0.157 C 
ATOM     14  O   LIG    1        0.175  -3.963  -0.019  0.00  0.00    -0.265 OA
ATOM     15  N   LIG    1       -2.474  -0.347   0.011  0.00  0.00    -0.196 NA
ATOM     16  C   LIG    1        1.178  -0.660  -0.013  0.00  0.00    +0.333 A 
ATOM     17  O   LIG    1        2.213  -0.022  -0.019  0.00  0.00    -0.246 OA
ENDROOT
BRANCH   7  18
ATOM     18  C   LIG    1       -5.451  -0.307   0.294  0.00  0.00    +0.112 C 
BRANCH  18  19
ATOM     19  C   LIG    1       -5.756   0.433  -1.010  0.00  0.00    +0.054 C 
BRANCH  19  20
ATOM     20  C   LIG    1       -6.611   1.639  -0.716  0.00  0.00    -0.046 A 
ATOM     21  C   LIG    1       -7.989   1.527  -0.720  0.00  0.00    +0.004 A 
ATOM     22  C   LIG    1       -8.773   2.633  -0.450  0.00  0.00    +0.000 A 
ATOM     23  C   LIG    1       -8.178   3.851  -0.175  0.00  0.00    +0.000 A 
ATOM     24  C   LIG    1       -6.801   3.962  -0.170  0.00  0.00    +0.000 A 
ATOM     25  C   LIG    1       -6.017   2.855  -0.435  0.00  0.00    +0.004 A 
ENDBRANCH  19  20
ENDBRANCH  18  19
ENDBRANCH   7  18
TORSDOF 3
