REMARK  Name = ZINC04228237
REMARK                            x       y       z     vdW  Elec       q    Type
REMARK                         _______ _______ _______ _____ _____    ______ ____
ROOT
ATOM      1  C   UNK A  0       -0.272  -3.231   2.649  0.00  0.00    +0.015 A 
ATOM      2  C   UNK A  0       -0.344  -4.604   2.698  0.00  0.00    +0.023 A 
ATOM      3  C   UNK A  0        0.630  -5.330   3.378  0.00  0.00    +0.027 A 
ATOM      4  C   UNK A  0        1.682  -4.670   4.005  0.00  0.00    +0.023 A 
ATOM      5  C   UNK A  0        1.763  -3.297   3.956  0.00  0.00    +0.015 A 
ATOM      6  C   UNK A  0        0.787  -2.565   3.274  0.00  0.00    +0.037 A 
ENDROOT
BRANCH   6   7
ATOM      7  C   UNK A  0        0.870  -1.093   3.219  0.00  0.00    +0.245 C 
ATOM      8  N   GLU A  1       -0.072  -0.389   2.561  0.00  0.00    -0.298 N 
ATOM      9  H   GLU A  1       -0.805  -0.850   2.124  0.00  0.00    +0.150 HD
ATOM     10  O   UNK A  0        1.789  -0.516   3.767  0.00  0.00    -0.270 OA
BRANCH   8  11
ATOM     11  CA  GLU A  1        0.011   1.072   2.506  0.00  0.00    +0.182 C 
BRANCH  11  12
ATOM     12  C   GLU A  1       -0.621   1.658   3.743  0.00  0.00    +0.325 C 
ATOM     13  O   GLU A  1       -1.092   0.929   4.584  0.00  0.00    -0.249 OA
BRANCH  12  14
ATOM     14  OXT GLU A  1       -0.660   2.989   3.910  0.00  0.00    -0.479 OA
ATOM     15  HXT GLU A  1       -0.294   3.554   3.258  0.00  0.00    +0.295 HD
ENDBRANCH  12  14
ENDBRANCH  11  12
BRANCH  11  16
ATOM     16  CB  GLU A  1       -0.729   1.579   1.267  0.00  0.00    +0.045 C 
BRANCH  16  17
ATOM     17  CG  GLU A  1       -0.013   1.086   0.008  0.00  0.00    +0.123 C 
BRANCH  17  18
ATOM     18  CD  GLU A  1       -0.742   1.585  -1.213  0.00  0.00    +0.305 C 
ATOM     19  OE1 GLU A  1       -1.732   2.266  -1.089  0.00  0.00    -0.251 OA
BRANCH  18  20
ATOM     20  OE2 GLU A  1       -0.290   1.274  -2.438  0.00  0.00    -0.481 OA
ATOM     21  HE2 GLU A  1        0.478   0.746  -2.534  0.00  0.00    +0.295 HD
ENDBRANCH  18  20
ENDBRANCH  17  18
ENDBRANCH  16  17
ENDBRANCH  11  16
ENDBRANCH   8  11
ENDBRANCH   6   7
BRANCH   3  22
ATOM     22  N   UNK A  0        0.551  -6.717   3.429  0.00  0.00    -0.342 N 
ATOM     23  H   UNK A  0        1.229  -7.224   3.903  0.00  0.00    +0.146 HD
BRANCH  22  24
ATOM     24  C   UNK A  0       -0.556  -7.413   2.769  0.00  0.00    +0.125 C 
BRANCH  24  25
ATOM     25  C   UNK A  0       -0.407  -8.922   2.977  0.00  0.00    +0.105 C 
ATOM     26  C   UNK A  0       -1.486  -9.660   2.173  0.00  0.00    +0.126 C 
ATOM     27  N   UNK A  0       -1.318 -11.100   2.429  0.00  0.00    -0.326 N 
ATOM     28  H   UNK A  0       -2.085 -11.676   2.573  0.00  0.00    +0.148 HD
ATOM     29  C   UNK A  0       -0.026 -11.608   2.459  0.00  0.00    +0.149 A 
ATOM     30  C   UNK A  0        1.062 -10.752   2.507  0.00  0.00    +0.133 A 
ATOM     31  C   UNK A  0        2.350 -11.309   2.553  0.00  0.00    +0.276 A 
ATOM     32  N   UNK A  0        2.480 -12.652   2.546  0.00  0.00    -0.294 N 
ATOM     33  C   UNK A  0        1.376 -13.446   2.490  0.00  0.00    +0.195 A 
ATOM     34  H   UNK A  0        3.390 -13.065   2.581  0.00  0.00    +0.172 HD
ATOM     35  O   UNK A  0        3.337 -10.590   2.599  0.00  0.00    -0.266 OA
ATOM     36  N   UNK A  0        0.165 -12.933   2.448  0.00  0.00    -0.199 NA
ATOM     37  N   UNK A  0        0.915  -9.353   2.510  0.00  0.00    -0.331 N 
ATOM     38  H   UNK A  0        1.121  -8.966   1.601  0.00  0.00    +0.147 HD
BRANCH  33  39
ATOM     39  N   UNK A  0        1.529 -14.810   2.477  0.00  0.00    -0.329 N 
ATOM     40  H   UNK A  0        2.417 -15.198   2.508  0.00  0.00    +0.145 HD
ATOM     41  H   UNK A  0        0.749 -15.385   2.437  0.00  0.00    +0.145 HD
ENDBRANCH  33  39
ENDBRANCH  24  25
ENDBRANCH  22  24
ENDBRANCH   3  22
TORSDOF 12
