REMARK  Name = ZINC04366104
REMARK                            x       y       z     vdW  Elec       q    Type
REMARK                         _______ _______ _______ _____ _____    ______ ____
ROOT
ATOM      1  C   LIG    1        3.221  -4.318  -0.052  0.00  0.00    -0.020 A 
ATOM      2  C   LIG    1        3.598  -4.968  -1.183  0.00  0.00    +0.097 A 
ATOM      3  C   LIG    1        3.761  -6.368  -1.167  0.00  0.00    +0.338 A 
ATOM      4  O   LIG    1        3.551  -7.089  -0.054  0.00  0.00    -0.422 OA
ATOM      5  C   LIG    1        3.175  -6.505   1.103  0.00  0.00    +0.143 A 
ATOM      6  C   LIG    1        2.962  -7.265   2.244  0.00  0.00    +0.092 A 
ATOM      7  C   LIG    1        2.591  -6.643   3.425  0.00  0.00    +0.120 A 
ATOM      8  C   LIG    1        2.414  -5.262   3.473  0.00  0.00    +0.046 A 
ATOM      9  C   LIG    1        2.614  -4.500   2.359  0.00  0.00    +0.015 A 
ATOM     10  O   LIG    1        4.100  -6.938  -2.188  0.00  0.00    -0.245 OA
ATOM     11  C   LIG    1        2.999  -5.110   1.160  0.00  0.00    +0.022 A 
ENDROOT
BRANCH   7  12
ATOM     12  O   LIG    1        2.388  -7.388   4.542  0.00  0.00    -0.507 OA
ATOM     13  H   LIG    1        1.480  -7.704   4.645  0.00  0.00    +0.292 HD
ENDBRANCH   7  12
BRANCH   1  14
ATOM     14  C   LIG    1        3.041  -2.821  -0.042  0.00  0.00    +0.112 C 
BRANCH  14  15
ATOM     15  S   LIG    1        1.270  -2.426  -0.023  0.00  0.00    -0.101 S 
BRANCH  15  20
ATOM     16  C   LIG    1       -0.017   1.379   0.010  0.00  0.00    +0.004 A 
ATOM     17  C   LIG    1        1.195   2.058   0.002  0.00  0.00    +0.020 A 
ATOM     18  C   LIG    1        2.373   1.340  -0.013  0.00  0.00    +0.112 A 
ATOM     19  N   LIG    1        2.361   0.020  -0.020  0.00  0.00    -0.249 NA
ATOM     20  C   LIG    1        1.228  -0.664  -0.013  0.00  0.00    +0.097 A 
ATOM     21  C   LIG    1        0.002  -0.004   0.002  0.00  0.00    +0.035 A 
ENDBRANCH  15  20
ENDBRANCH  14  15
ENDBRANCH   1  14
TORSDOF 4
