REMARK  Name = ZINC04300057
REMARK                            x       y       z     vdW  Elec       q    Type
REMARK                         _______ _______ _______ _____ _____    ______ ____
ROOT
ATOM      1  C   LIG    1        1.143   1.845  -0.009  0.00  0.00    +0.064 A 
ATOM      2  C   LIG    1        0.034   1.294  -0.638  0.00  0.00    +0.026 A 
ATOM      3  C   LIG    1       -1.166   1.978  -0.644  0.00  0.00    +0.014 A 
ATOM      4  C   LIG    1       -1.267   3.205  -0.015  0.00  0.00    +0.057 A 
ATOM      5  C   LIG    1       -0.165   3.757   0.613  0.00  0.00    +0.046 A 
ATOM      6  C   LIG    1        1.039   3.081   0.617  0.00  0.00    +0.143 A 
ENDROOT
BRANCH   1   8
ATOM      7  C   LIG    1        2.374  -0.188   0.077  0.00  0.00    +0.252 C 
ATOM      8  N   LIG    1        2.360   1.158  -0.005  0.00  0.00    -0.280 N 
ATOM      9  H   LIG    1        3.195   1.649  -0.062  0.00  0.00    +0.155 HD
ATOM     10  O   LIG    1        1.329  -0.808   0.068  0.00  0.00    -0.270 OA
BRANCH   7  15
ATOM     11  C   LIG    1        6.058  -0.876   0.285  0.00  0.00    +0.001 A 
ATOM     12  C   LIG    1        6.072  -2.258   0.370  0.00  0.00    +0.004 A 
ATOM     13  C   LIG    1        4.890  -2.971   0.361  0.00  0.00    +0.046 A 
ATOM     14  C   LIG    1        3.677  -2.306   0.266  0.00  0.00    +0.129 A 
ATOM     15  C   LIG    1        3.658  -0.907   0.179  0.00  0.00    +0.078 A 
ATOM     16  C   LIG    1        4.862  -0.198   0.185  0.00  0.00    +0.017 A 
BRANCH  14  17
ATOM     17  O   LIG    1        2.515  -3.005   0.255  0.00  0.00    -0.506 OA
ATOM     18  H   LIG    1        2.218  -3.261  -0.628  0.00  0.00    +0.292 HD
ENDBRANCH  14  17
ENDBRANCH   7  15
ENDBRANCH   1   8
BRANCH   4  19
ATOM     19  C   LIG    1       -2.579   3.946  -0.018  0.00  0.00    +0.417 C 
ATOM     20  F   LIG    1       -2.678   4.725   1.140  0.00  0.00    -0.166 F 
ATOM     21  F   LIG    1       -3.634   3.027  -0.053  0.00  0.00    -0.166 F 
ATOM     22  F   LIG    1       -2.645   4.774  -1.144  0.00  0.00    -0.166 F 
ENDBRANCH   4  19
BRANCH   6  23
ATOM     23  N   LIG    1        2.218   3.671   1.289  0.00  0.00    +0.008 N 
ATOM     24  O   LIG    1        2.106   4.711   1.914  0.00  0.00    -0.130 OA
BRANCH  23  25
ATOM     25  O   LIG    1        3.301   3.118   1.218  0.00  0.00    -0.396 OA
ATOM     26  H   LIG    1        3.388   2.318   0.737  0.00  0.00    +0.329 HD
ENDBRANCH  23  25
ENDBRANCH   6  23
TORSDOF 6
