REMARK  Name = ZINC04475125
REMARK                            x       y       z     vdW  Elec       q    Type
REMARK                         _______ _______ _______ _____ _____    ______ ____
ROOT
ATOM      1  C   LIG    1       -1.167  -0.887   0.008  0.00  0.00    +0.253 C 
ATOM      2  C   LIG    1       -1.530  -1.288   1.455  0.00  0.00    +0.195 C 
ATOM      3  C   LIG    1       -3.075  -1.316   1.461  0.00  0.00    +0.178 C 
ATOM      4  C   LIG    1       -3.462  -0.929   0.016  0.00  0.00    +0.178 C 
ATOM      5  O   LIG    1       -2.329  -0.186  -0.485  0.00  0.00    -0.346 OA
ENDROOT
BRANCH   1  15
ATOM      6  C   LIG    1       -0.016   1.359   0.009  0.00  0.00    +0.203 A 
ATOM      7  N   LIG    1        1.200   1.820   0.000  0.00  0.00    -0.231 NA
ATOM      8  C   LIG    1        2.075   0.785  -0.013  0.00  0.00    +0.147 A 
ATOM      9  C   LIG    1        3.476   0.675  -0.028  0.00  0.00    +0.149 A 
ATOM     10  N   LIG    1        4.016  -0.538  -0.040  0.00  0.00    -0.201 NA
ATOM     11  C   LIG    1        3.261  -1.624  -0.039  0.00  0.00    +0.226 A 
ATOM     12 CL   LIG    1        4.033  -3.179  -0.055  0.00  0.00    -0.041 Cl
ATOM     13  N   LIG    1        1.945  -1.569  -0.026  0.00  0.00    -0.198 NA
ATOM     14  C   LIG    1        1.316  -0.397  -0.013  0.00  0.00    +0.169 A 
ATOM     15  N   LIG    1        0.002  -0.004   0.002  0.00  0.00    -0.285 N 
BRANCH   9  16
ATOM     16  N   LIG    1        4.274   1.806  -0.030  0.00  0.00    -0.341 N 
ATOM     17  H   LIG    1        5.240   1.717  -0.040  0.00  0.00    +0.144 HD
ATOM     18  H   LIG    1        3.868   2.686  -0.021  0.00  0.00    +0.144 HD
ENDBRANCH   9  16
ENDBRANCH   1  15
BRANCH   2  19
ATOM     19  O   LIG    1       -1.002  -2.579   1.765  0.00  0.00    -0.385 OA
ATOM     20  H   LIG    1       -1.200  -2.881   2.662  0.00  0.00    +0.210 HD
ENDBRANCH   2  19
BRANCH   3  21
ATOM     21  O   LIG    1       -3.551  -2.627   1.775  0.00  0.00    -0.386 OA
ATOM     22  H   LIG    1       -3.284  -2.942   2.650  0.00  0.00    +0.210 HD
ENDBRANCH   3  21
BRANCH   4  23
ATOM     23  C   LIG    1       -4.718  -0.055   0.018  0.00  0.00    +0.206 C 
BRANCH  23  24
ATOM     24  O   LIG    1       -5.126   0.195  -1.329  0.00  0.00    -0.284 OA
BRANCH  24  25
ATOM     25  P   LIG    1       -6.415   1.083  -1.704  0.00  0.00    +0.483 P 
ATOM     26  O   LIG    1       -7.660   0.513  -0.987  0.00  0.00    -0.227 OA
BRANCH  25  27
ATOM     27  O   LIG    1       -6.185   2.542  -1.253  0.00  0.00    -0.302 OA
ATOM     28  H   LIG    1       -6.044   2.566  -0.294  0.00  0.00    +0.222 HD
ENDBRANCH  25  27
BRANCH  25  29
ATOM     29  O   LIG    1       -6.649   1.044  -3.297  0.00  0.00    -0.186 OA
BRANCH  29  30
ATOM     30  P   LIG    1       -7.879   1.440  -4.257  0.00  0.00    +0.492 P 
ATOM     31  O   LIG    1       -9.207   0.997  -3.602  0.00  0.00    -0.226 OA
BRANCH  30  32
ATOM     32  O   LIG    1       -7.895   2.970  -4.470  0.00  0.00    -0.302 OA
ATOM     33  H   LIG    1       -7.997   3.414  -3.613  0.00  0.00    +0.222 HD
ENDBRANCH  30  32
BRANCH  30  34
ATOM     34  O   LIG    1       -7.710   0.702  -5.678  0.00  0.00    -0.186 OA
BRANCH  34  35
ATOM     35  P   LIG    1       -8.697   0.428  -6.920  0.00  0.00    +0.481 P 
ATOM     36  O   LIG    1       -9.481   1.718  -7.249  0.00  0.00    -0.227 OA
BRANCH  35  37
ATOM     37  O   LIG    1       -9.689  -0.698  -6.552  0.00  0.00    -0.302 OA
ATOM     38  H   LIG    1      -10.209  -0.430  -5.778  0.00  0.00    +0.222 HD
ENDBRANCH  35  37
BRANCH  35  39
ATOM     39  O   LIG    1       -7.833  -0.017  -8.204  0.00  0.00    -0.302 OA
ATOM     40  H   LIG    1       -8.364  -0.198  -8.991  0.00  0.00    +0.222 HD
ENDBRANCH  35  39
ENDBRANCH  34  35
ENDBRANCH  30  34
ENDBRANCH  29  30
ENDBRANCH  25  29
ENDBRANCH  24  25
ENDBRANCH  23  24
ENDBRANCH   4  23
TORSDOF 15
