REMARK  Name = ZINC04353330
REMARK                            x       y       z     vdW  Elec       q    Type
REMARK                         _______ _______ _______ _____ _____    ______ ____
ROOT
ATOM      1  C   LIG    1       -1.193   4.932  -4.730  0.00  0.00    +0.001 A 
ATOM      2  C   LIG    1       -2.277   4.264  -5.267  0.00  0.00    +0.001 A 
ATOM      3  C   LIG    1       -2.736   3.092  -4.686  0.00  0.00    +0.012 A 
ATOM      4  C   LIG    1       -2.101   2.588  -3.557  0.00  0.00    +0.036 A 
ATOM      5  C   LIG    1       -0.996   3.267  -3.007  0.00  0.00    +0.033 A 
ATOM      6  C   LIG    1       -0.323   2.732  -1.811  0.00  0.00    +0.193 C 
ATOM      7  O   LIG    1        0.735   3.396  -1.297  0.00  0.00    -0.287 OA
ATOM      8  C   LIG    1       -0.742   1.585  -1.213  0.00  0.00    +0.045 C 
ATOM      9  C   LIG    1       -1.831   0.851  -1.706  0.00  0.00    +0.171 C 
ATOM     10  C   LIG    1       -2.566   1.341  -2.915  0.00  0.00    +0.228 C 
ATOM     11  O   LIG    1       -3.514   0.727  -3.359  0.00  0.00    -0.283 OA
ATOM     12  C   LIG    1       -0.550   4.443  -3.605  0.00  0.00    +0.012 A 
ENDROOT
BRANCH   9  13
ATOM     13  O   LIG    1       -2.179  -0.174  -1.152  0.00  0.00    -0.503 OA
ATOM     14  H   LIG    1       -1.718  -0.478  -0.395  0.00  0.00    +0.292 HD
ENDBRANCH   9  13
BRANCH   8  15
ATOM     15  C   LIG    1       -0.013   1.086   0.008  0.00  0.00    +0.043 C 
BRANCH  15  16
ATOM     16  C   LIG    1       -0.729   1.579   1.267  0.00  0.00    +0.005 C 
BRANCH  16  17
ATOM     17  C   LIG    1        0.011   1.072   2.506  0.00  0.00    +0.004 C 
BRANCH  17  18
ATOM     18  C   LIG    1       -0.705   1.566   3.765  0.00  0.00    -0.011 C 
ATOM     19  C   LIG    1       -2.098   0.936   3.840  0.00  0.00    +0.004 C 
ATOM     20  C   LIG    1       -2.814   1.430   5.098  0.00  0.00    +0.004 C 
ATOM     21  C   LIG    1       -2.006   1.029   6.335  0.00  0.00    -0.008 C 
ATOM     22  C   LIG    1       -2.722   1.523   7.593  0.00  0.00    +0.004 C 
ATOM     23  C   LIG    1       -2.853   3.046   7.542  0.00  0.00    +0.000 C 
ATOM     24  C   LIG    1       -1.461   3.675   7.467  0.00  0.00    +0.000 C 
ATOM     25  C   LIG    1       -0.745   3.182   6.208  0.00  0.00    +0.004 C 
ATOM     26  C   LIG    1       -0.614   1.659   6.260  0.00  0.00    -0.008 C 
ATOM     27  C   LIG    1        0.102   1.165   5.001  0.00  0.00    +0.007 C 
ENDBRANCH  17  18
ENDBRANCH  16  17
ENDBRANCH  15  16
ENDBRANCH   8  15
TORSDOF 5
