REMARK  Name = ZINC04262457
REMARK                            x       y       z     vdW  Elec       q    Type
REMARK                         _______ _______ _______ _____ _____    ______ ____
ROOT
ATOM      1  N   LIG    1       -1.575  -1.749   1.067  0.00  0.00    -0.327 N 
ATOM      2  C   LIG    1       -0.851  -2.849   1.322  0.00  0.00    +0.105 A 
ATOM      3  C   LIG    1       -1.418  -3.490   2.362  0.00  0.00    +0.105 A 
ATOM      4  N   LIG    1       -2.508  -2.751   2.735  0.00  0.00    -0.335 N 
ATOM      5  C   LIG    1       -2.566  -1.681   1.913  0.00  0.00    +0.177 A 
ENDROOT
BRANCH   1   6
ATOM      6  C   LIG    1       -1.293  -0.775   0.010  0.00  0.00    +0.148 C 
BRANCH   6  13
ATOM      7  C   LIG    1        0.799   0.205  -0.953  0.00  0.00    +0.007 A 
ATOM      8  C   LIG    1        2.096   0.663  -0.824  0.00  0.00    +0.020 A 
ATOM      9  C   LIG    1        2.717   0.643   0.413  0.00  0.00    +0.041 A 
ATOM     10 CL   LIG    1        4.346   1.219   0.577  0.00  0.00    -0.084 Cl
ATOM     11  C   LIG    1        2.038   0.164   1.519  0.00  0.00    +0.020 A 
ATOM     12  C   LIG    1        0.741  -0.295   1.388  0.00  0.00    +0.007 A 
ATOM     13  C   LIG    1        0.122  -0.275   0.152  0.00  0.00    -0.020 A 
ENDBRANCH   6  13
BRANCH   6  14
ATOM     14  C   LIG    1       -1.461  -1.431  -1.336  0.00  0.00    -0.020 A 
ATOM     15  C   LIG    1       -2.481  -1.030  -2.178  0.00  0.00    +0.007 A 
ATOM     16  C   LIG    1       -2.635  -1.632  -3.413  0.00  0.00    +0.020 A 
ATOM     17  C   LIG    1       -1.768  -2.636  -3.806  0.00  0.00    +0.041 A 
ATOM     18 CL   LIG    1       -1.962  -3.392  -5.356  0.00  0.00    -0.084 Cl
ATOM     19  C   LIG    1       -0.747  -3.037  -2.963  0.00  0.00    +0.020 A 
ATOM     20  C   LIG    1       -0.591  -2.431  -1.730  0.00  0.00    +0.007 A 
ENDBRANCH   6  14
ENDBRANCH   1   6
BRANCH   4  21
ATOM     21  C   LIG    1       -3.436  -3.059   3.826  0.00  0.00    +0.159 C 
BRANCH  21  22
ATOM     22  C   LIG    1       -2.936  -2.412   5.120  0.00  0.00    +0.170 C 
BRANCH  22  23
ATOM     23  C   LIG    1       -3.950  -2.626   6.213  0.00  0.00    +0.001 A 
ATOM     24  C   LIG    1       -3.812  -3.688   7.087  0.00  0.00    +0.009 A 
ATOM     25  C   LIG    1       -4.742  -3.885   8.090  0.00  0.00    +0.020 A 
ATOM     26  C   LIG    1       -5.812  -3.017   8.221  0.00  0.00    +0.042 A 
ATOM     27 CL   LIG    1       -6.981  -3.264   9.480  0.00  0.00    -0.083 Cl
ATOM     28  C   LIG    1       -5.951  -1.954   7.347  0.00  0.00    +0.040 A 
ATOM     29  C   LIG    1       -5.017  -1.755   6.346  0.00  0.00    +0.048 A 
ATOM     30 CL   LIG    1       -5.187  -0.417   5.253  0.00  0.00    -0.083 Cl
ENDBRANCH  22  23
BRANCH  22  31
ATOM     31  O   LIG    1       -1.693  -3.007   5.500  0.00  0.00    -0.366 OA
BRANCH  31  32
ATOM     32  C   LIG    1       -0.822  -2.127   6.213  0.00  0.00    +0.197 C 
BRANCH  32  33
ATOM     33  C   LIG    1        0.451  -2.854   6.562  0.00  0.00    -0.004 A 
ATOM     34  C   LIG    1        0.620  -4.173   6.181  0.00  0.00    +0.009 A 
ATOM     35  C   LIG    1        1.787  -4.840   6.501  0.00  0.00    +0.020 A 
ATOM     36  C   LIG    1        2.787  -4.189   7.202  0.00  0.00    +0.042 A 
ATOM     37 CL   LIG    1        4.253  -5.028   7.604  0.00  0.00    -0.083 Cl
ATOM     38  C   LIG    1        2.619  -2.870   7.583  0.00  0.00    +0.040 A 
ATOM     39  C   LIG    1        1.452  -2.201   7.258  0.00  0.00    +0.048 A 
ATOM     40 CL   LIG    1        1.242  -0.544   7.730  0.00  0.00    -0.083 Cl
ENDBRANCH  32  33
ENDBRANCH  31  32
ENDBRANCH  22  31
ENDBRANCH  21  22
ENDBRANCH   4  21
TORSDOF 9
