REMARK  Name = ZINC04102315
REMARK                            x       y       z     vdW  Elec       q    Type
REMARK                         _______ _______ _______ _____ _____    ______ ____
ROOT
ATOM      1  C   LIG    1       -5.944  -4.155   3.001  0.00  0.00    +0.165 C 
ATOM      2  O   LIG    1       -5.338  -4.714   3.884  0.00  0.00    -0.295 OA
ENDROOT
BRANCH   1   3
ATOM      3  C   LIG    1       -7.437  -3.980   3.105  0.00  0.00    +0.223 C 
ATOM      4  C   LIG    1       -7.994  -3.355   4.386  0.00  0.00    +0.240 C 
ATOM      5  O   LIG    1       -8.130  -4.748   4.091  0.00  0.00    -0.351 OA
BRANCH   4   6
ATOM      6  C   LIG    1       -7.012  -2.955   5.457  0.00  0.00    +0.242 C 
ATOM      7  N   LIG    1       -6.135  -1.957   5.228  0.00  0.00    -0.327 N 
ATOM      8  H   LIG    1       -5.553  -1.651   5.941  0.00  0.00    +0.145 HD
ATOM      9  H   LIG    1       -6.088  -1.544   4.351  0.00  0.00    +0.145 HD
ATOM     10  O   LIG    1       -7.010  -3.531   6.524  0.00  0.00    -0.273 OA
ENDBRANCH   4   6
ENDBRANCH   1   3
BRANCH   1  11
ATOM     11  C   LIG    1       -5.207  -3.632   1.795  0.00  0.00    +0.081 C 
BRANCH  11  12
ATOM     12  C   LIG    1       -3.702  -3.821   1.996  0.00  0.00    +0.034 C 
BRANCH  12  14
ATOM     13  C   LIG    1       -2.026  -2.398   0.936  0.00  0.00    -0.027 C 
ATOM     14  C   LIG    1       -2.965  -3.299   0.789  0.00  0.00    -0.030 C 
BRANCH  13  15
ATOM     15  C   LIG    1       -1.288  -1.875  -0.271  0.00  0.00    +0.053 C 
BRANCH  15  18
ATOM     16  C   LIG    1       -0.405   1.859  -0.407  0.00  0.00    +0.035 C 
ATOM     17  C   LIG    1       -0.303   0.356  -0.369  0.00  0.00    -0.034 C 
ATOM     18  C   LIG    1       -1.390  -0.372  -0.309  0.00  0.00    -0.027 C 
ENDBRANCH  15  18
ENDBRANCH  13  15
ENDBRANCH  12  14
ENDBRANCH  11  12
ENDBRANCH   1  11
TORSDOF 7
