REMARK  Name = ZINC04617749
REMARK                            x       y       z     vdW  Elec       q    Type
REMARK                         _______ _______ _______ _____ _____    ______ ____
ROOT
ATOM      1  C   LIG    1        1.166  -1.700  -1.614  0.00  0.00    +0.090 A 
ATOM      2  C   LIG    1        0.959  -2.636  -0.611  0.00  0.00    +0.030 A 
ATOM      3  C   LIG    1        1.504  -3.901  -0.724  0.00  0.00    +0.034 A 
ATOM      4  C   LIG    1        2.255  -4.238  -1.835  0.00  0.00    +0.125 A 
ATOM      5  C   LIG    1        2.465  -3.311  -2.839  0.00  0.00    +0.080 A 
ATOM      6  C   LIG    1        1.918  -2.042  -2.736  0.00  0.00    +0.153 A 
ENDROOT
BRANCH   1   7
ATOM      7  N   LIG    1        0.616  -0.418  -1.503  0.00  0.00    -0.217 N 
ATOM      8  H   LIG    1        0.760   0.243  -2.217  0.00  0.00    +0.173 HD
BRANCH   7  10
ATOM      9  C   LIG    1       -0.779   1.707  -0.447  0.00  0.00    +0.218 C 
ATOM     10  S   LIG    1       -0.278  -0.014  -0.168  0.00  0.00    +0.040 S 
ATOM     11  O   LIG    1       -1.412  -0.869  -0.219  0.00  0.00    -0.155 OA
ATOM     12  O   LIG    1        0.637  -0.088   0.917  0.00  0.00    -0.155 OA
ENDBRANCH   7  10
ENDBRANCH   1   7
BRANCH   4  13
ATOM     13  N   LIG    1        2.836  -5.595  -1.949  0.00  0.00    +0.006 N 
ATOM     14  O   LIG    1        2.653  -6.406  -1.072  0.00  0.00    -0.130 OA
BRANCH  13  15
ATOM     15  O   LIG    1        3.493  -5.891  -2.920  0.00  0.00    -0.396 OA
ATOM     16  H   LIG    1        3.634  -5.262  -3.600  0.00  0.00    +0.329 HD
ENDBRANCH  13  15
ENDBRANCH   4  13
BRANCH   6  17
ATOM     17  O   LIG    1        2.119  -1.131  -3.726  0.00  0.00    -0.454 OA
BRANCH  17  18
ATOM     18  C   LIG    1        2.857  -1.511  -4.802  0.00  0.00    +0.129 A 
ATOM     19  C   LIG    1        2.237  -2.082  -5.904  0.00  0.00    +0.046 A 
ATOM     20  C   LIG    1        2.990  -2.466  -6.996  0.00  0.00    +0.004 A 
ATOM     21  C   LIG    1        4.361  -2.282  -6.992  0.00  0.00    +0.000 A 
ATOM     22  C   LIG    1        4.981  -1.713  -5.895  0.00  0.00    +0.004 A 
ATOM     23  C   LIG    1        4.232  -1.322  -4.803  0.00  0.00    +0.046 A 
ENDBRANCH  17  18
ENDBRANCH   6  17
TORSDOF 6
