REMARK  Name = ZINC04391801
REMARK                            x       y       z     vdW  Elec       q    Type
REMARK                         _______ _______ _______ _____ _____    ______ ____
ROOT
ATOM      1  C   LIG    1       -0.193   1.849   1.356  0.00  0.00    +0.007 C 
ATOM      2  C   LIG    1       -0.013   1.086   0.008  0.00  0.00    +0.002 C 
ATOM      3  C   LIG    1       -0.868   1.816  -1.083  0.00  0.00    +0.003 C 
ATOM      4  C   LIG    1       -0.557   3.301  -0.671  0.00  0.00    +0.032 C 
ATOM      5  C   LIG    1        1.312   1.891  -0.000  0.00  0.00    +0.103 C 
ATOM      6  C   LIG    1        0.407   3.030   0.535  0.00  0.00    +0.002 C 
ENDROOT
BRANCH   4   7
ATOM      7  N   LIG    1        0.145   4.000  -1.762  0.00  0.00    +0.389 N 
ATOM      8  H   LIG    1        0.910   3.407  -2.105  0.00  0.00    -0.088 HD
ATOM      9  H   LIG    1        0.532   4.878  -1.421  0.00  0.00    -0.088 HD
ATOM     10  H   LIG    1       -0.499   4.188  -2.528  0.00  0.00    -0.088 HD
ENDBRANCH   4   7
BRANCH   4  11
ATOM     11  C   LIG    1       -1.798   4.033  -0.230  0.00  0.00    +0.293 C 
ATOM     12  O   LIG    1       -2.178   3.945   0.913  0.00  0.00    -0.253 OA
BRANCH  11  13
ATOM     13  O   LIG    1       -2.482   4.783  -1.109  0.00  0.00    -0.482 OA
ATOM     14  H   LIG    1       -2.188   4.851  -1.996  0.00  0.00    +0.295 HD
ENDBRANCH  11  13
ENDBRANCH   4  11
BRANCH   5  15
ATOM     15  C   LIG    1        2.339   1.401   0.988  0.00  0.00    +0.308 C 
ATOM     16  O   LIG    1        2.489   1.978   2.039  0.00  0.00    -0.251 OA
BRANCH  15  17
ATOM     17  O   LIG    1        3.088   0.325   0.700  0.00  0.00    -0.480 OA
ATOM     18  H   LIG    1        2.972  -0.122  -0.116  0.00  0.00    +0.295 HD
ENDBRANCH  15  17
ENDBRANCH   5  15
TORSDOF 5
