REMARK  Name = ZINC04416885
REMARK                            x       y       z     vdW  Elec       q    Type
REMARK                         _______ _______ _______ _____ _____    ______ ____
ROOT
ATOM      1  C   LIG    1       -1.302   1.931   0.019  0.00  0.00    +0.098 C 
ATOM      2  C   LIG    1       -2.456   1.243   0.021  0.00  0.00    +0.098 C 
ENDROOT
BRANCH   1   3
ATOM      3  C   LIG    1       -0.014   1.210   0.009  0.00  0.00    +0.332 C 
ATOM      4  O   LIG    1        0.002  -0.004   0.002  0.00  0.00    -0.246 OA
BRANCH   3   6
ATOM      5  C   LIG    1        2.372   1.126  -0.015  0.00  0.00    +0.280 C 
ATOM      6  O   LIG    1        1.143   1.900   0.001  0.00  0.00    -0.465 OA
ENDBRANCH   3   6
ENDBRANCH   1   3
BRANCH   2   7
ATOM      7  C   LIG    1       -3.744   1.964   0.030  0.00  0.00    +0.330 C 
ATOM      8  O   LIG    1       -3.760   3.178   0.037  0.00  0.00    -0.246 OA
BRANCH   7   9
ATOM      9  O   LIG    1       -4.902   1.274   0.032  0.00  0.00    -0.478 OA
ATOM     10  H   LIG    1       -4.889   0.337   0.027  0.00  0.00    +0.295 HD
ENDBRANCH   7   9
ENDBRANCH   2   7
TORSDOF 4
