REMARK  Name = ZINC04263354
REMARK                            x       y       z     vdW  Elec       q    Type
REMARK                         _______ _______ _______ _____ _____    ______ ____
ROOT
ATOM      1  C   LIG    1        0.094  -3.055  -2.040  0.00  0.00    +0.108 A 
ATOM      2  C   LIG    1        0.666  -2.105  -2.866  0.00  0.00    +0.030 A 
ATOM      3  C   LIG    1        1.948  -2.289  -3.347  0.00  0.00    +0.024 A 
ATOM      4  C   LIG    1        2.661  -3.424  -3.002  0.00  0.00    +0.071 A 
ATOM      5 CL   LIG    1        4.272  -3.655  -3.606  0.00  0.00    -0.081 Cl
ATOM      6  C   LIG    1        2.088  -4.374  -2.175  0.00  0.00    +0.142 A 
ATOM      7  C   LIG    1        0.807  -4.187  -1.690  0.00  0.00    +0.062 A 
ENDROOT
BRANCH   1   8
ATOM      8  S   LIG    1       -1.541  -2.820  -1.427  0.00  0.00    +0.061 S 
ATOM      9  O   LIG    1       -2.195  -1.949  -2.339  0.00  0.00    -0.153 OA
ATOM     10  O   LIG    1       -2.046  -4.111  -1.111  0.00  0.00    -0.153 OA
BRANCH   8  11
ATOM     11  N   LIG    1       -1.413  -1.998   0.005  0.00  0.00    -0.177 NA
BRANCH  11  12
ATOM     12  C   LIG    1       -1.433  -0.534   0.013  0.00  0.00    +0.109 C 
BRANCH  12  14
ATOM     13  C   LIG    1       -0.019   1.526   0.010  0.00  0.00    +0.005 C 
ATOM     14  C   LIG    1        0.002  -0.004   0.002  0.00  0.00    +0.014 C 
ENDBRANCH  12  14
ENDBRANCH  11  12
BRANCH  11  15
ATOM     15  C   LIG    1       -1.281  -2.736   1.264  0.00  0.00    +0.109 C 
BRANCH  15  16
ATOM     16  C   LIG    1       -2.660  -2.905   1.904  0.00  0.00    +0.014 C 
ATOM     17  C   LIG    1       -2.522  -3.675   3.218  0.00  0.00    +0.005 C 
ENDBRANCH  15  16
ENDBRANCH  11  15
ENDBRANCH   8  11
ENDBRANCH   1   8
BRANCH   6  18
ATOM     18  N   LIG    1        2.850  -5.588  -1.805  0.00  0.00    +0.007 N 
ATOM     19  O   LIG    1        2.349  -6.418  -1.083  0.00  0.00    -0.130 OA
BRANCH  18  20
ATOM     20  O   LIG    1        3.972  -5.749  -2.225  0.00  0.00    -0.396 OA
ATOM     21  H   LIG    1        4.359  -5.106  -2.785  0.00  0.00    +0.329 HD
ENDBRANCH  18  20
ENDBRANCH   6  18
TORSDOF 8
