REMARK  Name = ZINC04740635
REMARK                            x       y       z     vdW  Elec       q    Type
REMARK                         _______ _______ _______ _____ _____    ______ ____
ROOT
ATOM      1  N   LIG    1        0.097  -2.778   0.084  0.00  0.00    -0.282 N 
ATOM      2  H   LIG    1       -0.417  -2.346  -0.616  0.00  0.00    +0.155 HD
ATOM      3  C   LIG    1        0.239  -4.118   0.087  0.00  0.00    +0.222 C 
ATOM      4  O   LIG    1        0.796  -4.667   1.014  0.00  0.00    -0.275 OA
ENDROOT
BRANCH   1  11
ATOM      5  C   LIG    1        0.172  -0.757   1.415  0.00  0.00    +0.141 A 
ATOM      6  C   LIG    1        0.761  -0.003   2.417  0.00  0.00    +0.049 A 
ATOM      7  C   LIG    1        1.865  -0.489   3.091  0.00  0.00    +0.024 A 
ATOM      8  C   LIG    1        2.386  -1.730   2.768  0.00  0.00    +0.043 A 
ATOM      9 CL   LIG    1        3.773  -2.334   3.619  0.00  0.00    -0.083 Cl
ATOM     10  C   LIG    1        1.804  -2.488   1.769  0.00  0.00    +0.047 A 
ATOM     11  C   LIG    1        0.692  -2.008   1.093  0.00  0.00    +0.077 A 
BRANCH   5  13
ATOM     12  C   LIG    1       -1.394   1.011   1.135  0.00  0.00    +0.277 C 
ATOM     13  O   LIG    1       -0.915  -0.280   0.751  0.00  0.00    -0.493 OA
ENDBRANCH   5  13
ENDBRANCH   1  11
BRANCH   3  14
ATOM     14  C   LIG    1       -0.293  -4.935  -1.062  0.00  0.00    +0.101 C 
ATOM     15  C   LIG    1       -1.834  -4.835  -1.145  0.00  0.00    +0.110 C 
ATOM     16  C   LIG    1       -2.274  -6.221  -1.563  0.00  0.00    +0.217 C 
ATOM     17  N   LIG    1       -1.276  -7.101  -1.370  0.00  0.00    -0.298 N 
ATOM     18  O   LIG    1       -3.367  -6.498  -2.009  0.00  0.00    -0.276 OA
ATOM     19  C   LIG    1       -0.087  -6.445  -0.810  0.00  0.00    +0.121 C 
BRANCH  17  20
ATOM     20  C   LIG    1       -1.362  -8.530  -1.679  0.00  0.00    +0.076 C 
ATOM     21  C   LIG    1       -1.648  -8.713  -3.171  0.00  0.00    +0.022 C 
ATOM     22  C   LIG    1       -1.738 -10.205  -3.494  0.00  0.00    +0.002 C 
ATOM     23  C   LIG    1       -2.868 -10.836  -2.677  0.00  0.00    +0.000 C 
ATOM     24  C   LIG    1       -2.582 -10.654  -1.185  0.00  0.00    +0.002 C 
ATOM     25  C   LIG    1       -2.492  -9.161  -0.862  0.00  0.00    +0.022 C 
ENDBRANCH  17  20
ENDBRANCH   3  14
TORSDOF 4
