REMARK  Name = ZINC04188704
REMARK                            x       y       z     vdW  Elec       q    Type
REMARK                         _______ _______ _______ _____ _____    ______ ____
ROOT
ATOM      1  N   LIG    1        0.136   0.466  -0.193  0.00  0.00    -0.246 N 
ATOM      2  C   LIG    1       -0.951  -0.330  -0.160  0.00  0.00    +0.225 C 
ATOM      3  O   LIG    1       -2.052   0.138  -0.356  0.00  0.00    -0.275 OA
ENDROOT
BRANCH   1   4
ATOM      4  C   LIG    1       -0.013   1.838  -0.352  0.00  0.00    +0.168 A 
ATOM      5  N   LIG    1        0.913   2.778  -0.409  0.00  0.00    -0.224 NA
ATOM      6  C   LIG    1        0.590   4.053  -0.565  0.00  0.00    +0.080 A 
ATOM      7  C   LIG    1       -0.728   4.403  -0.670  0.00  0.00    +0.076 A 
ATOM      8  S   LIG    1       -1.508   2.799  -0.540  0.00  0.00    -0.060 S 
BRANCH   6   9
ATOM      9  C   LIG    1        1.647   5.091  -0.626  0.00  0.00    +0.001 A 
ATOM     10  C   LIG    1        2.991   4.721  -0.617  0.00  0.00    +0.010 A 
ATOM     11  C   LIG    1        3.971   5.691  -0.679  0.00  0.00    +0.001 A 
ATOM     12  C   LIG    1        3.622   7.028  -0.738  0.00  0.00    +0.000 A 
ATOM     13  C   LIG    1        2.290   7.401  -0.742  0.00  0.00    +0.001 A 
ATOM     14  C   LIG    1        1.301   6.439  -0.686  0.00  0.00    +0.010 A 
ENDBRANCH   6   9
ENDBRANCH   1   4
BRANCH   2  15
ATOM     15  C   LIG    1       -0.798  -1.803   0.121  0.00  0.00    +0.076 C 
ATOM     16  C   LIG    1       -1.218  -2.779  -0.980  0.00  0.00    +0.013 C 
ATOM     17  C   LIG    1       -2.076  -2.629   0.279  0.00  0.00    +0.013 C 
ENDBRANCH   2  15
BRANCH   1  18
ATOM     18  C   LIG    1        1.474  -0.115  -0.062  0.00  0.00    +0.150 C 
BRANCH  18  22
ATOM     19  C   LIG    1        2.952  -1.175  -3.927  0.00  0.00    +0.000 A 
ATOM     20  C   LIG    1        3.099   0.119  -3.462  0.00  0.00    +0.000 A 
ATOM     21  C   LIG    1        2.621   0.462  -2.211  0.00  0.00    +0.005 A 
ATOM     22  C   LIG    1        1.996  -0.489  -1.426  0.00  0.00    -0.030 A 
ATOM     23  C   LIG    1        1.853  -1.784  -1.889  0.00  0.00    +0.005 A 
ATOM     24  C   LIG    1        2.327  -2.125  -3.142  0.00  0.00    +0.000 A 
ENDBRANCH  18  22
ENDBRANCH   1  18
TORSDOF 5
