REMARK  Name = ZINC04311981
REMARK                            x       y       z     vdW  Elec       q    Type
REMARK                         _______ _______ _______ _____ _____    ______ ____
ROOT
ATOM      1  C   UNK A  0       -2.451   4.750   0.050  0.00  0.00    +0.246 C 
ATOM      2  N   ASP A  1       -2.408   6.097   0.056  0.00  0.00    -0.298 N 
ATOM      3  H   ASP A  1       -1.552   6.555   0.050  0.00  0.00    +0.150 HD
ATOM      4  O   UNK A  0       -3.523   4.177   0.058  0.00  0.00    -0.270 OA
ENDROOT
BRANCH   1   6
ATOM      5  C   UNK A  0       -1.228   2.570   0.022  0.00  0.00    +0.031 A 
ATOM      6  C   UNK A  0       -1.196   3.970   0.034  0.00  0.00    +0.056 A 
ATOM      7  C   UNK A  0        0.041   4.616   0.025  0.00  0.00    +0.123 A 
ATOM      8  N   UNK A  0        1.160   3.922   0.011  0.00  0.00    -0.261 NA
ATOM      9  C   UNK A  0        1.161   2.603   0.005  0.00  0.00    +0.126 A 
ATOM     10  C   UNK A  0       -0.024   1.887   0.012  0.00  0.00    +0.037 A 
ATOM     11 BR   UNK A  0        0.002  -0.004   0.002  0.00  0.00    -0.049 Br
ENDBRANCH   1   6
BRANCH   2  12
ATOM     12  CA  ASP A  1       -3.652   6.870   0.072  0.00  0.00    +0.193 C 
BRANCH  12  13
ATOM     13  C   ASP A  1       -4.158   7.037  -1.337  0.00  0.00    +0.326 C 
ATOM     14  O   ASP A  1       -3.542   6.559  -2.261  0.00  0.00    -0.249 OA
BRANCH  13  15
ATOM     15  OXT ASP A  1       -5.293   7.716  -1.567  0.00  0.00    -0.479 OA
ATOM     16  HXT ASP A  1       -5.770   8.087  -0.851  0.00  0.00    +0.295 HD
ENDBRANCH  13  15
ENDBRANCH  12  13
BRANCH  12  17
ATOM     17  CB  ASP A  1       -3.389   8.247   0.686  0.00  0.00    +0.154 C 
BRANCH  17  18
ATOM     18  CG  ASP A  1       -3.001   8.086   2.133  0.00  0.00    +0.307 C 
ATOM     19  OD1 ASP A  1       -2.941   6.984   2.624  0.00  0.00    -0.251 OA
BRANCH  18  20
ATOM     20  OD2 ASP A  1       -2.722   9.168   2.877  0.00  0.00    -0.481 OA
ATOM     21  HD2 ASP A  1       -2.769  10.023   2.497  0.00  0.00    +0.295 HD
ENDBRANCH  18  20
ENDBRANCH  17  18
ENDBRANCH  12  17
ENDBRANCH   2  12
TORSDOF 7
