REMARK  Name = ZINC04785698
REMARK                            x       y       z     vdW  Elec       q    Type
REMARK                         _______ _______ _______ _____ _____    ______ ____
ROOT
ATOM      1  C   LIG    1       -4.252  -4.876   0.922  0.00  0.00    -0.010 C 
ATOM      2  C   LIG    1       -3.463  -5.114  -0.369  0.00  0.00    -0.015 C 
ATOM      3  C   LIG    1       -2.079  -4.475  -0.240  0.00  0.00    -0.078 C 
ATOM      4  N   LIG    1       -2.240  -3.022  -0.015  0.00  0.00    +0.385 N 
ATOM      5  H   LIG    1       -2.801  -2.627  -0.779  0.00  0.00    -0.081 HD
ATOM      6  C   LIG    1       -2.938  -2.781   1.266  0.00  0.00    -0.078 C 
ATOM      7  C   LIG    1       -4.348  -3.370   1.182  0.00  0.00    -0.015 C 
ENDROOT
BRANCH   1   8
ATOM      8  C   LIG    1       -5.658  -5.462   0.778  0.00  0.00    +0.038 C 
BRANCH   8  12
ATOM      9  C   LIG    1       -7.737  -5.108   4.492  0.00  0.00    +0.000 A 
ATOM     10  C   LIG    1       -7.813  -4.092   3.558  0.00  0.00    +0.000 A 
ATOM     11  C   LIG    1       -7.140  -4.206   2.356  0.00  0.00    +0.003 A 
ATOM     12  C   LIG    1       -6.391  -5.337   2.088  0.00  0.00    -0.047 A 
ATOM     13  C   LIG    1       -6.319  -6.355   3.021  0.00  0.00    +0.003 A 
ATOM     14  C   LIG    1       -6.989  -6.238   4.225  0.00  0.00    +0.000 A 
ENDBRANCH   8  12
ENDBRANCH   1   8
BRANCH   4  15
ATOM     15  C   LIG    1       -0.918  -2.364  -0.002  0.00  0.00    +0.002 C 
BRANCH  15  16
ATOM     16  C   LIG    1       -1.119  -0.871   0.008  0.00  0.00    +0.149 C 
ATOM     17  O   LIG    1       -2.243  -0.410   0.021  0.00  0.00    -0.294 OA
BRANCH  16  18
ATOM     18  C   LIG    1        0.002  -0.004   0.002  0.00  0.00    +0.040 A 
ATOM     19  C   LIG    1        1.331  -0.370  -0.013  0.00  0.00    +0.095 A 
ATOM     20  N   LIG    1        2.104   0.733  -0.014  0.00  0.00    -0.360 N 
ATOM     21  C   LIG    1        1.327   1.873  -0.001  0.00  0.00    +0.047 A 
ATOM     22  C   LIG    1        1.633   3.230   0.003  0.00  0.00    +0.026 A 
ATOM     23  C   LIG    1        0.619   4.164   0.018  0.00  0.00    +0.002 A 
ATOM     24  C   LIG    1       -0.709   3.765   0.028  0.00  0.00    +0.001 A 
ATOM     25  C   LIG    1       -1.032   2.425   0.030  0.00  0.00    +0.011 A 
ATOM     26  H   LIG    1        3.074   0.726  -0.023  0.00  0.00    +0.165 HD
ATOM     27  C   LIG    1       -0.018   1.472   0.010  0.00  0.00    +0.010 A 
ENDBRANCH  16  18
ENDBRANCH  15  16
ENDBRANCH   4  15
TORSDOF 5
