REMARK  Name = ZINC04660857
REMARK                            x       y       z     vdW  Elec       q    Type
REMARK                         _______ _______ _______ _____ _____    ______ ____
ROOT
ATOM      1  C   LIG    1        0.414  -2.193   0.509  0.00  0.00    +0.120 A 
ATOM      2  C   LIG    1        1.441  -2.950   0.034  0.00  0.00    +0.108 A 
ATOM      3  C   LIG    1        1.125  -4.340   0.421  0.00  0.00    +0.036 A 
ATOM      4  C   LIG    1        1.758  -5.565   0.239  0.00  0.00    +0.037 A 
ATOM      5  C   LIG    1        1.177  -6.717   0.742  0.00  0.00    +0.049 A 
ATOM      6  C   LIG    1       -0.036  -6.645   1.424  0.00  0.00    +0.028 A 
ATOM      7  C   LIG    1       -0.667  -5.434   1.606  0.00  0.00    +0.049 A 
ATOM      8  C   LIG    1       -0.095  -4.269   1.108  0.00  0.00    +0.136 A 
ATOM      9  O   LIG    1       -0.472  -2.973   1.138  0.00  0.00    -0.459 OA
ENDROOT
BRANCH   2  10
ATOM     10  C   LIG    1        2.618  -2.482  -0.710  0.00  0.00    +0.343 C 
ATOM     11  O   LIG    1        3.624  -2.154  -0.111  0.00  0.00    -0.245 OA
BRANCH  10  12
ATOM     12  O   LIG    1        2.583  -2.417  -2.056  0.00  0.00    -0.461 OA
BRANCH  12  13
ATOM     13  C   LIG    1        3.764  -1.953  -2.713  0.00  0.00    +0.229 C 
ATOM     14  C   LIG    1        3.536  -1.947  -4.226  0.00  0.00    +0.048 C 
ENDBRANCH  12  13
ENDBRANCH  10  12
ENDBRANCH   2  10
BRANCH   5  15
ATOM     15  N   LIG    1        1.806  -7.953   0.564  0.00  0.00    -0.216 N 
ATOM     16  H   LIG    1        2.157  -8.198  -0.307  0.00  0.00    +0.174 HD
BRANCH  15  17
ATOM     17  S   LIG    1        1.953  -8.999   1.839  0.00  0.00    +0.073 S 
ATOM     18  O   LIG    1        2.424  -8.233   2.940  0.00  0.00    -0.150 OA
ATOM     19  O   LIG    1        2.648 -10.139   1.352  0.00  0.00    -0.150 OA
BRANCH  17  20
ATOM     20  C   LIG    1        0.330  -9.539   2.259  0.00  0.00    +0.112 A 
ATOM     21  C   LIG    1       -0.209  -9.217   3.491  0.00  0.00    +0.032 A 
ATOM     22  C   LIG    1       -1.483  -9.641   3.820  0.00  0.00    -0.049 A 
ATOM     23  C   LIG    1       -2.070  -9.290   5.163  0.00  0.00    +0.044 C 
ATOM     24  C   LIG    1       -2.218 -10.387   2.918  0.00  0.00    +0.004 A 
ATOM     25  C   LIG    1       -1.679 -10.709   1.687  0.00  0.00    +0.005 A 
ATOM     26  C   LIG    1       -0.407 -10.281   1.355  0.00  0.00    -0.024 A 
ATOM     27  C   LIG    1        0.178 -10.628   0.011  0.00  0.00    +0.046 C 
ENDBRANCH  17  20
ENDBRANCH  15  17
ENDBRANCH   5  15
BRANCH   1  28
ATOM     28  C   LIG    1        0.296  -0.699   0.355  0.00  0.00    +0.075 C 
BRANCH  28  30
ATOM     29  C   LIG    1       -0.579   1.141  -1.091  0.00  0.00    +0.004 C 
ATOM     30  C   LIG    1       -0.460  -0.377  -0.935  0.00  0.00    +0.004 C 
ENDBRANCH  28  30
ENDBRANCH   1  28
TORSDOF 8
