REMARK  Name = ZINC04475274
REMARK                            x       y       z     vdW  Elec       q    Type
REMARK                         _______ _______ _______ _____ _____    ______ ____
ROOT
ATOM      1  C   LIG    1       -3.379  -3.358  -3.582  0.00  0.00    +0.018 A 
ATOM      2  C   LIG    1       -3.986  -4.562  -3.947  0.00  0.00    +0.015 A 
ATOM      3  C   LIG    1       -5.182  -4.547  -4.632  0.00  0.00    +0.046 A 
ATOM      4  C   LIG    1       -5.784  -3.338  -4.958  0.00  0.00    +0.121 A 
ATOM      5  C   LIG    1       -5.182  -2.139  -4.596  0.00  0.00    +0.046 A 
ATOM      6  C   LIG    1       -3.990  -2.145  -3.906  0.00  0.00    +0.015 A 
ENDROOT
BRANCH   1  15
ATOM      7  N   LIG    1        0.710  -1.961  -1.215  0.00  0.00    -0.276 N 
ATOM      8  C   LIG    1        1.737  -2.622  -0.648  0.00  0.00    +0.334 A 
ATOM      9  O   LIG    1        2.635  -1.988  -0.129  0.00  0.00    -0.246 OA
ATOM     10  N   LIG    1        1.792  -3.965  -0.638  0.00  0.00    -0.259 N 
ATOM     11  C   LIG    1        0.819  -4.705  -1.209  0.00  0.00    +0.282 A 
ATOM     12  O   LIG    1        0.883  -5.922  -1.197  0.00  0.00    -0.265 OA
ATOM     13  C   LIG    1       -0.273  -4.055  -1.820  0.00  0.00    +0.149 A 
ATOM     14  N   LIG    1       -1.410  -4.486  -2.478  0.00  0.00    -0.332 N 
ATOM     15  C   LIG    1       -2.097  -3.369  -2.848  0.00  0.00    +0.141 A 
ATOM     16  N   LIG    1       -1.437  -2.299  -2.449  0.00  0.00    -0.210 NA
ATOM     17  H   LIG    1       -1.668  -5.405  -2.645  0.00  0.00    +0.168 HD
ATOM     18  C   LIG    1       -0.321  -2.664  -1.819  0.00  0.00    +0.169 A 
BRANCH   7  19
ATOM     19  C   LIG    1        0.686  -0.496  -1.200  0.00  0.00    +0.128 C 
BRANCH  19  21
ATOM     20  C   LIG    1       -0.064   1.518   0.074  0.00  0.00    +0.005 C 
ATOM     21  C   LIG    1       -0.039  -0.012   0.058  0.00  0.00    +0.018 C 
ENDBRANCH  19  21
ENDBRANCH   7  19
BRANCH  10  22
ATOM     22  C   LIG    1        2.928  -4.636  -0.001  0.00  0.00    +0.130 C 
BRANCH  22  23
ATOM     23  C   LIG    1        4.040  -4.844  -1.032  0.00  0.00    +0.018 C 
ATOM     24  C   LIG    1        5.226  -5.544  -0.367  0.00  0.00    +0.005 C 
ENDBRANCH  22  23
ENDBRANCH  10  22
ENDBRANCH   1  15
BRANCH   4  25
ATOM     25  O   LIG    1       -6.962  -3.328  -5.633  0.00  0.00    -0.483 OA
BRANCH  25  26
ATOM     26  C   LIG    1       -7.525  -2.050  -5.936  0.00  0.00    +0.324 C 
BRANCH  26  27
ATOM     27  C   LIG    1       -8.821  -2.237  -6.681  0.00  0.00    +0.255 C 
ATOM     28  N   LIG    1       -9.534  -1.162  -7.073  0.00  0.00    -0.283 N 
ATOM     29  H   LIG    1       -9.248  -0.271  -6.819  0.00  0.00    +0.155 HD
ATOM     30  O   LIG    1       -9.224  -3.354  -6.928  0.00  0.00    -0.272 OA
BRANCH  28  31
ATOM     31  C   LIG    1      -10.684  -1.331  -7.846  0.00  0.00    +0.034 A 
ATOM     32  C   LIG    1      -11.507  -2.432  -7.633  0.00  0.00    +0.024 A 
ATOM     33  C   LIG    1      -12.642  -2.602  -8.394  0.00  0.00    +0.020 A 
ATOM     34  C   LIG    1      -12.966  -1.667  -9.381  0.00  0.00    +0.052 A 
ATOM     35  C   LIG    1      -12.137  -0.562  -9.592  0.00  0.00    +0.020 A 
ATOM     36  C   LIG    1      -11.006  -0.396  -8.824  0.00  0.00    +0.024 A 
BRANCH  34  37
ATOM     37  C   LIG    1      -14.146  -1.841 -10.175  0.00  0.00    +0.099 C 
ATOM     38  N   LIG    1      -15.081  -1.980 -10.804  0.00  0.00    -0.191 NA
ENDBRANCH  34  37
ENDBRANCH  28  31
ENDBRANCH  26  27
ENDBRANCH  25  26
ENDBRANCH   4  25
TORSDOF 10
