REMARK  Name = ZINC04771521
REMARK                            x       y       z     vdW  Elec       q    Type
REMARK                         _______ _______ _______ _____ _____    ______ ____
ROOT
ATOM      1  C   LIG    1        1.291  -4.276   2.065  0.00  0.00    +0.171 C 
ATOM      2  O   LIG    1        0.728  -4.742   1.097  0.00  0.00    -0.292 OA
ENDROOT
BRANCH   1   3
ATOM      3  C   LIG    1        1.897  -5.170   3.065  0.00  0.00    +0.019 A 
ATOM      4  C   LIG    1        2.542  -4.636   4.186  0.00  0.00    +0.011 A 
ATOM      5  C   LIG    1        3.106  -5.480   5.119  0.00  0.00    +0.002 A 
ATOM      6  C   LIG    1        3.036  -6.852   4.949  0.00  0.00    +0.020 A 
ATOM      7  C   LIG    1        2.400  -7.388   3.843  0.00  0.00    +0.042 A 
ATOM      8 CL   LIG    1        2.318  -9.111   3.641  0.00  0.00    -0.084 Cl
ATOM      9  C   LIG    1        1.824  -6.557   2.903  0.00  0.00    +0.031 A 
ENDBRANCH   1   3
BRANCH   1  10
ATOM     10  C   LIG    1        1.371  -2.782   2.243  0.00  0.00    +0.166 C 
BRANCH  10  11
ATOM     11  C   LIG    1        0.680  -2.101   1.091  0.00  0.00    +0.247 C 
ATOM     12  O   LIG    1        0.174  -2.761   0.214  0.00  0.00    -0.285 OA
BRANCH  11  13
ATOM     13  C   LIG    1        0.620  -0.612   1.032  0.00  0.00    +0.375 C 
ATOM     14  O   LIG    1        1.128   0.050   1.911  0.00  0.00    -0.242 OA
BRANCH  13  16
ATOM     15  C   LIG    1       -0.017   1.425   0.010  0.00  0.00    +0.280 C 
ATOM     16  O   LIG    1        0.002  -0.004   0.002  0.00  0.00    -0.462 OA
ENDBRANCH  13  16
ENDBRANCH  11  13
ENDBRANCH  10  11
ENDBRANCH   1  10
TORSDOF 5
