REMARK  Name = ZINC04102215
REMARK                            x       y       z     vdW  Elec       q    Type
REMARK                         _______ _______ _______ _____ _____    ______ ____
ROOT
ATOM      1  C   LIG    1        3.773   2.104  -1.831  0.00  0.00    +0.056 C 
ATOM      2  C   LIG    1        2.753   3.221  -1.578  0.00  0.00    +0.015 C 
ATOM      3  C   LIG    1        1.495   2.616  -0.974  0.00  0.00    -0.027 C 
ATOM      4  C   LIG    1        0.910   1.587  -1.950  0.00  0.00    +0.009 C 
ATOM      5  C   LIG    1        1.923   0.461  -2.181  0.00  0.00    +0.039 C 
ATOM      6  C   LIG    1        0.423   3.644  -0.628  0.00  0.00    -0.057 C 
ATOM      7  N   LIG    1        1.040   4.610   0.304  0.00  0.00    +0.382 N 
ATOM      8  H   LIG    1        1.946   4.913  -0.073  0.00  0.00    -0.081 HD
ATOM      9  C   LIG    1        1.249   3.955   1.606  0.00  0.00    -0.077 C 
ATOM     10  C   LIG    1        2.269   2.830   1.428  0.00  0.00    -0.003 C 
ATOM     11  C   LIG    1       -0.804   3.057   0.076  0.00  0.00    +0.021 C 
ATOM     12  C   LIG    1       -0.653   1.642   0.526  0.00  0.00    -0.041 A 
ATOM     13  C   LIG    1        0.619   1.112   0.617  0.00  0.00    +0.011 A 
ATOM     14  C   LIG    1        0.943  -0.216   0.798  0.00  0.00    +0.166 A 
ATOM     15  O   LIG    1        2.248  -0.425   0.539  0.00  0.00    -0.481 OA
ATOM     16  C   LIG    1        2.901   0.780   0.099  0.00  0.00    +0.217 C 
ATOM     17  C   LIG    1       -0.103  -1.092   1.121  0.00  0.00    +0.159 A 
ATOM     18  C   LIG    1       -1.390  -0.557   1.135  0.00  0.00    +0.049 A 
ATOM     19  C   LIG    1       -1.676   0.764   0.826  0.00  0.00    +0.007 A 
ATOM     20  C   LIG    1        1.873   1.888   0.338  0.00  0.00    +0.042 C 
ATOM     21  C   LIG    1        3.207   0.746  -1.400  0.00  0.00    +0.112 C 
ENDROOT
BRANCH   1  23
ATOM     22  C   LIG    1        4.815   3.356  -3.726  0.00  0.00    +0.041 C 
ATOM     23  C   LIG    1        4.111   2.058  -3.323  0.00  0.00    +0.066 C 
ATOM     24  C   LIG    1        5.034   0.870  -3.601  0.00  0.00    +0.041 C 
BRANCH  23  25
ATOM     25  O   LIG    1        2.908   1.914  -4.080  0.00  0.00    -0.389 OA
ATOM     26  H   LIG    1        2.274   2.634  -3.953  0.00  0.00    +0.210 HD
ENDBRANCH  23  25
ENDBRANCH   1  23
BRANCH  17  27
ATOM     27  O   LIG    1        0.127  -2.402   1.406  0.00  0.00    -0.503 OA
ATOM     28  H   LIG    1        0.287  -2.578   2.343  0.00  0.00    +0.292 HD
ENDBRANCH  17  27
BRANCH  21  29
ATOM     29  O   LIG    1        4.167  -0.279  -1.669  0.00  0.00    -0.373 OA
ATOM     30  C   LIG    1        3.737  -1.590  -1.297  0.00  0.00    +0.194 C 
ENDBRANCH  21  29
BRANCH   7  31
ATOM     31  C   LIG    1        0.161   5.798   0.468  0.00  0.00    -0.075 C 
BRANCH  31  32
ATOM     32  C   LIG    1        0.680   6.661   1.620  0.00  0.00    -0.028 C 
ATOM     33  C   LIG    1       -0.228   6.833   2.839  0.00  0.00    +0.002 C 
ATOM     34  C   LIG    1       -0.017   8.000   1.871  0.00  0.00    +0.002 C 
ENDBRANCH  31  32
ENDBRANCH   7  31
TORSDOF 6
