REMARK  Name = ZINC04661798
REMARK                            x       y       z     vdW  Elec       q    Type
REMARK                         _______ _______ _______ _____ _____    ______ ____
ROOT
ATOM      1  S   LIG    1        1.097   3.914   0.013  0.00  0.00    +0.144 S 
ATOM      2  O   LIG    1       -0.270   4.301   0.055  0.00  0.00    -0.132 OA
ATOM      3  O   LIG    1        1.978   4.338  -1.019  0.00  0.00    -0.132 OA
ENDROOT
BRANCH   1   5
ATOM      4  C   LIG    1       -0.018   1.474   0.010  0.00  0.00    +0.030 C 
ATOM      5  C   LIG    1        1.121   2.152   0.003  0.00  0.00    +0.178 C 
BRANCH   4   9
ATOM      6  C   LIG    1        0.040  -2.773  -0.014  0.00  0.00    +0.000 A 
ATOM      7  C   LIG    1       -1.169  -2.100   0.002  0.00  0.00    +0.001 A 
ATOM      8  C   LIG    1       -1.195  -0.721   0.010  0.00  0.00    +0.008 A 
ATOM      9  C   LIG    1        0.002  -0.004   0.002  0.00  0.00    -0.024 A 
ATOM     10  C   LIG    1        1.218  -0.688  -0.019  0.00  0.00    +0.008 A 
ATOM     11  C   LIG    1        1.230  -2.068  -0.022  0.00  0.00    +0.001 A 
ENDBRANCH   4   9
ENDBRANCH   1   5
BRANCH   1  12
ATOM     12  O   LIG    1        1.718   4.365   1.327  0.00  0.00    -0.343 OA
BRANCH  12  13
ATOM     13  C   LIG    1        3.070   4.240   1.371  0.00  0.00    +0.157 A 
ATOM     14  C   LIG    1        3.638   3.052   1.842  0.00  0.00    +0.049 A 
ATOM     15  C   LIG    1        4.988   2.894   1.893  0.00  0.00    +0.012 A 
ATOM     16  C   LIG    1        5.828   3.942   1.478  0.00  0.00    -0.018 A 
ATOM     17  C   LIG    1        7.227   3.816   1.523  0.00  0.00    +0.008 A 
ATOM     18  C   LIG    1        8.011   4.850   1.114  0.00  0.00    +0.001 A 
ATOM     19  C   LIG    1        7.447   6.037   0.650  0.00  0.00    +0.001 A 
ATOM     20  C   LIG    1        6.097   6.196   0.592  0.00  0.00    +0.008 A 
ATOM     21  C   LIG    1        5.255   5.149   1.006  0.00  0.00    -0.014 A 
ATOM     22  C   LIG    1        3.857   5.278   0.961  0.00  0.00    +0.057 A 
ENDBRANCH  12  13
ENDBRANCH   1  12
TORSDOF 4
