REMARK  Name = ZINC04809572
REMARK                            x       y       z     vdW  Elec       q    Type
REMARK                         _______ _______ _______ _____ _____    ______ ____
ROOT
ATOM      1  C   LIG    1       -0.437  -4.204   0.733  0.00  0.00    +0.096 C 
ATOM      2  C   LIG    1       -1.592  -4.639   1.591  0.00  0.00    +0.010 A 
ATOM      3  C   LIG    1       -1.473  -4.625   2.968  0.00  0.00    +0.053 A 
ATOM      4  C   LIG    1       -2.535  -5.027   3.762  0.00  0.00    +0.121 A 
ATOM      5  C   LIG    1       -3.720  -5.446   3.174  0.00  0.00    +0.049 A 
ATOM      6  C   LIG    1       -3.841  -5.460   1.799  0.00  0.00    +0.050 A 
ATOM      7  C   LIG    1       -2.776  -5.057   1.003  0.00  0.00    +0.132 A 
ATOM      8  O   LIG    1       -2.898  -5.074  -0.345  0.00  0.00    -0.460 OA
ATOM      9  C   LIG    1       -1.804  -5.123  -1.126  0.00  0.00    +0.114 C 
ATOM     10  C   LIG    1       -1.966  -5.636  -2.538  0.00  0.00    +0.081 C 
ATOM     11  C   LIG    1       -0.690  -6.329  -2.984  0.00  0.00    -0.021 C 
ATOM     12  C   LIG    1       -0.844  -6.812  -4.428  0.00  0.00    +0.012 C 
ATOM     13  C   LIG    1       -0.399  -7.519  -2.067  0.00  0.00    +0.012 C 
ATOM     14  C   LIG    1        0.460  -5.319  -2.898  0.00  0.00    +0.086 C 
ATOM     15  C   LIG    1        0.537  -4.788  -1.494  0.00  0.00    +0.164 C 
ATOM     16  O   LIG    1        1.605  -4.404  -1.059  0.00  0.00    -0.292 OA
ATOM     17  C   LIG    1       -0.605  -4.726  -0.672  0.00  0.00    +0.045 C 
ENDROOT
BRANCH   1  23
ATOM     18  C   LIG    1        0.102   1.521   0.059  0.00  0.00    +0.012 C 
ATOM     19  C   LIG    1        0.060  -0.008   0.026  0.00  0.00    -0.021 C 
ATOM     20  C   LIG    1       -1.397  -0.482   0.037  0.00  0.00    +0.086 C 
ATOM     21  C   LIG    1       -1.424  -1.988   0.091  0.00  0.00    +0.164 C 
ATOM     22  O   LIG    1       -2.358  -2.591  -0.399  0.00  0.00    -0.292 OA
ATOM     23  C   LIG    1       -0.380  -2.698   0.701  0.00  0.00    +0.044 C 
ATOM     24  C   LIG    1        0.670  -2.070   1.260  0.00  0.00    +0.102 C 
ATOM     25  C   LIG    1        0.756  -0.512  -1.240  0.00  0.00    +0.012 C 
ATOM     26  C   LIG    1        0.772  -0.568   1.260  0.00  0.00    +0.080 C 
BRANCH  24  27
ATOM     27  O   LIG    1        1.649  -2.799   1.829  0.00  0.00    -0.511 OA
ATOM     28  H   LIG    1        1.547  -3.753   1.714  0.00  0.00    +0.292 HD
ENDBRANCH  24  27
ENDBRANCH   1  23
BRANCH   4  29
ATOM     29  O   LIG    1       -2.416  -5.013   5.117  0.00  0.00    -0.495 OA
ATOM     30  C   LIG    1       -3.551  -5.442   5.872  0.00  0.00    +0.277 C 
ENDBRANCH   4  29
TORSDOF 3
