REMARK  Name = ZINC04099172
REMARK                            x       y       z     vdW  Elec       q    Type
REMARK                         _______ _______ _______ _____ _____    ______ ____
ROOT
ATOM      1  CA  MET A  1        2.047   0.045  -1.266  0.00  0.00    +0.159 C 
ENDROOT
BRANCH   1   2
ATOM      2  N   MET A  1        2.249   1.442  -0.873  0.00  0.00    -0.302 N 
ATOM      3  H   MET A  1        2.361   2.126  -1.552  0.00  0.00    +0.150 HD
ATOM      4  C   MET A  1        2.281   1.777   0.432  0.00  0.00    +0.234 C 
ATOM      5  O   MET A  1        2.233   0.912   1.281  0.00  0.00    -0.274 OA
BRANCH   4   6
ATOM      6  CA  MET A  1        2.376   3.225   0.837  0.00  0.00    +0.159 C 
BRANCH   6   7
ATOM      7  N   MET A  1        1.923   3.377   2.222  0.00  0.00    -0.307 N 
ATOM      8  H   MET A  1        1.167   3.949   2.425  0.00  0.00    +0.149 HD
ATOM      9  C   UNK A  0        2.557   2.720   3.213  0.00  0.00    +0.326 C 
ATOM     10  O   UNK A  0        3.502   2.003   2.959  0.00  0.00    -0.280 OA
ENDBRANCH   6   7
BRANCH   6  11
ATOM     11  CB  MET A  1        3.828   3.693   0.721  0.00  0.00    +0.042 C 
BRANCH  11  12
ATOM     12  CG  MET A  1        3.905   5.194   1.010  0.00  0.00    +0.071 C 
BRANCH  12  13
ATOM     13  SD  MET A  1        5.627   5.748   0.873  0.00  0.00    -0.164 S 
ATOM     14  CE  MET A  1        5.547   7.523   1.240  0.00  0.00    +0.084 C 
ENDBRANCH  12  13
ENDBRANCH  11  12
ENDBRANCH   6  11
ENDBRANCH   4   6
ENDBRANCH   1   2
BRANCH   1  15
ATOM     15  C   MET A  1        2.715  -0.205  -2.594  0.00  0.00    +0.234 C 
ATOM     16  N   PHE A  2        3.003  -1.464  -2.977  0.00  0.00    -0.301 N 
ATOM     17  H   PHE A  2        2.717  -2.214  -2.432  0.00  0.00    +0.150 HD
ATOM     18  O   MET A  1        2.994   0.728  -3.317  0.00  0.00    -0.274 OA
BRANCH  16  19
ATOM     19  CA  PHE A  2        3.747  -1.701  -4.216  0.00  0.00    +0.186 C 
BRANCH  19  20
ATOM     20  C   PHE A  2        2.791  -1.720  -5.380  0.00  0.00    +0.326 C 
ATOM     21  O   PHE A  2        3.167  -1.359  -6.483  0.00  0.00    -0.249 OA
BRANCH  20  22
ATOM     22  OXT PHE A  2        1.642  -2.094  -5.220  0.00  0.00    -0.479 OA
ATOM     23  HXT PHE A  2        1.354  -2.371  -4.373  0.00  0.00    +0.295 HD
ENDBRANCH  20  22
ENDBRANCH  19  20
BRANCH  19  24
ATOM     24  CB  PHE A  2        4.469  -3.047  -4.128  0.00  0.00    +0.069 C 
BRANCH  24  25
ATOM     25  CG  PHE A  2        5.512  -2.988  -3.041  0.00  0.00    -0.045 A 
ATOM     26  CD2 PHE A  2        6.797  -2.574  -3.338  0.00  0.00    +0.004 A 
ATOM     27  CE2 PHE A  2        7.753  -2.519  -2.342  0.00  0.00    +0.000 A 
ATOM     28  CZ  PHE A  2        7.425  -2.878  -1.048  0.00  0.00    +0.000 A 
ATOM     29  CE1 PHE A  2        6.140  -3.291  -0.751  0.00  0.00    +0.000 A 
ATOM     30  CD1 PHE A  2        5.182  -3.342  -1.746  0.00  0.00    +0.004 A 
ENDBRANCH  24  25
ENDBRANCH  19  24
ENDBRANCH  16  19
ENDBRANCH   1  15
BRANCH   1  31
ATOM     31  CB  MET A  1        0.548  -0.238  -1.389  0.00  0.00    +0.034 C 
BRANCH  31  33
ATOM     32  CD1 MET A  1        0.763  -2.543  -0.449  0.00  0.00    +0.007 C 
ATOM     33  CG  MET A  1        0.332  -1.726  -1.669  0.00  0.00    -0.015 C 
ATOM     34  CD2 MET A  1       -1.150  -1.981  -1.955  0.00  0.00    +0.007 C 
ENDBRANCH  31  33
ENDBRANCH   1  31
TORSDOF 14
