REMARK  Name = ZINC04765038
REMARK                            x       y       z     vdW  Elec       q    Type
REMARK                         _______ _______ _______ _____ _____    ______ ____
ROOT
ATOM      1  C   LIG    1        2.882   2.023  -2.255  0.00  0.00    +0.040 C 
ATOM      2  C   LIG    1        3.297   1.179  -1.077  0.00  0.00    -0.052 C 
ATOM      3  C   LIG    1        2.481   1.070  -0.015  0.00  0.00    +0.065 C 
ATOM      4  C   LIG    1        2.877   0.237   1.142  0.00  0.00    +0.340 C 
ATOM      5  O   LIG    1        4.127  -0.299   1.147  0.00  0.00    -0.457 OA
ATOM      6  C   LIG    1        4.578  -0.740  -0.162  0.00  0.00    +0.185 C 
ATOM      7  C   LIG    1        5.972  -1.359  -0.090  0.00  0.00    +0.064 C 
ATOM      8  C   LIG    1        6.375  -1.827  -1.493  0.00  0.00    +0.084 C 
ATOM      9 CL   LIG    1        5.205  -3.073  -2.067  0.00  0.00    -0.122 Cl
ATOM     10  C   LIG    1        6.374  -0.645  -2.462  0.00  0.00    +0.020 C 
ATOM     11  C   LIG    1        4.983  -0.002  -2.505  0.00  0.00    +0.013 C 
ATOM     12  O   LIG    1        2.107   0.034   2.060  0.00  0.00    -0.245 OA
ATOM     13  C   LIG    1        4.617   0.468  -1.100  0.00  0.00    +0.056 C 
ENDROOT
BRANCH   3  14
ATOM     14  C   LIG    1        1.184   1.790   0.000  0.00  0.00    -0.011 A 
ATOM     15  C   LIG    1       -0.013   1.076   0.008  0.00  0.00    +0.009 A 
ATOM     16  C   LIG    1       -1.216   1.751   0.017  0.00  0.00    +0.001 A 
ATOM     17  C   LIG    1       -1.236   3.134   0.029  0.00  0.00    +0.000 A 
ATOM     18  C   LIG    1       -0.052   3.848   0.022  0.00  0.00    +0.001 A 
ATOM     19  C   LIG    1        1.157   3.183   0.008  0.00  0.00    +0.009 A 
ENDBRANCH   3  14
TORSDOF 1
