REMARK  Name = ZINC04141357
REMARK                            x       y       z     vdW  Elec       q    Type
REMARK                         _______ _______ _______ _____ _____    ______ ____
ROOT
ATOM      1  C   LIG    1       -0.729   1.579   1.267  0.00  0.00    -0.030 C 
ATOM      2  C   LIG    1       -2.164   1.050   1.278  0.00  0.00    +0.010 C 
ATOM      3  C   LIG    1       -2.904   1.556   0.038  0.00  0.00    -0.011 C 
ATOM      4  C   LIG    1       -2.925   3.086   0.047  0.00  0.00    +0.007 C 
ATOM      5  C   LIG    1       -1.490   3.616   0.036  0.00  0.00    -0.011 C 
ATOM      6  C   LIG    1       -0.773   3.123  -1.223  0.00  0.00    -0.010 C 
ATOM      7  C   LIG    1       -0.753   1.593  -1.232  0.00  0.00    -0.070 C 
ATOM      8  C   LIG    1       -2.188   1.063  -1.221  0.00  0.00    -0.010 C 
ATOM      9  C   LIG    1       -0.013   1.086   0.008  0.00  0.00    -0.006 C 
ATOM     10  C   LIG    1       -0.750   3.109   1.275  0.00  0.00    +0.010 C 
ENDROOT
BRANCH   7  11
ATOM     11  N   LIG    1       -0.068   1.094  -2.437  0.00  0.00    +0.382 N 
ATOM     12  H   LIG    1       -0.094   0.068  -2.440  0.00  0.00    -0.089 HD
ATOM     13  H   LIG    1        0.903   1.401  -2.439  0.00  0.00    -0.089 HD
ATOM     14  H   LIG    1       -0.535   1.441  -3.273  0.00  0.00    -0.089 HD
ENDBRANCH   7  11
BRANCH   1  16
ATOM     15  C   LIG    1       -0.705   1.566   3.765  0.00  0.00    +0.004 C 
ATOM     16  C   LIG    1        0.011   1.072   2.506  0.00  0.00    +0.003 C 
ENDBRANCH   1  16
TORSDOF 2
