REMARK  Name = ZINC04654858
REMARK                            x       y       z     vdW  Elec       q    Type
REMARK                         _______ _______ _______ _____ _____    ______ ____
ROOT
ATOM      1  C   LIG    1        0.849  -0.517   1.172  0.00  0.00    -0.002 C 
ATOM      2  C   LIG    1        1.047  -2.050   1.071  0.00  0.00    +0.004 C 
ATOM      3  C   LIG    1        2.581  -2.292   1.036  0.00  0.00    +0.004 C 
ATOM      4  C   LIG    1        3.142  -1.038   1.716  0.00  0.00    -0.001 C 
ATOM      5  C   LIG    1        4.589  -0.707   1.402  0.00  0.00    +0.000 C 
ATOM      6  C   LIG    1        5.501  -1.799   1.972  0.00  0.00    +0.031 C 
ATOM      7  C   LIG    1        6.933  -1.382   1.808  0.00  0.00    -0.027 C 
ATOM      8  C   LIG    1        7.306  -0.137   1.744  0.00  0.00    -0.065 C 
ATOM      9  C   LIG    1        6.346   1.049   1.792  0.00  0.00    -0.008 C 
ATOM     10  C   LIG    1        6.352   1.774   0.445  0.00  0.00    +0.016 C 
ATOM     11  C   LIG    1        6.838   2.039   2.852  0.00  0.00    +0.014 C 
ATOM     12  C   LIG    1        8.281   2.441   2.540  0.00  0.00    +0.032 C 
ATOM     13  C   LIG    1        9.188   1.211   2.616  0.00  0.00    +0.119 C 
ATOM     14  C   LIG    1        8.788   0.163   1.586  0.00  0.00    +0.062 C 
ATOM     15  C   LIG    1        4.918   0.628   2.098  0.00  0.00    +0.003 C 
ATOM     16  C   LIG    1        3.956   1.744   1.702  0.00  0.00    +0.005 C 
ATOM     17  C   LIG    1        2.490   1.337   1.919  0.00  0.00    +0.007 C 
ATOM     18  C   LIG    1        2.252   0.079   1.105  0.00  0.00    -0.026 C 
ATOM     19  C   LIG    1        2.646   0.316  -0.354  0.00  0.00    +0.012 C 
ENDROOT
BRANCH   1  21
ATOM     20  C   LIG    1       -0.227   1.492   0.148  0.00  0.00    +0.008 C 
ATOM     21  C   LIG    1        0.003  -0.013   0.001  0.00  0.00    -0.010 C 
BRANCH  21  22
ATOM     22  C   LIG    1       -1.345  -0.737  -0.003  0.00  0.00    +0.006 C 
BRANCH  22  23
ATOM     23  C   LIG    1       -2.141  -0.326  -1.243  0.00  0.00    +0.032 C 
BRANCH  23  24
ATOM     24  C   LIG    1       -3.489  -1.050  -1.247  0.00  0.00    +0.117 C 
BRANCH  24  25
ATOM     25  C   LIG    1       -4.233  -0.737  -2.547  0.00  0.00    +0.011 C 
ATOM     26  C   LIG    1       -5.581  -1.460  -2.550  0.00  0.00    +0.010 C 
ATOM     27  C   LIG    1       -3.397  -1.208  -3.739  0.00  0.00    +0.010 C 
ENDBRANCH  24  25
BRANCH  24  28
ATOM     28  O   LIG    1       -4.269  -0.610  -0.134  0.00  0.00    -0.392 OA
ATOM     29  H   LIG    1       -4.455   0.339  -0.134  0.00  0.00    +0.210 HD
ENDBRANCH  24  28
ENDBRANCH  23  24
ENDBRANCH  22  23
ENDBRANCH  21  22
ENDBRANCH   1  21
BRANCH  13  30
ATOM     30  O   LIG    1       10.545   1.607   2.409  0.00  0.00    -0.391 OA
ATOM     31  H   LIG    1       11.177   0.876   2.444  0.00  0.00    +0.210 HD
ENDBRANCH  13  30
TORSDOF 7
