REMARK  Name = ZINC04212617
REMARK                            x       y       z     vdW  Elec       q    Type
REMARK                         _______ _______ _______ _____ _____    ______ ____
ROOT
ATOM      1  C   LIG    1       -0.041   1.518  -0.001  0.00  0.00    +0.064 C 
ATOM      2  C   LIG    1       -0.009   0.011   0.000  0.00  0.00    +0.028 A 
ATOM      3  C   LIG    1        0.007  -0.775  -1.117  0.00  0.00    +0.050 A 
ATOM      4  C   LIG    1        0.038  -2.172  -0.643  0.00  0.00    +0.011 A 
ATOM      5  C   LIG    1        0.064  -3.409  -1.282  0.00  0.00    +0.014 A 
ATOM      6  C   LIG    1        0.090  -4.558  -0.542  0.00  0.00    +0.046 A 
ATOM      7  C   LIG    1        0.090  -4.499   0.849  0.00  0.00    +0.122 A 
ATOM      8  C   LIG    1        0.065  -3.280   1.500  0.00  0.00    +0.072 A 
ATOM      9  C   LIG    1        0.038  -2.103   0.759  0.00  0.00    +0.054 A 
ATOM     10  N   LIG    1        0.015  -0.768   1.108  0.00  0.00    -0.333 N 
ENDROOT
BRANCH   3  11
ATOM     11  C   LIG    1       -0.005  -0.321  -2.512  0.00  0.00    +0.195 C 
ATOM     12  O   LIG    1       -1.059  -0.238  -3.115  0.00  0.00    -0.287 OA
BRANCH  11  13
ATOM     13  C   LIG    1        1.262   0.037  -3.184  0.00  0.00    +0.022 A 
ATOM     14  C   LIG    1        2.482  -0.169  -2.536  0.00  0.00    +0.013 A 
ATOM     15  C   LIG    1        3.660   0.167  -3.168  0.00  0.00    +0.021 A 
ATOM     16  C   LIG    1        3.636   0.707  -4.443  0.00  0.00    +0.041 A 
ATOM     17 CL   LIG    1        5.124   1.127  -5.232  0.00  0.00    -0.084 Cl
ATOM     18  C   LIG    1        2.429   0.913  -5.091  0.00  0.00    +0.021 A 
ATOM     19  C   LIG    1        1.244   0.576  -4.472  0.00  0.00    +0.013 A 
ENDBRANCH  11  13
ENDBRANCH   3  11
BRANCH   7  20
ATOM     20  O   LIG    1        0.116  -5.650   1.573  0.00  0.00    -0.495 OA
ATOM     21  C   LIG    1        0.141  -6.876   0.840  0.00  0.00    +0.277 C 
ENDBRANCH   7  20
BRANCH  10  22
ATOM     22  C   LIG    1        0.013  -0.264   2.484  0.00  0.00    +0.242 C 
BRANCH  22  23
ATOM     23  C   LIG    1       -1.409  -0.122   2.965  0.00  0.00    +0.325 C 
ATOM     24  O   LIG    1       -2.334  -0.415   2.226  0.00  0.00    -0.249 OA
BRANCH  23  25
ATOM     25  O   LIG    1       -1.633   0.286   4.091  0.00  0.00    -0.479 OA
ATOM     26  H   LIG    1       -0.922   0.511   4.659  0.00  0.00    +0.295 HD
ENDBRANCH  23  25
ENDBRANCH  22  23
ENDBRANCH  10  22
TORSDOF 6
