REMARK  Name = ZINC04257702
REMARK                            x       y       z     vdW  Elec       q    Type
REMARK                         _______ _______ _______ _____ _____    ______ ____
ROOT
ATOM      1  C   LIG    1       -0.016   1.358   0.009  0.00  0.00    +0.000 C 
ATOM      2  C   LIG    1        1.170   2.088   0.002  0.00  0.00    +0.002 C 
ATOM      3  C   LIG    1        2.379   1.462  -0.013  0.00  0.00    +0.019 C 
ATOM      4  C   LIG    1        2.438   0.057  -0.020  0.00  0.00    +0.058 C 
ATOM      5  C   LIG    1        1.230  -0.680  -0.013  0.00  0.00    +0.023 C 
ATOM      6  C   LIG    1        1.295  -2.093  -0.021  0.00  0.00    +0.060 C 
ATOM      7  C   LIG    1        2.548  -2.689  -0.034  0.00  0.00    +0.023 C 
ATOM      8  C   LIG    1        3.690  -1.899  -0.039  0.00  0.00    +0.058 C 
ATOM      9  C   LIG    1        4.917  -2.790  -0.053  0.00  0.00    +0.019 C 
ATOM     10  C   LIG    1        4.415  -4.181   0.387  0.00  0.00    +0.002 C 
ATOM     11  C   LIG    1        2.933  -4.152  -0.044  0.00  0.00    +0.006 C 
ATOM     12  N   LIG    1        3.610  -0.584  -0.032  0.00  0.00    -0.310 NA
ATOM     13  H   LIG    1        4.428  -0.064  -0.037  0.00  0.00    +0.122 HD
ATOM     14  C   LIG    1        0.002  -0.004   0.002  0.00  0.00    +0.006 C 
ENDROOT
BRANCH   6  15
ATOM     15  N   LIG    1        0.140  -2.860  -0.017  0.00  0.00    -0.327 NA
ATOM     16  H   LIG    1        0.201  -3.828  -0.022  0.00  0.00    +0.118 HD
ATOM     17  H   LIG    1       -0.729  -2.429  -0.007  0.00  0.00    +0.118 HD
ENDBRANCH   6  15
TORSDOF 1
