REMARK  Name = ZINC04501578
REMARK                            x       y       z     vdW  Elec       q    Type
REMARK                         _______ _______ _______ _____ _____    ______ ____
ROOT
ATOM      1  S   LIG    1        7.657  -2.892  -0.088  0.00  0.00    +0.059 S 
ATOM      2  O   LIG    1        8.613  -1.996  -0.637  0.00  0.00    -0.153 OA
ATOM      3  O   LIG    1        7.402  -4.172  -0.649  0.00  0.00    -0.153 OA
ENDROOT
BRANCH   1   7
ATOM      4  C   LIG    1        3.699  -0.689  -0.037  0.00  0.00    -0.018 A 
ATOM      5  C   LIG    1        4.896   0.024  -0.040  0.00  0.00    +0.010 A 
ATOM      6  C   LIG    1        6.099  -0.652  -0.055  0.00  0.00    +0.029 A 
ATOM      7  C   LIG    1        6.118  -2.035  -0.068  0.00  0.00    +0.105 A 
ATOM      8  C   LIG    1        4.932  -2.748  -0.066  0.00  0.00    +0.029 A 
ATOM      9  C   LIG    1        3.724  -2.082  -0.045  0.00  0.00    +0.010 A 
BRANCH   4  13
ATOM     10  C   LIG    1       -0.017   1.379   0.010  0.00  0.00    +0.000 A 
ATOM     11  C   LIG    1        1.169   2.092   0.002  0.00  0.00    +0.001 A 
ATOM     12  C   LIG    1        2.377   1.426  -0.013  0.00  0.00    +0.008 A 
ATOM     13  C   LIG    1        2.402   0.033  -0.021  0.00  0.00    -0.018 A 
ATOM     14  C   LIG    1        1.205  -0.680  -0.013  0.00  0.00    +0.008 A 
ATOM     15  C   LIG    1        0.002  -0.004   0.002  0.00  0.00    +0.001 A 
ENDBRANCH   4  13
ENDBRANCH   1   7
BRANCH   1  16
ATOM     16  N   LIG    1        8.097  -3.145   1.489  0.00  0.00    -0.176 NA
ATOM     17  H   LIG    1        8.891  -2.718   1.845  0.00  0.00    +0.149 HD
BRANCH  16  18
ATOM     18  C   LIG    1        7.286  -4.014   2.345  0.00  0.00    +0.185 C 
BRANCH  18  19
ATOM     19  C   LIG    1        7.862  -5.407   2.337  0.00  0.00    +0.324 C 
ATOM     20  O   LIG    1        8.952  -5.612   1.831  0.00  0.00    -0.249 OA
BRANCH  19  21
ATOM     21  O   LIG    1        7.238  -6.327   2.837  0.00  0.00    -0.479 OA
ATOM     22  H   LIG    1        6.401  -6.169   3.226  0.00  0.00    +0.295 HD
ENDBRANCH  19  21
ENDBRANCH  18  19
BRANCH  18  23
ATOM     23  C   LIG    1        7.289  -3.469   3.774  0.00  0.00    +0.043 C 
BRANCH  23  24
ATOM     24  C   LIG    1        6.591  -2.108   3.803  0.00  0.00    +0.122 C 
BRANCH  24  25
ATOM     25  C   LIG    1        6.595  -1.571   5.211  0.00  0.00    +0.305 C 
ATOM     26  O   LIG    1        7.108  -2.217   6.108  0.00  0.00    -0.251 OA
BRANCH  25  27
ATOM     27  O   LIG    1        6.085  -0.490   5.452  0.00  0.00    -0.481 OA
ATOM     28  H   LIG    1        5.690   0.007   4.762  0.00  0.00    +0.295 HD
ENDBRANCH  25  27
ENDBRANCH  24  25
ENDBRANCH  23  24
ENDBRANCH  18  23
ENDBRANCH  16  18
ENDBRANCH   1  16
TORSDOF 10
