REMARK  Name = ZINC04270243
REMARK                            x       y       z     vdW  Elec       q    Type
REMARK                         _______ _______ _______ _____ _____    ______ ____
ROOT
ATOM      1  C   LIG    1        4.931  -2.707  -0.061  0.00  0.00    +0.165 A 
ATOM      2  N   LIG    1        5.144  -4.005  -0.075  0.00  0.00    -0.229 NA
ATOM      3  C   LIG    1        6.370  -4.495  -0.089  0.00  0.00    +0.059 A 
ATOM      4  C   LIG    1        7.391  -3.602  -0.088  0.00  0.00    +0.072 A 
ATOM      5  S   LIG    1        6.486  -2.062  -0.073  0.00  0.00    -0.060 S 
ENDROOT
BRANCH   1   7
ATOM      6  C   LIG    1        3.695  -0.684  -0.037  0.00  0.00    +0.250 C 
ATOM      7  N   LIG    1        3.717  -2.032  -0.045  0.00  0.00    -0.261 N 
ATOM      8  H   LIG    1        2.885  -2.530  -0.039  0.00  0.00    +0.157 HD
ATOM      9  O   LIG    1        4.738  -0.059  -0.044  0.00  0.00    -0.270 OA
BRANCH   6  13
ATOM     10  C   LIG    1       -0.017   1.379   0.010  0.00  0.00    +0.000 A 
ATOM     11  C   LIG    1        1.168   2.094   0.002  0.00  0.00    +0.001 A 
ATOM     12  C   LIG    1        2.377   1.430  -0.013  0.00  0.00    +0.013 A 
ATOM     13  C   LIG    1        2.404   0.034  -0.021  0.00  0.00    +0.037 A 
ATOM     14  C   LIG    1        1.204  -0.681  -0.013  0.00  0.00    +0.013 A 
ATOM     15  C   LIG    1        0.002  -0.004   0.002  0.00  0.00    +0.001 A 
ENDBRANCH   6  13
ENDBRANCH   1   7
BRANCH   3  16
ATOM     16  C   LIG    1        6.625  -5.980  -0.105  0.00  0.00    +0.153 C 
BRANCH  16  17
ATOM     17  C   LIG    1        5.914  -6.624   1.058  0.00  0.00    +0.241 C 
ATOM     18  N   LIG    1        6.000  -7.955   1.246  0.00  0.00    -0.197 N 
ATOM     19  H   LIG    1        6.519  -8.499   0.633  0.00  0.00    +0.182 HD
ATOM     20  O   LIG    1        5.266  -5.943   1.824  0.00  0.00    -0.273 OA
BRANCH  18  21
ATOM     21  O   LIG    1        5.333  -8.560   2.338  0.00  0.00    -0.295 OA
ATOM     22  H   LIG    1        5.452  -9.518   2.391  0.00  0.00    +0.241 HD
ENDBRANCH  18  21
ENDBRANCH  16  17
ENDBRANCH   3  16
TORSDOF 5
