REMARK  Name = ZINC04718748
REMARK                            x       y       z     vdW  Elec       q    Type
REMARK                         _______ _______ _______ _____ _____    ______ ____
ROOT
ATOM      1  C   LIG    1       -4.061  -9.038  -1.487  0.00  0.00    +0.031 C 
ATOM      2  C   LIG    1       -4.931  -9.442  -0.280  0.00  0.00    +0.121 C 
ATOM      3  C   LIG    1       -5.748 -10.655  -0.790  0.00  0.00    +0.063 C 
ATOM      4  C   LIG    1       -4.724 -11.410  -1.673  0.00  0.00    +0.124 C 
ATOM      5  C   LIG    1       -3.928 -10.288  -2.374  0.00  0.00    +0.046 C 
ENDROOT
BRANCH   2   6
ATOM      6  O   LIG    1       -5.800  -8.371   0.092  0.00  0.00    -0.391 OA
ATOM      7  H   LIG    1       -6.370  -8.571   0.847  0.00  0.00    +0.210 HD
ENDBRANCH   2   6
BRANCH   4   8
ATOM      8  O   LIG    1       -5.398 -12.225  -2.635  0.00  0.00    -0.391 OA
ATOM      9  H   LIG    1       -5.958 -12.910  -2.246  0.00  0.00    +0.210 HD
ENDBRANCH   4   8
BRANCH   5  10
ATOM     10  C   LIG    1       -2.479 -10.682  -2.498  0.00  0.00    -0.022 C 
ATOM     11  C   LIG    1       -1.908 -10.718  -3.676  0.00  0.00    +0.003 C 
BRANCH  11  12
ATOM     12  C   LIG    1       -0.459 -11.112  -3.800  0.00  0.00    +0.174 C 
BRANCH  12  13
ATOM     13  O   LIG    1        0.038 -11.510  -2.520  0.00  0.00    -0.384 OA
ATOM     14  H   LIG    1       -0.430 -12.262  -2.133  0.00  0.00    +0.210 HD
ENDBRANCH  12  13
BRANCH  12  15
ATOM     15  C   LIG    1       -0.330 -12.279  -4.782  0.00  0.00    +0.264 C 
BRANCH  15  16
ATOM     16  O   LIG    1        1.053 -12.576  -4.988  0.00  0.00    -0.489 OA
BRANCH  16  17
ATOM     17  C   LIG    1        1.344 -13.595  -5.840  0.00  0.00    +0.121 A 
ATOM     18  C   LIG    1        0.320 -14.290  -6.468  0.00  0.00    +0.045 A 
ATOM     19  C   LIG    1        0.619 -15.324  -7.333  0.00  0.00    +0.004 A 
ATOM     20  C   LIG    1        1.937 -15.667  -7.574  0.00  0.00    +0.012 A 
ATOM     21  C   LIG    1        2.958 -14.977  -6.949  0.00  0.00    +0.058 A 
ATOM     22  C   LIG    1        2.665 -13.938  -6.087  0.00  0.00    +0.058 A 
BRANCH  21  23
ATOM     23  C   LIG    1        4.394 -15.354  -7.212  0.00  0.00    +0.418 C 
ATOM     24  F   LIG    1        5.004 -15.734  -6.012  0.00  0.00    -0.166 F 
ATOM     25  F   LIG    1        5.072 -14.257  -7.754  0.00  0.00    -0.166 F 
ATOM     26  F   LIG    1        4.437 -16.422  -8.116  0.00  0.00    -0.166 F 
ENDBRANCH  21  23
ENDBRANCH  16  17
ENDBRANCH  15  16
ENDBRANCH  12  15
ENDBRANCH  11  12
ENDBRANCH   5  10
BRANCH   1  27
ATOM     27  C   LIG    1       -4.740  -7.911  -2.268  0.00  0.00    +0.033 C 
BRANCH  27  29
ATOM     28  C   LIG    1       -4.311  -7.469  -4.631  0.00  0.00    -0.031 C 
ATOM     29  C   LIG    1       -3.849  -7.480  -3.405  0.00  0.00    -0.031 C 
BRANCH  28  30
ATOM     30  C   LIG    1       -3.421  -7.039  -5.768  0.00  0.00    +0.027 C 
BRANCH  30  31
ATOM     31  C   LIG    1       -3.383  -8.139  -6.831  0.00  0.00    +0.015 C 
BRANCH  31  32
ATOM     32  C   LIG    1       -2.479  -7.702  -7.985  0.00  0.00    +0.121 C 
BRANCH  32  33
ATOM     33  C   LIG    1       -2.441  -8.785  -9.032  0.00  0.00    +0.307 C 
ATOM     34  O   LIG    1       -3.072  -9.803  -8.871  0.00  0.00    -0.251 OA
BRANCH  33  35
ATOM     35  O   LIG    1       -1.706  -8.620 -10.143  0.00  0.00    -0.462 OA
BRANCH  35  37
ATOM     36  C   LIG    1       -1.514  -9.121 -12.499  0.00  0.00    +0.052 C 
ATOM     37  C   LIG    1       -1.716  -9.688 -11.092  0.00  0.00    +0.170 C 
ATOM     38  C   LIG    1       -0.586 -10.668 -10.770  0.00  0.00    +0.052 C 
ENDBRANCH  35  37
ENDBRANCH  33  35
ENDBRANCH  32  33
ENDBRANCH  31  32
ENDBRANCH  30  31
ENDBRANCH  28  30
ENDBRANCH  27  29
ENDBRANCH   1  27
TORSDOF 17
