REMARK  Name = ZINC04620459
REMARK                            x       y       z     vdW  Elec       q    Type
REMARK                         _______ _______ _______ _____ _____    ______ ____
ROOT
ATOM      1  N   LIG    1        3.107  -0.102  -3.050  0.00  0.00    -0.271 NA
ATOM      2  C   LIG    1        3.811   0.725  -3.747  0.00  0.00    +0.115 C 
ATOM      3  C   LIG    1        5.162   1.395  -3.611  0.00  0.00    +0.198 C 
ATOM      4  C   LIG    1        5.149   1.476  -5.123  0.00  0.00    +0.230 C 
ATOM      5  O   LIG    1        5.975   1.538  -6.002  0.00  0.00    -0.286 OA
ATOM      6  C   LIG    1        3.660   1.440  -5.041  0.00  0.00    +0.246 C 
ATOM      7  O   LIG    1        2.736   1.823  -5.728  0.00  0.00    -0.282 OA
ENDROOT
BRANCH   3   8
ATOM      8  N   LIG    1        5.111   2.700  -2.949  0.00  0.00    -0.326 N 
ATOM      9  H   LIG    1        4.294   3.221  -2.966  0.00  0.00    +0.147 HD
BRANCH   8  10
ATOM     10  C   LIG    1        6.243   3.195  -2.290  0.00  0.00    +0.071 A 
ATOM     11  C   LIG    1        7.414   2.453  -2.270  0.00  0.00    +0.026 A 
ATOM     12  C   LIG    1        8.537   2.936  -1.621  0.00  0.00    +0.003 A 
ATOM     13  C   LIG    1        8.503   4.160  -0.989  0.00  0.00    +0.017 A 
ATOM     14  C   LIG    1        7.331   4.921  -0.999  0.00  0.00    +0.080 A 
ATOM     15  C   LIG    1        6.196   4.436  -1.659  0.00  0.00    +0.150 A 
BRANCH  14  16
ATOM     16  C   LIG    1        7.291   6.231  -0.322  0.00  0.00    +0.250 C 
ATOM     17  N   LIG    1        7.626   6.328   0.980  0.00  0.00    -0.304 N 
ATOM     18  C   LIG    1        8.113   5.149   1.700  0.00  0.00    +0.132 C 
ATOM     19  C   LIG    1        7.504   7.612   1.674  0.00  0.00    +0.132 C 
ATOM     20  O   LIG    1        6.956   7.224  -0.939  0.00  0.00    -0.270 OA
ENDBRANCH  14  16
BRANCH  15  21
ATOM     21  O   LIG    1        5.053   5.169  -1.681  0.00  0.00    -0.504 OA
ATOM     22  H   LIG    1        4.458   4.992  -0.939  0.00  0.00    +0.292 HD
ENDBRANCH  15  21
ENDBRANCH   8  10
ENDBRANCH   3   8
BRANCH   1  23
ATOM     23  C   LIG    1        1.796  -0.540  -3.538  0.00  0.00    +0.171 C 
BRANCH  23  24
ATOM     24  C   LIG    1        1.798  -2.037  -3.709  0.00  0.00    +0.129 A 
ATOM     25  C   LIG    1        1.232  -2.713  -4.724  0.00  0.00    +0.047 A 
ATOM     26  C   LIG    1        1.472  -4.086  -4.487  0.00  0.00    +0.045 A 
ATOM     27  C   LIG    1        2.172  -4.167  -3.341  0.00  0.00    +0.102 A 
ATOM     28  C   LIG    1        2.655  -5.437  -2.690  0.00  0.00    +0.086 C 
ATOM     29  O   LIG    1        2.372  -2.922  -2.877  0.00  0.00    -0.463 OA
ENDBRANCH  23  24
BRANCH  23  31
ATOM     30  C   LIG    1        0.631   1.382  -2.447  0.00  0.00    +0.006 C 
ATOM     31  C   LIG    1        0.718  -0.143  -2.528  0.00  0.00    +0.031 C 
ENDBRANCH  23  31
ENDBRANCH   1  23
TORSDOF 7
