REMARK  Name = ZINC04280782
REMARK                            x       y       z     vdW  Elec       q    Type
REMARK                         _______ _______ _______ _____ _____    ______ ____
ROOT
ATOM      1  C   LIG    1       -2.553   4.223   0.037  0.00  0.00    +0.186 C 
ATOM      2  O   LIG    1       -3.609   3.618   0.039  0.00  0.00    -0.287 OA
ENDROOT
BRANCH   1   6
ATOM      3  C   LIG    1       -2.540   8.470   0.061  0.00  0.00    +0.120 A 
ATOM      4  C   LIG    1       -3.747   7.780   0.063  0.00  0.00    +0.046 A 
ATOM      5  C   LIG    1       -3.756   6.404   0.055  0.00  0.00    +0.015 A 
ATOM      6  C   LIG    1       -2.549   5.699   0.045  0.00  0.00    +0.022 A 
ATOM      7  C   LIG    1       -1.337   6.396   0.049  0.00  0.00    +0.015 A 
ATOM      8  C   LIG    1       -1.337   7.773   0.052  0.00  0.00    +0.046 A 
BRANCH   3  10
ATOM      9  C   LIG    1       -1.261  10.472   0.067  0.00  0.00    +0.277 C 
ATOM     10  O   LIG    1       -2.536   9.827   0.069  0.00  0.00    -0.495 OA
ENDBRANCH   3  10
ENDBRANCH   1   6
BRANCH   1  11
ATOM     11  C   LIG    1       -1.286   3.486   0.027  0.00  0.00    +0.052 C 
ATOM     12  C   LIG    1       -1.291   2.138   0.020  0.00  0.00    +0.012 C 
BRANCH  12  13
ATOM     13  C   LIG    1       -0.017   1.398   0.010  0.00  0.00    -0.022 A 
ATOM     14  C   LIG    1        1.211   2.075   0.002  0.00  0.00    +0.027 A 
ATOM     15  C   LIG    1        2.379   1.340  -0.014  0.00  0.00    +0.111 A 
ATOM     16  N   LIG    1        2.350   0.021  -0.021  0.00  0.00    -0.263 NA
ATOM     17  C   LIG    1        1.218  -0.656  -0.013  0.00  0.00    +0.111 A 
ATOM     18  C   LIG    1        0.002  -0.004   0.002  0.00  0.00    +0.027 A 
ENDBRANCH  12  13
ENDBRANCH   1  11
TORSDOF 4
