REMARK  Name = ZINC04163034
REMARK                            x       y       z     vdW  Elec       q    Type
REMARK                         _______ _______ _______ _____ _____    ______ ____
ROOT
ATOM      1  C   LIG    1        0.390  -7.738   1.407  0.00  0.00    +0.115 C 
ATOM      2  C   LIG    1       -1.138  -7.673   1.339  0.00  0.00    +0.018 C 
ATOM      3  C   LIG    1       -1.588  -6.210   1.327  0.00  0.00    +0.020 C 
ATOM      4  C   LIG    1       -1.018  -5.515   0.087  0.00  0.00    +0.108 C 
ATOM      5  N   LIG    1        0.440  -5.698   0.070  0.00  0.00    -0.294 N 
ATOM      6  C   LIG    1        1.264  -4.636  -0.035  0.00  0.00    +0.287 C 
ATOM      7  O   LIG    1        2.448  -4.806  -0.243  0.00  0.00    -0.266 OA
ATOM      8  C   LIG    1        0.982  -7.060   0.162  0.00  0.00    +0.122 C 
ENDROOT
BRANCH   1   9
ATOM      9  C   LIG    1        0.830  -9.178   1.452  0.00  0.00    +0.312 C 
ATOM     10  O   LIG    1        0.007 -10.063   1.430  0.00  0.00    -0.250 OA
BRANCH   9  11
ATOM     11  O   LIG    1        2.137  -9.479   1.515  0.00  0.00    -0.465 OA
BRANCH  11  13
ATOM     12  C   LIG    1        4.010 -11.032   1.624  0.00  0.00    +0.048 C 
ATOM     13  C   LIG    1        2.488 -10.887   1.554  0.00  0.00    +0.229 C 
ENDBRANCH  11  13
ENDBRANCH   9  11
ENDBRANCH   1   9
BRANCH   6  14
ATOM     14  C   LIG    1        0.722  -3.254   0.107  0.00  0.00    +0.249 C 
ATOM     15  O   LIG    1       -0.058  -2.820  -0.719  0.00  0.00    -0.282 OA
BRANCH  14  16
ATOM     16  C   LIG    1        1.128  -2.421   1.238  0.00  0.00    +0.052 A 
ATOM     17  C   LIG    1        1.999  -2.768   2.253  0.00  0.00    +0.095 A 
ATOM     18  N   LIG    1        2.123  -1.739   3.111  0.00  0.00    -0.360 N 
ATOM     19  C   LIG    1        1.346  -0.670   2.709  0.00  0.00    +0.047 A 
ATOM     20  C   LIG    1        1.129   0.597   3.239  0.00  0.00    +0.026 A 
ATOM     21  C   LIG    1        0.277   1.473   2.601  0.00  0.00    +0.002 A 
ATOM     22  C   LIG    1       -0.371   1.104   1.432  0.00  0.00    +0.001 A 
ATOM     23  C   LIG    1       -0.169  -0.148   0.892  0.00  0.00    +0.011 A 
ATOM     24  H   LIG    1        2.682  -1.747   3.904  0.00  0.00    +0.165 HD
ATOM     25  C   LIG    1        0.689  -1.042   1.525  0.00  0.00    +0.011 A 
ENDBRANCH  14  16
ENDBRANCH   6  14
TORSDOF 5
