REMARK  Name = ZINC04097822
REMARK                            x       y       z     vdW  Elec       q    Type
REMARK                         _______ _______ _______ _____ _____    ______ ____
ROOT
ATOM      1  C   LIG    1        0.384   1.330   2.672  0.00  0.00    +0.032 C 
ATOM      2  C   LIG    1        1.742   1.965   3.069  0.00  0.00    +0.010 C 
ATOM      3  C   LIG    1        1.539   2.576   4.487  0.00  0.00    +0.040 C 
ATOM      4  C   LIG    1        0.375   1.753   5.045  0.00  0.00    +0.093 C 
ATOM      5  C   LIG    1       -0.436   2.392   6.135  0.00  0.00    -0.031 C 
ATOM      6  C   LIG    1        0.018   3.482   6.745  0.00  0.00    +0.049 C 
ATOM      7  C   LIG    1       -0.765   4.101   7.820  0.00  0.00    +0.160 C 
ATOM      8  C   LIG    1       -1.790   3.222   8.505  0.00  0.00    +0.069 C 
ATOM      9  C   LIG    1       -2.612   2.530   7.420  0.00  0.00    -0.013 C 
ATOM     10  C   LIG    1       -3.359   3.593   6.613  0.00  0.00    +0.012 C 
ATOM     11  C   LIG    1       -3.651   1.616   8.078  0.00  0.00    +0.041 C 
ATOM     12  C   LIG    1       -2.933   0.560   8.922  0.00  0.00    +0.144 C 
ATOM     13  C   LIG    1       -2.101   1.250  10.005  0.00  0.00    +0.144 C 
ATOM     14  C   LIG    1       -1.068   2.169   9.349  0.00  0.00    +0.046 C 
ATOM     15  O   LIG    1       -0.600   5.259   8.143  0.00  0.00    -0.292 OA
ATOM     16  C   LIG    1       -1.739   1.722   6.476  0.00  0.00    +0.025 C 
ATOM     17  C   LIG    1       -2.541   1.359   5.227  0.00  0.00    +0.009 C 
ATOM     18  C   LIG    1       -1.668   0.702   4.146  0.00  0.00    +0.011 C 
ATOM     19  C   LIG    1       -0.564   1.679   3.808  0.00  0.00    +0.006 C 
ATOM     20  C   LIG    1       -1.183   3.055   3.554  0.00  0.00    +0.015 C 
ENDROOT
BRANCH   1  21
ATOM     21  C   LIG    1       -0.119   1.928   1.357  0.00  0.00    +0.092 C 
ATOM     22  C   LIG    1       -1.491   1.340   1.021  0.00  0.00    +0.044 C 
BRANCH  21  23
ATOM     23  O   LIG    1       -0.228   3.347   1.490  0.00  0.00    -0.386 OA
ATOM     24  H   LIG    1        0.606   3.787   1.704  0.00  0.00    +0.210 HD
ENDBRANCH  21  23
BRANCH  21  25
ATOM     25  C   LIG    1        0.867   1.596   0.235  0.00  0.00    +0.146 C 
BRANCH  25  26
ATOM     26  O   LIG    1        2.149   2.145   0.549  0.00  0.00    -0.389 OA
ATOM     27  H   LIG    1        2.150   3.106   0.654  0.00  0.00    +0.210 HD
ENDBRANCH  25  26
BRANCH  25  28
ATOM     28  C   LIG    1        0.364   2.195  -1.080  0.00  0.00    +0.034 C 
BRANCH  28  29
ATOM     29  C   LIG    1        1.283   1.758  -2.223  0.00  0.00    +0.005 C 
BRANCH  29  31
ATOM     30  C   LIG    1        0.898   3.881  -3.483  0.00  0.00    +0.007 C 
ATOM     31  C   LIG    1        0.780   2.357  -3.538  0.00  0.00    -0.017 C 
ATOM     32  C   LIG    1        1.622   1.821  -4.698  0.00  0.00    +0.007 C 
ENDBRANCH  29  31
ENDBRANCH  28  29
ENDBRANCH  25  28
ENDBRANCH  21  25
ENDBRANCH   1  21
BRANCH   4  33
ATOM     33  O   LIG    1        0.808   0.449   5.436  0.00  0.00    -0.384 OA
ATOM     34  H   LIG    1        1.396   0.443   6.203  0.00  0.00    +0.211 HD
ENDBRANCH   4  33
BRANCH  12  35
ATOM     35  O   LIG    1       -3.900  -0.295   9.536  0.00  0.00    -0.389 OA
ATOM     36  H   LIG    1       -3.515  -0.990  10.087  0.00  0.00    +0.210 HD
ENDBRANCH  12  35
BRANCH  13  37
ATOM     37  O   LIG    1       -2.960   2.022  10.845  0.00  0.00    -0.389 OA
ATOM     38  H   LIG    1       -3.641   1.503  11.295  0.00  0.00    +0.210 HD
ENDBRANCH  13  37
TORSDOF 10
