REMARK  Name = ZINC04312962
REMARK                            x       y       z     vdW  Elec       q    Type
REMARK                         _______ _______ _______ _____ _____    ______ ____
ROOT
ATOM      1  C   LIG    1        0.067  -2.830   0.031  0.00  0.00    +0.189 A 
ATOM      2  N   LIG    1       -0.563  -2.377  -1.036  0.00  0.00    -0.126 NA
ATOM      3  N   LIG    1       -0.972  -3.363  -1.763  0.00  0.00    -0.120 NA
ATOM      4  C   LIG    1       -0.630  -4.483  -1.210  0.00  0.00    +0.213 A 
ATOM      5  S   LIG    1       -0.885  -6.156  -1.712  0.00  0.00    -0.078 S 
ATOM      6  C   LIG    1        0.524  -6.985  -0.900  0.00  0.00    +0.135 C 
ATOM      7  C   LIG    1        0.744  -6.396   0.463  0.00  0.00    +0.080 C 
ATOM      8  N   LIG    1        0.547  -5.174   0.807  0.00  0.00    -0.166 NA
ATOM      9  N   LIG    1        0.047  -4.193  -0.042  0.00  0.00    -0.186 N 
ENDROOT
BRANCH   1  15
ATOM     10  C   LIG    1        0.625  -0.618   1.041  0.00  0.00    +0.131 A 
ATOM     11  C   LIG    1        1.202   0.136   2.050  0.00  0.00    +0.046 A 
ATOM     12  C   LIG    1        1.836  -0.490   3.107  0.00  0.00    +0.004 A 
ATOM     13  C   LIG    1        1.900  -1.871   3.166  0.00  0.00    +0.001 A 
ATOM     14  C   LIG    1        1.331  -2.636   2.169  0.00  0.00    +0.015 A 
ATOM     15  C   LIG    1        0.683  -2.016   1.099  0.00  0.00    +0.063 A 
BRANCH  10  17
ATOM     16  C   LIG    1       -0.017   1.425   0.010  0.00  0.00    +0.277 C 
ATOM     17  O   LIG    1        0.002  -0.004   0.002  0.00  0.00    -0.494 OA
ENDBRANCH  10  17
ENDBRANCH   1  15
BRANCH   7  18
ATOM     18  C   LIG    1        1.236  -7.309   1.510  0.00  0.00    +0.002 A 
ATOM     19  C   LIG    1        1.479  -8.652   1.210  0.00  0.00    +0.013 A 
ATOM     20  C   LIG    1        1.939  -9.505   2.191  0.00  0.00    +0.050 A 
ATOM     21  C   LIG    1        2.160  -9.033   3.477  0.00  0.00    +0.162 A 
ATOM     22  C   LIG    1        1.919  -7.695   3.784  0.00  0.00    +0.162 A 
ATOM     23  C   LIG    1        1.465  -6.833   2.804  0.00  0.00    +0.059 A 
BRANCH  21  24
ATOM     24  O   LIG    1        2.613  -9.878   4.441  0.00  0.00    -0.491 OA
ATOM     25  C   LIG    1        2.839 -11.236   4.058  0.00  0.00    +0.277 C 
ENDBRANCH  21  24
BRANCH  22  26
ATOM     26  O   LIG    1        2.136  -7.237   5.045  0.00  0.00    -0.491 OA
ATOM     27  C   LIG    1        1.868  -5.854   5.289  0.00  0.00    +0.277 C 
ENDBRANCH  22  26
ENDBRANCH   7  18
TORSDOF 5
