REMARK  Name = ZINC04364558
REMARK                            x       y       z     vdW  Elec       q    Type
REMARK                         _______ _______ _______ _____ _____    ______ ____
ROOT
ATOM      1  C   LIG    1        4.686  -5.227   2.225  0.00  0.00    +0.017 C 
ENDROOT
BRANCH   1   2
ATOM      2  C   LIG    1        3.787  -5.540   1.028  0.00  0.00    +0.018 C 
BRANCH   2   3
ATOM      3  C   LIG    1        2.512  -4.699   1.113  0.00  0.00    +0.106 C 
BRANCH   3   4
ATOM      4  N   LIG    1        1.651  -4.999  -0.034  0.00  0.00    -0.190 NA
ATOM      5  H   LIG    1        2.011  -5.473  -0.800  0.00  0.00    +0.148 HD
BRANCH   4   6
ATOM      6  S   LIG    1        0.063  -4.530  -0.023  0.00  0.00    +0.058 S 
ATOM      7  O   LIG    1       -0.490  -4.937  -1.267  0.00  0.00    -0.153 OA
ATOM      8  O   LIG    1       -0.476  -4.950   1.223  0.00  0.00    -0.153 OA
BRANCH   6  13
ATOM      9  C   LIG    1       -0.018   1.503   0.010  0.00  0.00    +0.044 C 
ATOM     10  C   LIG    1        0.002  -0.004   0.002  0.00  0.00    -0.050 A 
ATOM     11  C   LIG    1        0.006  -0.689  -1.199  0.00  0.00    +0.005 A 
ATOM     12  C   LIG    1        0.025  -2.071  -1.206  0.00  0.00    +0.029 A 
ATOM     13  C   LIG    1        0.040  -2.768  -0.013  0.00  0.00    +0.105 A 
ATOM     14  C   LIG    1        0.037  -2.084   1.188  0.00  0.00    +0.029 A 
ATOM     15  C   LIG    1        0.023  -0.702   1.195  0.00  0.00    +0.005 A 
ENDBRANCH   6  13
ENDBRANCH   4   6
ENDBRANCH   3   4
ENDBRANCH   2   3
ENDBRANCH   1   2
BRANCH   1  16
ATOM     16  C   LIG    1        5.960  -6.068   2.140  0.00  0.00    +0.084 C 
BRANCH  16  17
ATOM     17  N   LIG    1        6.824  -5.767   3.290  0.00  0.00    -0.299 NA
ATOM     18  C   LIG    1        7.307  -4.381   3.237  0.00  0.00    +0.103 C 
ATOM     19  C   LIG    1        8.050  -4.052   4.536  0.00  0.00    +0.120 C 
ATOM     20  N   LIG    1        9.093  -5.067   4.748  0.00  0.00    -0.325 N 
ATOM     21  C   LIG    1        8.709  -6.485   4.679  0.00  0.00    +0.120 C 
ATOM     22  C   LIG    1        7.940  -6.718   3.374  0.00  0.00    +0.103 C 
BRANCH  20  23
ATOM     23  C   LIG    1       10.416  -4.693   5.008  0.00  0.00    +0.072 A 
ATOM     24  C   LIG    1       10.842  -4.507   6.315  0.00  0.00    +0.027 A 
ATOM     25  C   LIG    1       12.150  -4.138   6.570  0.00  0.00    +0.002 A 
ATOM     26  C   LIG    1       13.036  -3.954   5.524  0.00  0.00    +0.004 A 
ATOM     27  C   LIG    1       12.618  -4.137   4.219  0.00  0.00    +0.047 A 
ATOM     28  C   LIG    1       11.311  -4.512   3.956  0.00  0.00    +0.141 A 
BRANCH  28  29
ATOM     29  O   LIG    1       10.901  -4.697   2.672  0.00  0.00    -0.493 OA
ATOM     30  C   LIG    1       11.872  -4.494   1.644  0.00  0.00    +0.277 C 
ENDBRANCH  28  29
ENDBRANCH  20  23
ENDBRANCH  16  17
ENDBRANCH   1  16
TORSDOF 9
