REMARK  Name = ZINC04693574
REMARK                            x       y       z     vdW  Elec       q    Type
REMARK                         _______ _______ _______ _____ _____    ______ ____
ROOT
ATOM      1  S   LIG    1        1.777  -4.812  -0.212  0.00  0.00    +0.091 S 
ATOM      2  O   LIG    1        2.384  -4.582   1.052  0.00  0.00    -0.249 OA
ENDROOT
BRANCH   1   3
ATOM      3  C   LIG    1        1.631  -6.566  -0.302  0.00  0.00    +0.198 A 
ATOM      4  N   LIG    1        1.579  -7.400   0.773  0.00  0.00    -0.331 N 
ATOM      5  C   LIG    1        1.462  -8.687   0.288  0.00  0.00    +0.070 A 
ATOM      6  C   LIG    1        1.365  -9.938   0.882  0.00  0.00    +0.073 A 
ATOM      7  C   LIG    1        1.266 -11.066   0.088  0.00  0.00    +0.122 A 
ATOM      8  C   LIG    1        1.262 -10.952  -1.299  0.00  0.00    +0.048 A 
ATOM      9  C   LIG    1        1.357  -9.728  -1.896  0.00  0.00    +0.033 A 
ATOM     10  C   LIG    1        1.458  -8.575  -1.113  0.00  0.00    +0.090 A 
ATOM     11  H   LIG    1        1.614  -7.138   1.706  0.00  0.00    +0.168 HD
ATOM     12  N   LIG    1        1.565  -7.252  -1.404  0.00  0.00    -0.220 NA
BRANCH   7  13
ATOM     13  O   LIG    1        1.170 -12.293   0.666  0.00  0.00    -0.495 OA
ATOM     14  C   LIG    1        1.070 -13.417  -0.210  0.00  0.00    +0.277 C 
ENDBRANCH   7  13
ENDBRANCH   1   3
BRANCH   1  15
ATOM     15  C   LIG    1        0.059  -4.231  -0.172  0.00  0.00    +0.131 C 
BRANCH  15  21
ATOM     16  C   LIG    1       -0.018   1.503   0.010  0.00  0.00    +0.011 C 
ATOM     17  C   LIG    1        0.002  -0.004   0.002  0.00  0.00    +0.029 C 
ATOM     18  C   LIG    1        0.006  -0.697  -1.191  0.00  0.00    +0.087 C 
ATOM     19  N   LIG    1        0.024  -2.016  -1.207  0.00  0.00    -0.312 NA
ATOM     20  H   LIG    1        0.027  -2.477  -2.060  0.00  0.00    +0.122 HD
ATOM     21  C   LIG    1        0.039  -2.726  -0.095  0.00  0.00    +0.072 C 
ATOM     22  C   LIG    1        0.036  -2.108   1.139  0.00  0.00    +0.033 C 
ATOM     23  C   LIG    1        0.053  -2.926   2.404  0.00  0.00    +0.012 C 
ATOM     24  C   LIG    1        0.023  -0.716   1.198  0.00  0.00    +0.126 C 
BRANCH  24  25
ATOM     25  O   LIG    1        0.025  -0.071   2.393  0.00  0.00    -0.379 OA
ATOM     26  C   LIG    1       -1.247   0.220   2.975  0.00  0.00    +0.194 C 
ENDBRANCH  24  25
ENDBRANCH  15  21
ENDBRANCH   1  15
TORSDOF 5
