REMARK  Name = ZINC04638275
REMARK                            x       y       z     vdW  Elec       q    Type
REMARK                         _______ _______ _______ _____ _____    ______ ____
ROOT
ATOM      1  O   LIG    1        0.007   1.729  -2.357  0.00  0.00    -0.489 OA
ENDROOT
BRANCH   1   2
ATOM      2  C   LIG    1       -0.988   1.704  -1.331  0.00  0.00    +0.155 C 
ATOM      3  C   LIG    1       -1.338   3.137  -0.869  0.00  0.00    +0.023 C 
ATOM      4  C   LIG    1       -1.503   3.037   0.659  0.00  0.00    -0.079 C 
ATOM      5  N   LIG    1       -1.275   1.632   1.009  0.00  0.00    +0.381 N 
ATOM      6  H   LIG    1       -0.800   1.569   1.917  0.00  0.00    -0.086 HD
ATOM      7  H   LIG    1       -2.171   1.133   1.056  0.00  0.00    -0.086 HD
ATOM      8  C   LIG    1       -0.429   1.050  -0.043  0.00  0.00    -0.038 C 
ENDBRANCH   1   2
BRANCH   1  11
ATOM      9  C   LIG    1       -0.463  -1.633  -3.658  0.00  0.00    +0.023 A 
ATOM     10  C   LIG    1       -0.619  -0.523  -2.843  0.00  0.00    +0.049 A 
ATOM     11  C   LIG    1        0.126   0.616  -3.129  0.00  0.00    +0.139 A 
ATOM     12  C   LIG    1        0.987   0.603  -4.217  0.00  0.00    +0.156 A 
ATOM     13  N   LIG    1        1.110  -0.476  -4.964  0.00  0.00    -0.260 NA
ATOM     14  C   LIG    1        0.419  -1.573  -4.720  0.00  0.00    +0.111 A 
ENDBRANCH   1  11
TORSDOF 2
