REMARK  Name = ZINC04428526
REMARK                            x       y       z     vdW  Elec       q    Type
REMARK                         _______ _______ _______ _____ _____    ______ ____
ROOT
ATOM      1  C   LIG    1       -0.019   1.526   0.010  0.00  0.00    +0.019 C 
ATOM      2  C   LIG    1        0.002  -0.004   0.002  0.00  0.00    +0.029 C 
ATOM      3  C   LIG    1       -1.416  -0.535   0.075  0.00  0.00    +0.015 C 
ATOM      4  C   LIG    1       -2.078   0.102   1.307  0.00  0.00    +0.005 C 
ATOM      5  C   LIG    1       -1.297  -0.197   2.584  0.00  0.00    +0.003 C 
ATOM      6  C   LIG    1        0.173   0.224   2.462  0.00  0.00    +0.001 C 
ATOM      7  C   LIG    1        0.900  -0.200   3.744  0.00  0.00    +0.031 C 
ATOM      8  C   LIG    1        0.215   0.434   4.921  0.00  0.00    -0.026 C 
ATOM      9  C   LIG    1       -1.048   0.743   4.914  0.00  0.00    -0.060 C 
ATOM     10  C   LIG    1       -1.634   1.389   6.161  0.00  0.00    +0.105 C 
ATOM     11  C   LIG    1       -2.900   0.655   6.491  0.00  0.00    +0.137 C 
ATOM     12  O   LIG    1       -3.151   0.278   7.610  0.00  0.00    -0.297 OA
ATOM     13  C   LIG    1       -3.881   0.441   5.360  0.00  0.00    +0.075 C 
ATOM     14  C   LIG    1       -3.173  -0.303   4.224  0.00  0.00    +0.019 C 
ATOM     15  C   LIG    1       -1.952   0.500   3.765  0.00  0.00    -0.007 C 
ATOM     16  C   LIG    1       -2.452   1.867   3.293  0.00  0.00    +0.016 C 
ATOM     17  C   LIG    1        0.846  -0.492  -1.138  0.00  0.00    +0.139 C 
ATOM     18  O   LIG    1        0.471  -0.778  -2.250  0.00  0.00    -0.297 OA
ATOM     19  C   LIG    1        2.274  -0.553  -0.607  0.00  0.00    +0.075 C 
ATOM     20  C   LIG    1        2.204  -0.183   0.900  0.00  0.00    +0.012 C 
ATOM     21  C   LIG    1        0.752  -0.524   1.258  0.00  0.00    +0.006 C 
ENDROOT
TORSDOF 0
