REMARK  Name = ZINC04594154
REMARK                            x       y       z     vdW  Elec       q    Type
REMARK                         _______ _______ _______ _____ _____    ______ ____
ROOT
ATOM      1  C   LIG    1       -2.424   0.819   3.568  0.00  0.00    -0.096 C 
ATOM      2  N   LIG    1       -2.092   0.636   2.140  0.00  0.00    +0.378 N 
ATOM      3  H   LIG    1       -1.317  -0.033   2.061  0.00  0.00    -0.082 HD
ATOM      4  C   LIG    1       -1.676   1.925   1.549  0.00  0.00    -0.065 C 
ATOM      5  C   LIG    1       -1.225   1.688   0.106  0.00  0.00    +0.080 C 
ATOM      6  C   LIG    1       -2.390   1.105  -0.698  0.00  0.00    +0.097 C 
ATOM      7  C   LIG    1       -2.861  -0.192  -0.033  0.00  0.00    +0.022 C 
ATOM      8  C   LIG    1       -3.264   0.100   1.414  0.00  0.00    -0.076 C 
ENDROOT
BRANCH   6   9
ATOM      9  C   LIG    1       -1.936   0.813  -2.105  0.00  0.00    -0.015 A 
ATOM     10  C   LIG    1       -2.178   1.728  -3.113  0.00  0.00    +0.009 A 
ATOM     11  C   LIG    1       -1.756   1.464  -4.402  0.00  0.00    +0.039 A 
ATOM     12  C   LIG    1       -1.101   0.277  -4.686  0.00  0.00    +0.123 A 
ATOM     13  F   LIG    1       -0.693   0.016  -5.947  0.00  0.00    -0.205 F 
ATOM     14  C   LIG    1       -0.864  -0.641  -3.677  0.00  0.00    +0.039 A 
ATOM     15  C   LIG    1       -1.282  -0.372  -2.388  0.00  0.00    +0.009 A 
ENDBRANCH   6   9
BRANCH   5  16
ATOM     16  C   LIG    1       -0.070   0.720   0.092  0.00  0.00    +0.167 C 
ATOM     17  O   LIG    1       -0.039  -0.198   0.884  0.00  0.00    -0.292 OA
BRANCH  16  18
ATOM     18  C   LIG    1        1.016   0.886  -0.885  0.00  0.00    +0.018 A 
ATOM     19  C   LIG    1        0.980   1.941  -1.804  0.00  0.00    +0.014 A 
ATOM     20  C   LIG    1        2.004   2.094  -2.712  0.00  0.00    +0.039 A 
ATOM     21  C   LIG    1        3.062   1.198  -2.727  0.00  0.00    +0.123 A 
ATOM     22  F   LIG    1        4.061   1.350  -3.624  0.00  0.00    -0.205 F 
ATOM     23  C   LIG    1        3.101   0.146  -1.823  0.00  0.00    +0.039 A 
ATOM     24  C   LIG    1        2.087  -0.015  -0.904  0.00  0.00    +0.014 A 
ENDBRANCH  16  18
ENDBRANCH   5  16
BRANCH   6  25
ATOM     25  O   LIG    1       -3.467   2.044  -0.728  0.00  0.00    -0.383 OA
ATOM     26  H   LIG    1       -4.241   1.739  -1.222  0.00  0.00    +0.211 HD
ENDBRANCH   6  25
TORSDOF 4
