REMARK  Name = ZINC04535263
REMARK                            x       y       z     vdW  Elec       q    Type
REMARK                         _______ _______ _______ _____ _____    ______ ____
ROOT
ATOM      1  C   LIG    1       -0.152   1.880   0.424  0.00  0.00    +0.028 C 
ATOM      2  C   LIG    1       -1.163   1.317   1.425  0.00  0.00    +0.081 C 
ATOM      3  C   LIG    1       -2.012   2.457   2.003  0.00  0.00    +0.050 C 
ATOM      4  C   LIG    1       -3.058   1.864   2.947  0.00  0.00    +0.115 C 
ATOM      5  C   LIG    1       -2.406   0.949   3.949  0.00  0.00    -0.005 A 
ATOM      6  C   LIG    1       -3.077   0.657   5.125  0.00  0.00    +0.007 A 
ATOM      7  C   LIG    1       -2.509  -0.185   6.061  0.00  0.00    +0.000 A 
ATOM      8  C   LIG    1       -1.265  -0.743   5.829  0.00  0.00    +0.002 A 
ATOM      9  C   LIG    1       -0.589  -0.457   4.660  0.00  0.00    +0.024 A 
ATOM     10  C   LIG    1       -1.158   0.392   3.717  0.00  0.00    +0.042 A 
ATOM     11  N   LIG    1       -0.455   0.673   2.539  0.00  0.00    -0.265 N 
ATOM     12  C   LIG    1        0.851   0.359   2.430  0.00  0.00    +0.244 C 
ATOM     13  O   LIG    1        1.414   0.462   1.356  0.00  0.00    -0.270 OA
ENDROOT
BRANCH   4  14
ATOM     14  N   LIG    1       -3.738   2.952   3.655  0.00  0.00    -0.264 N 
ATOM     15  C   LIG    1       -3.038   3.766   4.470  0.00  0.00    +0.217 C 
ATOM     16  C   LIG    1       -3.753   4.815   5.282  0.00  0.00    +0.109 C 
ATOM     17  O   LIG    1       -1.833   3.655   4.549  0.00  0.00    -0.276 OA
BRANCH  14  18
ATOM     18  C   LIG    1       -5.113   3.146   3.485  0.00  0.00    +0.037 A 
ATOM     19  C   LIG    1       -5.982   2.929   4.546  0.00  0.00    +0.023 A 
ATOM     20  C   LIG    1       -7.339   3.127   4.377  0.00  0.00    +0.002 A 
ATOM     21  C   LIG    1       -7.833   3.529   3.149  0.00  0.00    +0.000 A 
ATOM     22  C   LIG    1       -6.970   3.739   2.089  0.00  0.00    +0.002 A 
ATOM     23  C   LIG    1       -5.612   3.549   2.253  0.00  0.00    +0.023 A 
ENDBRANCH  14  18
ENDBRANCH   4  14
BRANCH  12  24
ATOM     24  C   LIG    1        1.593  -0.107   3.603  0.00  0.00    +0.068 C 
ATOM     25  C   LIG    1        2.595  -0.997   3.458  0.00  0.00    +0.013 C 
BRANCH  25  26
ATOM     26  C   LIG    1        3.340  -1.466   4.638  0.00  0.00    -0.025 A 
ATOM     27  C   LIG    1        3.016  -0.985   5.910  0.00  0.00    +0.008 A 
ATOM     28  C   LIG    1        3.715  -1.433   7.011  0.00  0.00    +0.001 A 
ATOM     29  C   LIG    1        4.743  -2.347   6.858  0.00  0.00    +0.000 A 
ATOM     30  C   LIG    1        5.074  -2.823   5.601  0.00  0.00    +0.001 A 
ATOM     31  C   LIG    1        4.380  -2.389   4.491  0.00  0.00    +0.008 A 
ENDBRANCH  25  26
ENDBRANCH  12  24
TORSDOF 4
