REMARK  Name = ZINC04809144
REMARK                            x       y       z     vdW  Elec       q    Type
REMARK                         _______ _______ _______ _____ _____    ______ ____
ROOT
ATOM      1  C   LIG    1        1.397   2.898   0.004  0.00  0.00    +0.235 C 
ATOM      2  N   LIG    1        1.275   1.556  -0.002  0.00  0.00    -0.197 N 
ATOM      3  H   LIG    1        2.067   0.997  -0.012  0.00  0.00    +0.182 HD
ATOM      4  O   LIG    1        0.406   3.598   0.018  0.00  0.00    -0.274 OA
ENDROOT
BRANCH   2   5
ATOM      5  O   LIG    1       -0.011   0.963   0.007  0.00  0.00    -0.295 OA
ATOM      6  H   LIG    1        0.002  -0.004   0.002  0.00  0.00    +0.241 HD
ENDBRANCH   2   5
BRANCH   1   7
ATOM      7  C   LIG    1        2.765   3.530  -0.005  0.00  0.00    +0.097 C 
BRANCH   7   9
ATOM      8  C   LIG    1        4.013   5.695  -0.006  0.00  0.00    +0.004 C 
ATOM      9  C   LIG    1        2.624   5.053   0.004  0.00  0.00    +0.006 C 
ENDBRANCH   7   9
ENDBRANCH   1   7
TORSDOF 3
