REMARK  Name = ZINC04616667
REMARK                            x       y       z     vdW  Elec       q    Type
REMARK                         _______ _______ _______ _____ _____    ______ ____
ROOT
ATOM      1  N   LIG    1       -4.870  -0.296   0.038  0.00  0.00    -0.215 N 
ATOM      2  H   LIG    1       -5.026   0.662   0.041  0.00  0.00    +0.176 HD
ENDROOT
BRANCH   1   6
ATOM      3  C   LIG    1       -1.271  -0.766   0.011  0.00  0.00    +0.080 A 
ATOM      4  C   LIG    1       -1.257  -2.132   0.008  0.00  0.00    +0.077 A 
ATOM      5  S   LIG    1       -3.010  -2.482   0.021  0.00  0.00    -0.059 S 
ATOM      6  C   LIG    1       -3.576  -0.787   0.028  0.00  0.00    +0.178 A 
ATOM      7  N   LIG    1       -2.431  -0.127   0.026  0.00  0.00    -0.224 NA
BRANCH   3  14
ATOM      8  C   LIG    1       -0.017   1.390   0.010  0.00  0.00    +0.011 A 
ATOM      9  C   LIG    1        1.170   2.093   0.002  0.00  0.00    +0.020 A 
ATOM     10  C   LIG    1        2.378   1.418  -0.013  0.00  0.00    +0.041 A 
ATOM     11 CL   LIG    1        3.868   2.309  -0.022  0.00  0.00    -0.084 Cl
ATOM     12  C   LIG    1        2.402   0.033  -0.021  0.00  0.00    +0.020 A 
ATOM     13  C   LIG    1        1.221  -0.680  -0.014  0.00  0.00    +0.011 A 
ATOM     14  C   LIG    1        0.002  -0.004   0.002  0.00  0.00    +0.001 A 
ENDBRANCH   3  14
ENDBRANCH   1   6
BRANCH   1  15
ATOM     15  N   LIG    1       -5.956  -1.181   0.045  0.00  0.00    -0.188 NA
ATOM     16  C   LIG    1       -7.170  -0.721   0.055  0.00  0.00    +0.142 C 
BRANCH  16  17
ATOM     17  C   LIG    1       -8.312  -1.652   0.062  0.00  0.00    +0.037 A 
ATOM     18  C   LIG    1       -9.619  -1.161   0.067  0.00  0.00    +0.028 A 
ATOM     19  C   LIG    1      -10.684  -2.038   0.074  0.00  0.00    +0.019 A 
ATOM     20 BR   LIG    1      -12.454  -1.373   0.080  0.00  0.00    -0.050 Br
ATOM     21  C   LIG    1      -10.461  -3.406   0.077  0.00  0.00    +0.019 A 
ATOM     22  C   LIG    1       -9.171  -3.904   0.072  0.00  0.00    +0.047 A 
ATOM     23  C   LIG    1       -8.092  -3.036   0.059  0.00  0.00    +0.126 A 
BRANCH  23  24
ATOM     24  O   LIG    1       -6.824  -3.525   0.048  0.00  0.00    -0.506 OA
ATOM     25  H   LIG    1       -6.450  -3.668   0.929  0.00  0.00    +0.292 HD
ENDBRANCH  23  24
ENDBRANCH  16  17
ENDBRANCH   1  15
TORSDOF 5
