REMARK  Name = ZINC04322764
REMARK                            x       y       z     vdW  Elec       q    Type
REMARK                         _______ _______ _______ _____ _____    ______ ____
ROOT
ATOM      1  C   LIG    1        3.540   2.290  -0.020  0.00  0.00    +0.103 C 
ATOM      2  C   LIG    1        2.500   1.373  -0.015  0.00  0.00    +0.038 C 
ENDROOT
BRANCH   2   3
ATOM      3  C   LIG    1        1.167   1.822   0.001  0.00  0.00    +0.016 A 
ATOM      4  C   LIG    1       -0.013   1.076   0.008  0.00  0.00    +0.018 A 
ATOM      5  C   LIG    1       -1.189   1.776   0.017  0.00  0.00    +0.041 A 
ATOM      6  C   LIG    1       -1.154   3.137   0.030  0.00  0.00    +0.159 A 
ATOM      7  S   LIG    1        0.542   3.493   0.016  0.00  0.00    -0.065 S 
BRANCH   6   8
ATOM      8  N   LIG    1       -2.291   4.085   0.046  0.00  0.00    +0.013 N 
ATOM      9  O   LIG    1       -3.434   3.665   0.054  0.00  0.00    -0.129 OA
BRANCH   8  10
ATOM     10  O   LIG    1       -2.084   5.285   0.050  0.00  0.00    -0.396 OA
ATOM     11  H   LIG    1       -1.204   5.609   0.044  0.00  0.00    +0.329 HD
ENDBRANCH   8  10
ENDBRANCH   6   8
ENDBRANCH   2   3
BRANCH   1  12
ATOM     12  C   LIG    1        4.932   1.822  -0.036  0.00  0.00    +0.238 C 
ATOM     13  O   LIG    1        5.172   0.627  -0.045  0.00  0.00    -0.283 OA
BRANCH  12  16
ATOM     14  C   LIG    1        8.053   3.717  -0.056  0.00  0.00    +0.042 A 
ATOM     15  C   LIG    1        7.365   2.494  -0.056  0.00  0.00    +0.053 A 
ATOM     16  C   LIG    1        6.032   2.792  -0.041  0.00  0.00    +0.175 A 
ATOM     17  O   LIG    1        5.905   4.135  -0.038  0.00  0.00    -0.460 OA
ATOM     18  C   LIG    1        7.121   4.697  -0.041  0.00  0.00    +0.196 A 
ENDBRANCH  12  16
ENDBRANCH   1  12
BRANCH   1  19
ATOM     19  C   LIG    1        3.257   3.694  -0.009  0.00  0.00    +0.103 C 
ATOM     20  N   LIG    1        3.032   4.808  -0.001  0.00  0.00    -0.191 NA
ENDBRANCH   1  19
TORSDOF 6
