REMARK  Name = ZINC04716448
REMARK                            x       y       z     vdW  Elec       q    Type
REMARK                         _______ _______ _______ _____ _____    ______ ____
ROOT
ATOM      1  C   LIG    1        1.286   1.562  -0.002  0.00  0.00    +0.141 C 
ENDROOT
BRANCH   1   8
ATOM      2  C   LIG    1        0.646  -0.579   1.126  0.00  0.00    +0.008 A 
ATOM      3  C   LIG    1        0.348  -1.313   2.259  0.00  0.00    +0.020 A 
ATOM      4  C   LIG    1        0.350  -0.700   3.499  0.00  0.00    +0.041 A 
ATOM      5 CL   LIG    1       -0.030  -1.620   4.922  0.00  0.00    -0.084 Cl
ATOM      6  C   LIG    1        0.655   0.645   3.606  0.00  0.00    +0.020 A 
ATOM      7  C   LIG    1        0.958   1.376   2.473  0.00  0.00    +0.008 A 
ATOM      8  C   LIG    1        0.956   0.764   1.233  0.00  0.00    -0.007 A 
ENDBRANCH   1   8
BRANCH   1   9
ATOM      9  C   LIG    1        0.410   1.110  -1.141  0.00  0.00    -0.007 A 
ATOM     10  C   LIG    1        0.746  -0.018  -1.866  0.00  0.00    +0.008 A 
ATOM     11  C   LIG    1       -0.061  -0.436  -2.908  0.00  0.00    +0.020 A 
ATOM     12  C   LIG    1       -1.199   0.281  -3.232  0.00  0.00    +0.041 A 
ATOM     13 CL   LIG    1       -2.209  -0.240  -4.544  0.00  0.00    -0.084 Cl
ATOM     14  C   LIG    1       -1.532   1.413  -2.510  0.00  0.00    +0.020 A 
ATOM     15  C   LIG    1       -0.727   1.827  -1.465  0.00  0.00    +0.008 A 
ENDBRANCH   1   9
BRANCH   1  16
ATOM     16  C   LIG    1        2.733   1.348  -0.366  0.00  0.00    -0.004 A 
ATOM     17  C   LIG    1        3.372   0.155  -0.064  0.00  0.00    +0.027 A 
ATOM     18  C   LIG    1        4.699  -0.006  -0.417  0.00  0.00    +0.111 A 
ATOM     19  N   LIG    1        5.357   0.961  -1.025  0.00  0.00    -0.263 NA
ATOM     20  C   LIG    1        4.783   2.110  -1.323  0.00  0.00    +0.111 A 
ATOM     21  C   LIG    1        3.458   2.342  -1.005  0.00  0.00    +0.027 A 
ENDBRANCH   1  16
BRANCH   1  22
ATOM     22  O   LIG    1        1.059   2.949   0.253  0.00  0.00    -0.375 OA
ATOM     23  H   LIG    1        0.147   3.161   0.493  0.00  0.00    +0.211 HD
ENDBRANCH   1  22
TORSDOF 4
