REMARK  Name = ZINC04215955
REMARK                            x       y       z     vdW  Elec       q    Type
REMARK                         _______ _______ _______ _____ _____    ______ ____
ROOT
ATOM      1  N   LIG    1       -0.736  -3.094   1.652  0.00  0.00    -0.329 N 
ATOM      2  C   LIG    1       -0.019  -4.174   1.178  0.00  0.00    +0.069 A 
ATOM      3  C   LIG    1        1.022  -4.321   0.272  0.00  0.00    +0.030 A 
ATOM      4  C   LIG    1        1.530  -5.576   0.012  0.00  0.00    +0.035 A 
ATOM      5  C   LIG    1        1.006  -6.692   0.649  0.00  0.00    +0.124 A 
ATOM      6  C   LIG    1       -0.019  -6.567   1.544  0.00  0.00    +0.062 A 
ATOM      7  C   LIG    1       -0.549  -5.304   1.823  0.00  0.00    +0.091 A 
ATOM      8  N   LIG    1       -1.540  -4.865   2.640  0.00  0.00    -0.232 NA
ATOM      9  C   LIG    1       -1.646  -3.572   2.544  0.00  0.00    +0.115 A 
ENDROOT
BRANCH   5  10
ATOM     10  N   LIG    1        1.564  -8.031   0.357  0.00  0.00    +0.006 N 
ATOM     11  O   LIG    1        2.478  -8.150  -0.439  0.00  0.00    -0.130 OA
BRANCH  10  12
ATOM     12  O   LIG    1        1.109  -9.015   0.913  0.00  0.00    -0.396 OA
ATOM     13  H   LIG    1        0.406  -8.924   1.525  0.00  0.00    +0.329 HD
ENDBRANCH  10  12
ENDBRANCH   5  10
BRANCH   1  14
ATOM     14  C   LIG    1       -0.548  -1.692   1.271  0.00  0.00    +0.105 C 
BRANCH  14  15
ATOM     15  C   LIG    1       -1.360  -1.393   0.009  0.00  0.00    -0.057 C 
BRANCH  15  16
ATOM     16  N   LIG    1       -1.219   0.040  -0.321  0.00  0.00    +0.380 N 
ATOM     17  H   LIG    1       -1.439   0.598   0.513  0.00  0.00    -0.082 HD
BRANCH  16  19
ATOM     18  C   LIG    1        0.546  -0.507  -1.964  0.00  0.00    -0.017 C 
ATOM     19  C   LIG    1        0.170   0.328  -0.738  0.00  0.00    -0.082 C 
ENDBRANCH  16  19
BRANCH  16  20
ATOM     20  C   LIG    1       -2.157   0.405  -1.403  0.00  0.00    -0.082 C 
ATOM     21  C   LIG    1       -2.261   1.929  -1.471  0.00  0.00    -0.017 C 
ENDBRANCH  16  20
ENDBRANCH  15  16
ENDBRANCH  14  15
ENDBRANCH   1  14
BRANCH   9  22
ATOM     22  C   LIG    1       -2.634  -2.727   3.307  0.00  0.00    +0.109 C 
BRANCH  22  23
ATOM     23  C   LIG    1       -2.074  -2.405   4.668  0.00  0.00    -0.040 A 
ATOM     24  C   LIG    1       -2.245  -3.295   5.713  0.00  0.00    +0.007 A 
ATOM     25  C   LIG    1       -1.728  -3.005   6.960  0.00  0.00    +0.046 A 
ATOM     26  C   LIG    1       -1.046  -1.815   7.168  0.00  0.00    +0.121 A 
ATOM     27  C   LIG    1       -0.880  -0.922   6.120  0.00  0.00    +0.046 A 
ATOM     28  C   LIG    1       -1.395  -1.219   4.873  0.00  0.00    +0.007 A 
BRANCH  26  29
ATOM     29  O   LIG    1       -0.541  -1.526   8.396  0.00  0.00    -0.492 OA
BRANCH  29  30
ATOM     30  C   LIG    1       -0.750  -2.492   9.428  0.00  0.00    +0.225 C 
ATOM     31  C   LIG    1       -0.116  -1.994  10.728  0.00  0.00    +0.048 C 
ENDBRANCH  29  30
ENDBRANCH  26  29
ENDBRANCH  22  23
ENDBRANCH   9  22
TORSDOF 11
