REMARK  Name = ZINC04098644
REMARK                            x       y       z     vdW  Elec       q    Type
REMARK                         _______ _______ _______ _____ _____    ______ ____
ROOT
ATOM      1  C   LIG    1       -0.017   1.375   0.010  0.00  0.00    +0.004 A 
ATOM      2  C   LIG    1        1.167   2.097   0.002  0.00  0.00    +0.012 A 
ATOM      3  C   LIG    1        2.386   1.430  -0.013  0.00  0.00    +0.037 A 
ATOM      4  C   LIG    1        2.413   0.022  -0.021  0.00  0.00    +0.075 A 
ATOM      5  C   LIG    1        3.708  -0.686  -0.038  0.00  0.00    +0.202 C 
ATOM      6  C   LIG    1        4.944   0.064   0.261  0.00  0.00    +0.075 A 
ATOM      7  C   LIG    1        4.921   1.473   0.271  0.00  0.00    +0.037 A 
ATOM      8  C   LIG    1        6.083   2.179   0.553  0.00  0.00    +0.018 A 
ATOM      9  C   LIG    1        7.260   1.498   0.823  0.00  0.00    -0.018 A 
ATOM     10  C   LIG    1        7.290   0.119   0.814  0.00  0.00    +0.052 A 
ATOM     11  C   LIG    1        6.136  -0.609   0.534  0.00  0.00    +0.129 A 
ATOM     12  O   LIG    1        3.757  -1.873  -0.296  0.00  0.00    -0.286 OA
ATOM     13  C   LIG    1        1.213  -0.692  -0.013  0.00  0.00    +0.128 A 
ATOM     14  C   LIG    1        3.658   2.186  -0.019  0.00  0.00    +0.195 C 
ATOM     15  O   LIG    1        3.664   3.377  -0.259  0.00  0.00    -0.287 OA
ATOM     16  C   LIG    1        0.002  -0.004   0.002  0.00  0.00    +0.046 A 
ENDROOT
BRANCH  11  17
ATOM     17  O   LIG    1        6.170  -1.965   0.526  0.00  0.00    -0.506 OA
ATOM     18  H   LIG    1        6.383  -2.348  -0.335  0.00  0.00    +0.292 HD
ENDBRANCH  11  17
BRANCH  13  19
ATOM     19  O   LIG    1        1.226  -2.048  -0.021  0.00  0.00    -0.506 OA
ATOM     20  H   LIG    1        1.239  -2.446   0.860  0.00  0.00    +0.292 HD
ENDBRANCH  13  19
BRANCH   9  21
ATOM     21  C   LIG    1        8.517   2.270   1.128  0.00  0.00    +0.191 C 
BRANCH  21  22
ATOM     22  O   LIG    1        8.605   2.500   2.536  0.00  0.00    -0.390 OA
ATOM     23  H   LIG    1        9.392   2.993   2.805  0.00  0.00    +0.210 HD
ENDBRANCH  21  22
ENDBRANCH   9  21
TORSDOF 4
