REMARK  Name = ZINC04532103
REMARK                            x       y       z     vdW  Elec       q    Type
REMARK                         _______ _______ _______ _____ _____    ______ ____
ROOT
ATOM      1  C   LIG    1       -0.093  -0.743  -1.227  0.00  0.00    +0.043 C 
ATOM      2  C   LIG    1        1.195  -0.336  -1.988  0.00  0.00    +0.010 C 
ATOM      3  C   LIG    1        1.853  -1.659  -2.476  0.00  0.00    +0.005 C 
ATOM      4  C   LIG    1        0.674  -2.646  -2.403  0.00  0.00    -0.001 C 
ATOM      5  C   LIG    1        0.991  -4.101  -2.528  0.00  0.00    +0.000 C 
ATOM      6  C   LIG    1        2.496  -4.392  -2.473  0.00  0.00    +0.031 C 
ATOM      7  C   LIG    1        2.681  -5.875  -2.655  0.00  0.00    -0.027 C 
ATOM      8  C   LIG    1        1.762  -6.748  -2.384  0.00  0.00    -0.065 C 
ATOM      9  C   LIG    1        0.409  -6.408  -1.806  0.00  0.00    -0.008 C 
ATOM     10  C   LIG    1        0.216  -7.220  -0.521  0.00  0.00    +0.016 C 
ATOM     11  C   LIG    1       -0.662  -6.818  -2.807  0.00  0.00    +0.014 C 
ATOM     12  C   LIG    1       -0.044  -7.645  -3.934  0.00  0.00    +0.032 C 
ATOM     13  C   LIG    1        0.827  -8.780  -3.407  0.00  0.00    +0.119 C 
ATOM     14  C   LIG    1        2.032  -8.220  -2.642  0.00  0.00    +0.062 C 
ATOM     15  C   LIG    1        0.325  -4.932  -1.428  0.00  0.00    +0.003 C 
ATOM     16  C   LIG    1       -1.108  -4.495  -1.180  0.00  0.00    +0.005 C 
ATOM     17  C   LIG    1       -1.236  -3.010  -0.827  0.00  0.00    +0.008 C 
ATOM     18  C   LIG    1        0.057  -2.271  -1.037  0.00  0.00    -0.021 C 
ATOM     19  C   LIG    1        1.018  -2.475   0.133  0.00  0.00    +0.012 C 
ENDROOT
BRANCH   1  21
ATOM     20  C   LIG    1       -0.368   1.420   0.201  0.00  0.00    +0.064 C 
ATOM     21  C   LIG    1       -0.149  -0.068   0.115  0.00  0.00    +0.058 C 
ATOM     22  N   LIG    1       -0.011  -0.758   1.184  0.00  0.00    -0.097 NA
BRANCH  22  23
ATOM     23  O   LIG    1       -0.065  -0.122   2.448  0.00  0.00    -0.409 OA
ATOM     24  H   LIG    1        0.050  -0.724   3.196  0.00  0.00    +0.328 HD
ENDBRANCH  22  23
ENDBRANCH   1  21
BRANCH  13  25
ATOM     25  O   LIG    1        0.058  -9.627  -2.552  0.00  0.00    -0.391 OA
ATOM     26  H   LIG    1        0.555 -10.370  -2.183  0.00  0.00    +0.210 HD
ENDBRANCH  13  25
TORSDOF 3
