REMARK  Name = ZINC04657707
REMARK                            x       y       z     vdW  Elec       q    Type
REMARK                         _______ _______ _______ _____ _____    ______ ____
ROOT
ATOM      1  N   LIG    1       -1.235  -0.805  -0.590  0.00  0.00    -0.149 NA
ATOM      2  N   LIG    1       -1.155  -1.994  -0.095  0.00  0.00    -0.142 NA
ENDROOT
BRANCH   2   3
ATOM      3  C   LIG    1        0.031  -2.657  -0.110  0.00  0.00    +0.164 A 
ATOM      4  C   LIG    1        0.674  -3.249   0.992  0.00  0.00    +0.139 A 
ATOM      5  N   LIG    1        1.802  -3.792   0.554  0.00  0.00    -0.284 N 
ATOM      6  N   LIG    1        1.911  -3.566  -0.822  0.00  0.00    -0.284 N 
ATOM      7  H   LIG    1        2.643  -3.861  -1.386  0.00  0.00    +0.188 HD
ATOM      8  H   LIG    1        2.447  -4.269   1.100  0.00  0.00    +0.188 HD
ATOM      9  C   LIG    1        0.846  -2.889  -1.232  0.00  0.00    +0.139 A 
BRANCH   4  10
ATOM     10  N   LIG    1        0.213  -3.261   2.300  0.00  0.00    -0.342 N 
ATOM     11  H   LIG    1        0.694  -3.759   2.979  0.00  0.00    +0.144 HD
ATOM     12  H   LIG    1       -0.591  -2.772   2.535  0.00  0.00    +0.144 HD
ENDBRANCH   4  10
BRANCH   9  13
ATOM     13  N   LIG    1        0.586  -2.482  -2.532  0.00  0.00    -0.342 N 
ATOM     14  H   LIG    1        1.214  -2.691  -3.241  0.00  0.00    +0.144 HD
ATOM     15  H   LIG    1       -0.223  -1.986  -2.732  0.00  0.00    +0.144 HD
ENDBRANCH   9  13
ENDBRANCH   2   3
BRANCH   1  21
ATOM     16  C   LIG    1       -0.088   0.151  -2.464  0.00  0.00    +0.031 A 
ATOM     17  C   LIG    1        1.037   0.755  -2.986  0.00  0.00    +0.030 A 
ATOM     18  C   LIG    1        2.130   1.008  -2.175  0.00  0.00    +0.105 A 
ATOM     19  C   LIG    1        2.103   0.657  -0.837  0.00  0.00    +0.030 A 
ATOM     20  C   LIG    1        0.985   0.052  -0.302  0.00  0.00    +0.031 A 
ATOM     21  C   LIG    1       -0.122  -0.206  -1.114  0.00  0.00    +0.086 A 
BRANCH  18  22
ATOM     22  S   LIG    1        3.562   1.781  -2.850  0.00  0.00    +0.056 S 
ATOM     23  O   LIG    1        3.547   1.515  -4.246  0.00  0.00    -0.153 OA
ATOM     24  O   LIG    1        4.653   1.414  -2.017  0.00  0.00    -0.153 OA
BRANCH  22  25
ATOM     25  N   LIG    1        3.364   3.416  -2.678  0.00  0.00    -0.204 NA
ATOM     26  H   LIG    1        4.052   4.024  -2.991  0.00  0.00    +0.144 HD
ATOM     27  H   LIG    1        2.560   3.766  -2.263  0.00  0.00    +0.144 HD
ENDBRANCH  22  25
ENDBRANCH  18  22
ENDBRANCH   1  21
TORSDOF 6
