REMARK  Name = ZINC04203229
REMARK                            x       y       z     vdW  Elec       q    Type
REMARK                         _______ _______ _______ _____ _____    ______ ____
ROOT
ATOM      1  CA  LIG    1       -0.072   5.348   0.030  0.00  0.00    +0.067 C 
ENDROOT
BRANCH   1   4
ATOM      2  C   LIG    1       -1.218   1.751   0.017  0.00  0.00    +0.002 A 
ATOM      3  C   LIG    1       -1.237   3.133   0.029  0.00  0.00    +0.002 A 
ATOM      4  C   LIG    1       -0.050   3.841   0.022  0.00  0.00    -0.050 A 
ATOM      5  C   LIG    1        1.157   3.167   0.007  0.00  0.00    +0.022 A 
ATOM      6  C   LIG    1        1.176   1.784   0.000  0.00  0.00    +0.041 A 
ATOM      7 CL   LIG    1        2.691   0.937  -0.017  0.00  0.00    -0.084 Cl
ATOM      8  C   LIG    1       -0.013   1.076   0.008  0.00  0.00    +0.020 A 
ENDBRANCH   1   4
BRANCH   1   9
ATOM      9  N   LIG    1       -1.141   5.816  -0.870  0.00  0.00    +0.390 N 
ATOM     10  H1  LIG    1       -0.976   5.443  -1.812  0.00  0.00    -0.088 HD
ATOM     11  H2  LIG    1       -1.142   6.834  -0.910  0.00  0.00    -0.088 HD
ATOM     12  H3  LIG    1       -2.046   5.489  -0.536  0.00  0.00    -0.088 HD
ENDBRANCH   1   9
BRANCH   1  13
ATOM     13  C   LIG    1       -0.313   5.840   1.434  0.00  0.00    +0.294 C 
ATOM     14  O   LIG    1       -1.418   6.195   1.768  0.00  0.00    -0.253 OA
BRANCH  13  15
ATOM     15  OXT LIG    1        0.701   5.883   2.313  0.00  0.00    -0.482 OA
ATOM     16  HXT LIG    1        1.558   5.607   2.054  0.00  0.00    +0.295 HD
ENDBRANCH  13  15
ENDBRANCH   1  13
TORSDOF 4
