REMARK  Name = ZINC04356984
REMARK                            x       y       z     vdW  Elec       q    Type
REMARK                         _______ _______ _______ _____ _____    ______ ____
ROOT
ATOM      1  N   LIG    1       -1.451  -1.989   0.159  0.00  0.00    -0.241 N 
ATOM      2  C   LIG    1       -1.687  -2.555  -1.012  0.00  0.00    +0.259 C 
ATOM      3  C   LIG    1       -1.632  -3.978  -1.092  0.00  0.00    +0.077 C 
ATOM      4  S   LIG    1       -1.228  -4.399   0.597  0.00  0.00    -0.061 S 
ATOM      5  C   LIG    1       -1.835  -4.803  -2.177  0.00  0.00    +0.020 C 
ATOM      6  O   LIG    1       -1.944  -1.881  -1.994  0.00  0.00    -0.269 OA
ATOM      7  C   LIG    1       -1.161  -2.736   1.246  0.00  0.00    +0.121 C 
ATOM      8  S   LIG    1       -0.819  -2.220   2.843  0.00  0.00    -0.027 S 
ENDROOT
BRANCH   5   9
ATOM      9  C   LIG    1       -1.730  -6.195  -2.029  0.00  0.00    +0.005 C 
ATOM     10  C   LIG    1       -1.931  -7.011  -3.100  0.00  0.00    +0.046 C 
BRANCH  10  11
ATOM     11  C   LIG    1       -1.825  -8.413  -2.951  0.00  0.00    +0.128 A 
ATOM     12  C   LIG    1       -1.996  -9.353  -3.948  0.00  0.00    +0.049 A 
ATOM     13  C   LIG    1       -1.799 -10.608  -3.351  0.00  0.00    +0.042 A 
ATOM     14  C   LIG    1       -1.522 -10.392  -2.047  0.00  0.00    +0.195 A 
ATOM     15  O   LIG    1       -1.532  -9.072  -1.810  0.00  0.00    -0.464 OA
ENDBRANCH  10  11
ENDBRANCH   5   9
BRANCH   1  16
ATOM     16  C   LIG    1       -1.499  -0.529   0.277  0.00  0.00    +0.193 C 
BRANCH  16  18
ATOM     17  C   LIG    1       -3.978  -0.713   0.525  0.00  0.00    +0.009 C 
ATOM     18  C   LIG    1       -2.847  -0.019  -0.236  0.00  0.00    +0.015 C 
ATOM     19  C   LIG    1       -2.937   1.492  -0.019  0.00  0.00    +0.009 C 
ENDBRANCH  16  18
BRANCH  16  20
ATOM     20  C   LIG    1       -0.388   0.078  -0.540  0.00  0.00    +0.326 C 
ATOM     21  O   LIG    1        0.113   1.136  -0.198  0.00  0.00    -0.249 OA
BRANCH  20  22
ATOM     22  O   LIG    1        0.011  -0.489  -1.543  0.00  0.00    -0.479 OA
ATOM     23  H   LIG    1       -0.374  -1.302  -1.806  0.00  0.00    +0.295 HD
ENDBRANCH  20  22
ENDBRANCH  16  20
ENDBRANCH   1  16
TORSDOF 6
