REMARK  Name = ZINC04216763
REMARK                            x       y       z     vdW  Elec       q    Type
REMARK                         _______ _______ _______ _____ _____    ______ ____
ROOT
ATOM      1  C   LIG    1       -3.792   3.790   1.474  0.00  0.00    +0.138 C 
ATOM      2  C   LIG    1       -4.166   3.450   2.920  0.00  0.00    +0.019 C 
ATOM      3  C   LIG    1       -4.773   4.686   3.589  0.00  0.00    -0.076 C 
ATOM      4  N   LIG    1       -5.984   5.088   2.843  0.00  0.00    +0.380 N 
ATOM      5  H   LIG    1       -6.630   4.290   2.800  0.00  0.00    -0.082 HD
ATOM      6  C   LIG    1       -5.623   5.488   1.466  0.00  0.00    -0.073 C 
ATOM      7  C   LIG    1       -5.041   4.277   0.734  0.00  0.00    +0.004 C 
ATOM      8  C   LIG    1       -4.665   4.675  -0.695  0.00  0.00    +0.008 C 
ENDROOT
BRANCH   1  10
ATOM      9  C   LIG    1       -3.092   6.081   1.029  0.00  0.00    +0.220 C 
ATOM     10  N   LIG    1       -2.777   4.846   1.466  0.00  0.00    -0.255 N 
ATOM     11  O   LIG    1       -4.071   6.247   0.333  0.00  0.00    -0.275 OA
BRANCH  10  12
ATOM     12  C   LIG    1       -1.479   4.571   1.912  0.00  0.00    +0.037 A 
ATOM     13  C   LIG    1       -1.190   3.346   2.499  0.00  0.00    +0.023 A 
ATOM     14  C   LIG    1        0.091   3.080   2.942  0.00  0.00    +0.002 A 
ATOM     15  C   LIG    1        1.087   4.028   2.793  0.00  0.00    +0.000 A 
ATOM     16  C   LIG    1        0.803   5.247   2.204  0.00  0.00    +0.002 A 
ATOM     17  C   LIG    1       -0.477   5.521   1.763  0.00  0.00    +0.023 A 
ENDBRANCH  10  12
BRANCH   9  19
ATOM     18  C   LIG    1       -3.109   8.488   1.626  0.00  0.00    +0.013 C 
ATOM     19  C   LIG    1       -2.228   7.257   1.406  0.00  0.00    +0.093 C 
ENDBRANCH   9  19
ENDBRANCH   1  10
BRANCH   1  20
ATOM     20  C   LIG    1       -3.248   2.562   0.792  0.00  0.00    +0.331 C 
ATOM     21  O   LIG    1       -3.997   1.804   0.223  0.00  0.00    -0.248 OA
BRANCH  20  22
ATOM     22  O   LIG    1       -1.930   2.309   0.818  0.00  0.00    -0.466 OA
ATOM     23  C   LIG    1       -1.476   1.108   0.140  0.00  0.00    +0.280 C 
ENDBRANCH  20  22
ENDBRANCH   1  20
BRANCH   4  24
ATOM     24  C   LIG    1       -6.654   6.209   3.534  0.00  0.00    -0.074 C 
BRANCH  24  25
ATOM     25  C   LIG    1       -7.217   5.702   4.863  0.00  0.00    +0.016 C 
BRANCH  25  26
ATOM     26  C   LIG    1       -7.923   6.829   5.572  0.00  0.00    -0.049 A 
ATOM     27  C   LIG    1       -7.226   7.639   6.449  0.00  0.00    +0.003 A 
ATOM     28  C   LIG    1       -7.873   8.676   7.095  0.00  0.00    +0.000 A 
ATOM     29  C   LIG    1       -9.220   8.896   6.873  0.00  0.00    +0.000 A 
ATOM     30  C   LIG    1       -9.918   8.082   6.001  0.00  0.00    +0.000 A 
ATOM     31  C   LIG    1       -9.270   7.049   5.350  0.00  0.00    +0.003 A 
ENDBRANCH  25  26
ENDBRANCH  24  25
ENDBRANCH   4  24
TORSDOF 8
