REMARK  Name = ZINC04363863
REMARK                            x       y       z     vdW  Elec       q    Type
REMARK                         _______ _______ _______ _____ _____    ______ ____
ROOT
ATOM      1  N   LIG    1        4.205  -2.880  -4.283  0.00  0.00    -0.168 NA
ENDROOT
BRANCH   1   2
ATOM      2  C   LIG    1        5.208  -1.973  -4.849  0.00  0.00    +0.110 C 
ATOM      3  C   LIG    1        6.011  -2.714  -5.916  0.00  0.00    +0.026 C 
ATOM      4  C   LIG    1        7.188  -1.826  -6.339  0.00  0.00    +0.007 C 
ATOM      5  C   LIG    1        8.180  -1.759  -5.180  0.00  0.00    +0.035 C 
ATOM      6  C   LIG    1        7.478  -1.383  -3.902  0.00  0.00    -0.043 A 
ATOM      7  C   LIG    1        8.255  -0.918  -2.849  0.00  0.00    +0.004 A 
ATOM      8  C   LIG    1        7.673  -0.563  -1.651  0.00  0.00    +0.000 A 
ATOM      9  C   LIG    1        6.304  -0.669  -1.496  0.00  0.00    +0.000 A 
ATOM     10  C   LIG    1        5.529  -1.128  -2.541  0.00  0.00    +0.005 A 
ATOM     11  C   LIG    1        6.113  -1.485  -3.749  0.00  0.00    -0.025 A 
ENDBRANCH   1   2
BRANCH   1  12
ATOM     12  S   LIG    1        2.594  -2.588  -4.529  0.00  0.00    +0.062 S 
ATOM     13  O   LIG    1        2.498  -1.805  -5.710  0.00  0.00    -0.153 OA
ATOM     14  O   LIG    1        1.929  -3.837  -4.386  0.00  0.00    -0.153 OA
BRANCH  12  18
ATOM     15  C   LIG    1        1.172   0.037  -1.120  0.00  0.00    +0.162 A 
ATOM     16  C   LIG    1        1.664   0.611  -2.281  0.00  0.00    +0.051 A 
ATOM     17  C   LIG    1        2.097  -0.193  -3.319  0.00  0.00    +0.032 A 
ATOM     18  C   LIG    1        2.040  -1.569  -3.202  0.00  0.00    +0.109 A 
ATOM     19  C   LIG    1        1.550  -2.148  -2.046  0.00  0.00    +0.078 A 
ATOM     20  C   LIG    1        1.120  -1.348  -0.999  0.00  0.00    +0.163 A 
BRANCH  15  22
ATOM     21  C   LIG    1        0.828   2.240  -0.292  0.00  0.00    +0.277 C 
ATOM     22  O   LIG    1        0.746   0.827  -0.098  0.00  0.00    -0.491 OA
ENDBRANCH  15  22
BRANCH  20  23
ATOM     23  O   LIG    1        0.643  -1.915   0.141  0.00  0.00    -0.491 OA
ATOM     24  C   LIG    1        0.619  -3.343   0.194  0.00  0.00    +0.277 C 
ENDBRANCH  20  23
ENDBRANCH  12  18
ENDBRANCH   1  12
BRANCH   1  25
ATOM     25  C   LIG    1        4.628  -4.043  -3.500  0.00  0.00    +0.125 C 
BRANCH  25  26
ATOM     26  C   LIG    1        4.864  -5.230  -4.437  0.00  0.00    +0.135 C 
BRANCH  26  27
ATOM     27  C   LIG    1        5.153  -6.434  -3.641  0.00  0.00    +0.064 C 
ATOM     28  N   LIG    1        5.376  -7.363  -3.027  0.00  0.00    -0.197 NA
ENDBRANCH  26  27
ENDBRANCH  25  26
ENDBRANCH   1  25
TORSDOF 8
