REMARK  Name = ZINC04329306
REMARK                            x       y       z     vdW  Elec       q    Type
REMARK                         _______ _______ _______ _____ _____    ______ ____
ROOT
ATOM      1  CA  LIG    1        3.717  -0.701  -0.037  0.00  0.00    +0.069 C 
ENDROOT
BRANCH   1   4
ATOM      2  C   LIG    1        1.171   2.087   0.002  0.00  0.00    +0.003 A 
ATOM      3  C   LIG    1        2.378   1.414  -0.013  0.00  0.00    +0.005 A 
ATOM      4  C   LIG    1        2.400   0.032  -0.021  0.00  0.00    -0.013 A 
ATOM      5  C   LIG    1        1.213  -0.679  -0.013  0.00  0.00    +0.160 A 
ATOM      6  F   LIG    1        1.234  -2.030  -0.021  0.00  0.00    -0.202 F 
ATOM      7  C   LIG    1        0.002  -0.004   0.002  0.00  0.00    +0.159 A 
ATOM      8  F   LIG    1       -1.158  -0.696   0.009  0.00  0.00    -0.202 F 
ATOM      9  C   LIG    1       -0.017   1.380   0.010  0.00  0.00    +0.041 A 
ENDBRANCH   1   4
BRANCH   1  10
ATOM     10  N   LIG    1        4.793   0.186  -0.514  0.00  0.00    +0.390 N 
ATOM     11  H1  LIG    1        5.686  -0.321  -0.485  0.00  0.00    -0.088 HD
ATOM     12  H2  LIG    1        4.859   1.008   0.084  0.00  0.00    -0.088 HD
ATOM     13  H3  LIG    1        4.607   0.477  -1.472  0.00  0.00    -0.088 HD
ENDBRANCH   1  10
BRANCH   1  14
ATOM     14  C   LIG    1        4.049  -1.167   1.357  0.00  0.00    +0.294 C 
ATOM     15  O   LIG    1        4.832  -0.542   2.033  0.00  0.00    -0.253 OA
BRANCH  14  16
ATOM     16  OXT LIG    1        3.476  -2.278   1.848  0.00  0.00    -0.482 OA
ATOM     17  HXT LIG    1        2.869  -2.762   1.323  0.00  0.00    +0.295 HD
ENDBRANCH  14  16
ENDBRANCH   1  14
TORSDOF 4
