REMARK  Name = ZINC04668240
REMARK                            x       y       z     vdW  Elec       q    Type
REMARK                         _______ _______ _______ _____ _____    ______ ____
ROOT
ATOM      1  C   LIG    1        2.255  -6.092   3.185  0.00  0.00    +0.039 A 
ATOM      2  C   LIG    1        1.679  -6.856   2.166  0.00  0.00    +0.015 A 
ATOM      3  C   LIG    1        1.831  -8.224   2.165  0.00  0.00    +0.026 A 
ATOM      4  C   LIG    1        2.556  -8.847   3.178  0.00  0.00    +0.060 A 
ATOM      5  C   LIG    1        3.130  -8.088   4.194  0.00  0.00    +0.143 A 
ATOM      6  C   LIG    1        2.987  -6.719   4.197  0.00  0.00    +0.047 A 
ENDROOT
BRANCH   4   7
ATOM      7  N   LIG    1        2.707 -10.229   3.174  0.00  0.00    -0.328 N 
ATOM      8  C   LIG    1        1.798 -11.192   3.813  0.00  0.00    +0.105 C 
ATOM      9  C   LIG    1        2.379 -12.601   3.570  0.00  0.00    +0.020 C 
ATOM     10  C   LIG    1        3.879 -12.315   3.294  0.00  0.00    +0.020 C 
ATOM     11  C   LIG    1        3.801 -10.972   2.523  0.00  0.00    +0.105 C 
ENDBRANCH   4   7
BRANCH   1  14
ATOM     12  N   LIG    1        1.389  -4.022   2.213  0.00  0.00    -0.281 N 
ATOM     13  H   LIG    1        0.922  -4.556   1.551  0.00  0.00    +0.155 HD
ATOM     14  C   LIG    1        2.095  -4.625   3.189  0.00  0.00    +0.248 C 
ATOM     15  O   LIG    1        2.601  -3.961   4.073  0.00  0.00    -0.270 OA
BRANCH  12  20
ATOM     16  C   LIG    1        2.356  -0.483   2.498  0.00  0.00    +0.122 A 
ATOM     17  C   LIG    1        1.205   0.139   2.034  0.00  0.00    +0.046 A 
ATOM     18  C   LIG    1        0.122  -0.619   1.632  0.00  0.00    +0.005 A 
ATOM     19  C   LIG    1        0.180  -1.998   1.690  0.00  0.00    +0.023 A 
ATOM     20  C   LIG    1        1.330  -2.626   2.153  0.00  0.00    +0.037 A 
ATOM     21  C   LIG    1        2.421  -1.866   2.552  0.00  0.00    +0.069 A 
BRANCH  16  23
ATOM     22  C   LIG    1        3.283   1.684   2.811  0.00  0.00    +0.277 C 
ATOM     23  O   LIG    1        3.420   0.264   2.893  0.00  0.00    -0.495 OA
ENDBRANCH  16  23
ENDBRANCH  12  20
ENDBRANCH   1  14
BRANCH   5  24
ATOM     24  N   LIG    1        3.899  -8.754   5.269  0.00  0.00    +0.008 N 
ATOM     25  O   LIG    1        4.398  -8.096   6.152  0.00  0.00    -0.130 OA
BRANCH  24  26
ATOM     26  O   LIG    1        4.029  -9.956   5.264  0.00  0.00    -0.396 OA
ATOM     27  H   LIG    1        3.643 -10.466   4.580  0.00  0.00    +0.329 HD
ENDBRANCH  24  26
ENDBRANCH   5  24
TORSDOF 6
