REMARK  Name = ZINC04179475
REMARK                            x       y       z     vdW  Elec       q    Type
REMARK                         _______ _______ _______ _____ _____    ______ ____
ROOT
ATOM      1  C   LIG    1        3.588   6.145   0.132  0.00  0.00    +0.100 C 
ENDROOT
BRANCH   1   2
ATOM      2  C   LIG    1        2.373   6.495   0.952  0.00  0.00    +0.092 A 
ATOM      3  C   LIG    1        1.318   5.568   1.089  0.00  0.00    +0.200 A 
ATOM      4  C   LIG    1        0.159   5.977   1.908  0.00  0.00    +0.065 A 
ATOM      5  C   LIG    1       -0.929   5.128   2.099  0.00  0.00    +0.015 A 
ATOM      6  C   LIG    1       -1.991   5.547   2.871  0.00  0.00    +0.001 A 
ATOM      7  C   LIG    1       -1.978   6.806   3.454  0.00  0.00    +0.004 A 
ATOM      8  C   LIG    1       -0.907   7.654   3.272  0.00  0.00    +0.047 A 
ATOM      9  C   LIG    1        0.173   7.250   2.497  0.00  0.00    +0.143 A 
ATOM     10  O   LIG    1        1.232   8.065   2.306  0.00  0.00    -0.425 OA
ATOM     11  O   LIG    1        1.362   4.474   0.552  0.00  0.00    -0.287 OA
ATOM     12  C   LIG    1        2.290   7.702   1.569  0.00  0.00    +0.292 A 
BRANCH  12  13
ATOM     13  O   LIG    1        3.312   8.573   1.431  0.00  0.00    -0.480 OA
ATOM     14  H   LIG    1        3.267   9.557   1.921  0.00  0.00    +0.295 HD
ENDBRANCH  12  13
ENDBRANCH   1   2
BRANCH   1  15
ATOM     15  C   LIG    1        4.125   4.808   0.573  0.00  0.00    +0.092 A 
ATOM     16  C   LIG    1        3.702   3.626  -0.071  0.00  0.00    +0.200 A 
ATOM     17  C   LIG    1        4.268   2.350   0.413  0.00  0.00    +0.065 A 
ATOM     18  C   LIG    1        3.909   1.133  -0.163  0.00  0.00    +0.015 A 
ATOM     19  C   LIG    1        4.461  -0.035   0.318  0.00  0.00    +0.001 A 
ATOM     20  C   LIG    1        5.362  -0.001   1.372  0.00  0.00    +0.004 A 
ATOM     21  C   LIG    1        5.728   1.198   1.946  0.00  0.00    +0.047 A 
ATOM     22  C   LIG    1        5.184   2.387   1.475  0.00  0.00    +0.143 A 
ATOM     23  O   LIG    1        5.525   3.571   2.025  0.00  0.00    -0.425 OA
ATOM     24  O   LIG    1        2.902   3.656  -0.992  0.00  0.00    -0.287 OA
ATOM     25  C   LIG    1        5.018   4.733   1.594  0.00  0.00    +0.292 A 
BRANCH  25  26
ATOM     26  O   LIG    1        5.409   5.875   2.197  0.00  0.00    -0.480 OA
ATOM     27  H   LIG    1        6.132   5.839   3.026  0.00  0.00    +0.295 HD
ENDBRANCH  25  26
ENDBRANCH   1  15
BRANCH   1  31
ATOM     28  C   LIG    1        2.510   5.955  -3.999  0.00  0.00    +0.120 A 
ATOM     29  C   LIG    1        3.847   6.006  -3.632  0.00  0.00    +0.046 A 
ATOM     30  C   LIG    1        4.193   6.067  -2.296  0.00  0.00    +0.008 A 
ATOM     31  C   LIG    1        3.208   6.078  -1.325  0.00  0.00    -0.035 A 
ATOM     32  C   LIG    1        1.875   6.022  -1.689  0.00  0.00    +0.008 A 
ATOM     33  C   LIG    1        1.524   5.966  -3.024  0.00  0.00    +0.046 A 
BRANCH  28  35
ATOM     34  C   LIG    1        0.772   5.845  -5.618  0.00  0.00    +0.277 C 
ATOM     35  O   LIG    1        2.167   5.895  -5.313  0.00  0.00    -0.495 OA
ENDBRANCH  28  35
ENDBRANCH   1  31
TORSDOF 6
