REMARK  Name = ZINC04199922
REMARK                            x       y       z     vdW  Elec       q    Type
REMARK                         _______ _______ _______ _____ _____    ______ ____
ROOT
ATOM      1  C   LIG    1       -0.718   1.572   1.248  0.00  0.00    +0.132 A 
ATOM      2  N   LIG    1       -1.679   0.933   1.873  0.00  0.00    -0.235 NA
ATOM      3  C   LIG    1       -2.079   1.642   2.930  0.00  0.00    +0.071 A 
ATOM      4  C   LIG    1       -3.160   1.255   3.906  0.00  0.00    +0.068 C 
ATOM      5  C   LIG    1       -1.324   2.787   2.965  0.00  0.00    +0.152 A 
ATOM      6  C   LIG    1       -1.261   3.954   3.844  0.00  0.00    +0.278 A 
ATOM      7  O   LIG    1       -2.001   4.052   4.807  0.00  0.00    -0.265 OA
ATOM      8  N   LIG    1       -0.360   4.921   3.560  0.00  0.00    -0.304 N 
ATOM      9  H   LIG    1       -0.298   5.729   4.146  0.00  0.00    +0.170 HD
ATOM     10  C   LIG    1        0.473   4.802   2.466  0.00  0.00    +0.165 A 
ATOM     11  N   LIG    1        0.436   3.773   1.669  0.00  0.00    -0.146 NA
ATOM     12  N   LIG    1       -0.458   2.721   1.887  0.00  0.00    -0.210 N 
ENDROOT
BRANCH  10  13
ATOM     13  C   LIG    1        1.444   5.882   2.190  0.00  0.00    +0.061 A 
ATOM     14  C   LIG    1        1.508   6.998   3.026  0.00  0.00    +0.015 A 
ATOM     15  C   LIG    1        2.416   8.002   2.763  0.00  0.00    +0.001 A 
ATOM     16  C   LIG    1        3.265   7.908   1.673  0.00  0.00    +0.004 A 
ATOM     17  C   LIG    1        3.211   6.808   0.839  0.00  0.00    +0.046 A 
ATOM     18  C   LIG    1        2.307   5.788   1.092  0.00  0.00    +0.131 A 
BRANCH  18  19
ATOM     19  O   LIG    1        2.257   4.704   0.276  0.00  0.00    -0.492 OA
BRANCH  19  20
ATOM     20  C   LIG    1        3.169   4.677  -0.824  0.00  0.00    +0.226 C 
ATOM     21  C   LIG    1        2.966   3.389  -1.624  0.00  0.00    +0.048 C 
ENDBRANCH  19  20
ENDBRANCH  18  19
ENDBRANCH  10  13
BRANCH   1  22
ATOM     22  C   LIG    1       -0.013   1.086   0.008  0.00  0.00    +0.076 C 
BRANCH  22  24
ATOM     23  C   LIG    1       -0.037   1.099  -2.490  0.00  0.00    +0.004 C 
ATOM     24  C   LIG    1       -0.753   1.593  -1.232  0.00  0.00    +0.004 C 
ENDBRANCH  22  24
ENDBRANCH   1  22
TORSDOF 5
