REMARK  Name = ZINC04546338
REMARK                            x       y       z     vdW  Elec       q    Type
REMARK                         _______ _______ _______ _____ _____    ______ ____
ROOT
ATOM      1  C   LIG    1       -2.128  -4.371  -7.866  0.00  0.00    -0.023 C 
ATOM      2  C   LIG    1       -3.197  -4.975  -8.373  0.00  0.00    -0.004 C 
ENDROOT
BRANCH   2   3
ATOM      3  C   LIG    1       -3.809  -6.108  -7.662  0.00  0.00    -0.002 C 
ATOM      4  C   LIG    1       -4.812  -6.779  -8.218  0.00  0.00    +0.004 C 
BRANCH   4   5
ATOM      5  C   LIG    1       -5.439  -7.939  -7.489  0.00  0.00    +0.137 C 
BRANCH   5   6
ATOM      6  O   LIG    1       -4.866  -8.047  -6.184  0.00  0.00    -0.388 OA
ATOM      7  H   LIG    1       -4.992  -7.263  -5.633  0.00  0.00    +0.210 HD
ENDBRANCH   5   6
BRANCH   5   8
ATOM      8  C   LIG    1       -6.946  -7.711  -7.367  0.00  0.00    +0.036 C 
BRANCH   8   9
ATOM      9  C   LIG    1       -7.600  -8.943  -6.739  0.00  0.00    +0.014 C 
BRANCH   9  10
ATOM     10  C   LIG    1       -9.108  -8.714  -6.618  0.00  0.00    +0.120 C 
BRANCH  10  11
ATOM     11  C   LIG    1       -9.752  -9.928  -5.999  0.00  0.00    +0.305 C 
ATOM     12  O   LIG    1       -9.068 -10.888  -5.685  0.00  0.00    -0.251 OA
BRANCH  11  13
ATOM     13  O   LIG    1      -10.957  -9.951  -5.813  0.00  0.00    -0.481 OA
ATOM     14  H   LIG    1      -11.482  -9.214  -6.054  0.00  0.00    +0.295 HD
ENDBRANCH  11  13
ENDBRANCH  10  11
ENDBRANCH   9  10
ENDBRANCH   8   9
ENDBRANCH   5   8
ENDBRANCH   4   5
ENDBRANCH   2   3
BRANCH   1  15
ATOM     15  C   LIG    1       -1.450  -4.939  -6.646  0.00  0.00    +0.054 C 
BRANCH  15  17
ATOM     16  C   LIG    1        0.926  -4.652  -6.158  0.00  0.00    -0.027 C 
ATOM     17  C   LIG    1        0.011  -5.165  -6.943  0.00  0.00    -0.027 C 
BRANCH  16  18
ATOM     18  C   LIG    1        0.523  -3.975  -4.873  0.00  0.00    +0.053 C 
BRANCH  18  20
ATOM     19  C   LIG    1        1.984  -3.780  -2.927  0.00  0.00    -0.031 C 
ATOM     20  C   LIG    1        1.305  -4.564  -3.728  0.00  0.00    -0.027 C 
BRANCH  19  21
ATOM     21  C   LIG    1        1.855  -2.284  -3.049  0.00  0.00    +0.027 C 
BRANCH  21  22
ATOM     22  C   LIG    1        1.516  -1.687  -1.682  0.00  0.00    +0.004 C 
BRANCH  22  23
ATOM     23  C   LIG    1        1.386  -0.168  -1.807  0.00  0.00    +0.000 C 
BRANCH  23  25
ATOM     24  C   LIG    1        0.916   1.948  -0.564  0.00  0.00    +0.004 C 
ATOM     25  C   LIG    1        1.046   0.429  -0.439  0.00  0.00    -0.003 C 
ENDBRANCH  23  25
ENDBRANCH  22  23
ENDBRANCH  21  22
ENDBRANCH  19  21
ENDBRANCH  18  20
ENDBRANCH  16  18
ENDBRANCH  15  17
ENDBRANCH   1  15
TORSDOF 16
