REMARK  Name = ZINC04598914
REMARK                            x       y       z     vdW  Elec       q    Type
REMARK                         _______ _______ _______ _____ _____    ______ ____
ROOT
ATOM      1  CA  LEU A  1        1.388  -2.240  -0.148  0.00  0.00    +0.162 C 
ENDROOT
BRANCH   1   2
ATOM      2  N   LEU A  1        2.244  -2.752   0.925  0.00  0.00    -0.270 N 
ATOM      3  H   LEU A  1        2.377  -2.228   1.731  0.00  0.00    +0.153 HD
ATOM      4  C   UNK A  0        2.846  -3.950   0.793  0.00  0.00    +0.401 C 
ATOM      5  O   UNK A  0        2.757  -4.563  -0.252  0.00  0.00    -0.226 OA
BRANCH   4   6
ATOM      6  O   UNK A  0        3.548  -4.468   1.820  0.00  0.00    -0.446 OA
BRANCH   6   7
ATOM      7  C   UNK A  0        4.170  -5.762   1.607  0.00  0.00    +0.269 C 
BRANCH   7   8
ATOM      8  C   UNK A  0        4.905  -6.177   2.855  0.00  0.00    -0.010 A 
ATOM      9  C   UNK A  0        6.233  -5.831   3.022  0.00  0.00    +0.007 A 
ATOM     10  C   UNK A  0        6.906  -6.208   4.169  0.00  0.00    +0.000 A 
ATOM     11  C   UNK A  0        6.255  -6.940   5.144  0.00  0.00    +0.000 A 
ATOM     12  C   UNK A  0        4.928  -7.291   4.974  0.00  0.00    +0.000 A 
ATOM     13  C   UNK A  0        4.253  -6.909   3.830  0.00  0.00    +0.007 A 
ENDBRANCH   7   8
ENDBRANCH   6   7
ENDBRANCH   4   6
ENDBRANCH   1   2
BRANCH   1  14
ATOM     14  C   LEU A  1        1.289  -0.740  -0.040  0.00  0.00    +0.234 C 
ATOM     15  N   LEU A  2        0.960  -0.006  -1.121  0.00  0.00    -0.301 N 
ATOM     16  H   LEU A  2        0.718  -0.447  -1.951  0.00  0.00    +0.150 HD
ATOM     17  O   LEU A  1        1.504  -0.194   1.022  0.00  0.00    -0.274 OA
BRANCH  15  18
ATOM     18  CA  LEU A  2        0.968   1.457  -1.044  0.00  0.00    +0.182 C 
BRANCH  18  19
ATOM     19  C   LEU A  2       -0.351   1.938  -0.496  0.00  0.00    +0.325 C 
ATOM     20  O   LEU A  2       -1.209   1.141  -0.201  0.00  0.00    -0.249 OA
BRANCH  19  21
ATOM     21  OXT LEU A  2       -0.572   3.252  -0.336  0.00  0.00    -0.479 OA
ATOM     22  HXT LEU A  2        0.094   3.870  -0.565  0.00  0.00    +0.295 HD
ENDBRANCH  19  21
ENDBRANCH  18  19
BRANCH  18  23
ATOM     23  CB  LEU A  2        1.183   2.040  -2.442  0.00  0.00    +0.036 C 
BRANCH  23  24
ATOM     24  CG  LEU A  2        2.549   1.601  -2.973  0.00  0.00    -0.015 C 
ATOM     25  CD2 LEU A  2        3.654   2.234  -2.124  0.00  0.00    +0.007 C 
ATOM     26  CD1 LEU A  2        2.701   2.054  -4.426  0.00  0.00    +0.007 C 
ENDBRANCH  23  24
ENDBRANCH  18  23
ENDBRANCH  15  18
ENDBRANCH   1  14
BRANCH   1  27
ATOM     27  CB  LEU A  1       -0.007  -2.854  -0.025  0.00  0.00    +0.035 C 
BRANCH  27  29
ATOM     28  CD1 LEU A  1       -0.357  -2.880  -2.498  0.00  0.00    +0.007 C 
ATOM     29  CG  LEU A  1       -0.890  -2.348  -1.167  0.00  0.00    -0.015 C 
ATOM     30  CD2 LEU A  1       -2.324  -2.839  -0.960  0.00  0.00    +0.007 C 
ENDBRANCH  27  29
ENDBRANCH   1  27
TORSDOF 12
