REMARK  Name = ZINC04655055
REMARK                            x       y       z     vdW  Elec       q    Type
REMARK                         _______ _______ _______ _____ _____    ______ ____
ROOT
ATOM      1  C   LIG    1       -2.961  -2.314  -0.417  0.00  0.00    +0.034 A 
ATOM      2  C   LIG    1       -4.024  -1.573   0.082  0.00  0.00    +0.025 A 
ATOM      3  C   LIG    1       -5.284  -2.135   0.148  0.00  0.00    +0.035 A 
ATOM      4  C   LIG    1       -5.488  -3.433  -0.282  0.00  0.00    +0.133 A 
ATOM      5  C   LIG    1       -4.431  -4.173  -0.779  0.00  0.00    +0.086 A 
ATOM      6  C   LIG    1       -3.170  -3.616  -0.854  0.00  0.00    +0.038 A 
ENDROOT
BRANCH   1   8
ATOM      7  C   LIG    1       -1.272  -0.893   0.473  0.00  0.00    +0.248 C 
ATOM      8  N   LIG    1       -1.683  -1.749  -0.485  0.00  0.00    -0.283 N 
ATOM      9  H   LIG    1       -1.092  -1.972  -1.221  0.00  0.00    +0.155 HD
ATOM     10  O   LIG    1       -2.039  -0.549   1.347  0.00  0.00    -0.272 OA
BRANCH   7  12
ATOM     11  C   LIG    1        0.189   0.977   1.189  0.00  0.00    +0.051 C 
ATOM     12  C   LIG    1        0.139  -0.365   0.457  0.00  0.00    +0.136 C 
ATOM     13  C   LIG    1        1.064  -1.363   1.157  0.00  0.00    +0.051 C 
BRANCH  12  14
ATOM     14  O   LIG    1        0.566  -0.187  -0.895  0.00  0.00    -0.380 OA
ATOM     15  H   LIG    1        0.024   0.433  -1.400  0.00  0.00    +0.211 HD
ENDBRANCH  12  14
ENDBRANCH   7  12
ENDBRANCH   1   8
BRANCH   5  16
ATOM     16  C   LIG    1       -4.657  -5.588  -1.246  0.00  0.00    +0.420 C 
ATOM     17  F   LIG    1       -5.592  -5.592  -2.287  0.00  0.00    -0.166 F 
ATOM     18  F   LIG    1       -5.140  -6.359  -0.183  0.00  0.00    -0.166 F 
ATOM     19  F   LIG    1       -3.450  -6.127  -1.703  0.00  0.00    -0.166 F 
ENDBRANCH   5  16
BRANCH   4  20
ATOM     20  N   LIG    1       -6.840  -4.031  -0.211  0.00  0.00    +0.007 N 
ATOM     21  O   LIG    1       -7.764  -3.385   0.224  0.00  0.00    -0.130 OA
BRANCH  20  22
ATOM     22  O   LIG    1       -7.019  -5.166  -0.587  0.00  0.00    -0.396 OA
ATOM     23  H   LIG    1       -6.302  -5.667  -0.924  0.00  0.00    +0.329 HD
ENDBRANCH  20  22
ENDBRANCH   4  20
TORSDOF 6
