REMARK  Name = ZINC04387691
REMARK                            x       y       z     vdW  Elec       q    Type
REMARK                         _______ _______ _______ _____ _____    ______ ____
ROOT
ATOM      1  C   LIG    1        1.173   3.563   0.009  0.00  0.00    +0.137 A 
ATOM      2  C   LIG    1        1.887   4.361   0.857  0.00  0.00    +0.051 A 
ATOM      3  C   LIG    1        1.587   5.686   0.525  0.00  0.00    +0.055 A 
ATOM      4  C   LIG    1        0.693   5.641  -0.522  0.00  0.00    +0.191 A 
ATOM      5  O   LIG    1        0.461   4.345  -0.820  0.00  0.00    -0.450 OA
ENDROOT
BRANCH   1  11
ATOM      6  C   LIG    1        0.002  -0.004   0.002  0.00  0.00    +0.001 A 
ATOM      7  C   LIG    1        1.208  -0.684  -0.014  0.00  0.00    +0.001 A 
ATOM      8  C   LIG    1        2.402   0.014  -0.021  0.00  0.00    +0.021 A 
ATOM      9  C   LIG    1        2.399   1.395  -0.013  0.00  0.00    +0.052 A 
ATOM     10 CL   LIG    1        3.899   2.269  -0.022  0.00  0.00    -0.083 Cl
ATOM     11  C   LIG    1        1.185   2.087   0.002  0.00  0.00    +0.036 A 
ATOM     12  C   LIG    1       -0.017   1.375   0.010  0.00  0.00    +0.013 A 
ENDBRANCH   1  11
BRANCH   4  13
ATOM     13  C   LIG    1        0.101   6.798  -1.199  0.00  0.00    +0.293 C 
ATOM     14  N   LIG    1       -0.765   6.614  -2.215  0.00  0.00    -0.247 N 
ATOM     15  H   LIG    1       -0.996   5.716  -2.498  0.00  0.00    +0.169 HD
ATOM     16  O   LIG    1        0.392   7.925  -0.843  0.00  0.00    -0.266 OA
BRANCH  14  17
ATOM     17  N   LIG    1       -1.317   7.693  -2.845  0.00  0.00    -0.254 NA
ATOM     18  H   LIG    1       -1.789   8.294  -2.187  0.00  0.00    +0.140 HD
ATOM     19  H   LIG    1       -1.942   7.401  -3.581  0.00  0.00    +0.140 HD
ENDBRANCH  14  17
ENDBRANCH   4  13
TORSDOF 3
