REMARK  Name = ZINC04292977
REMARK                            x       y       z     vdW  Elec       q    Type
REMARK                         _______ _______ _______ _____ _____    ______ ____
ROOT
ATOM      1  C   LIG    1       -0.017   1.378   0.010  0.00  0.00    +0.000 A 
ATOM      2  C   LIG    1        1.166   2.098   0.002  0.00  0.00    +0.001 A 
ATOM      3  C   LIG    1        2.375   1.433  -0.008  0.00  0.00    +0.012 A 
ATOM      4  C   LIG    1        2.397   0.039  -0.014  0.00  0.00    +0.025 A 
ATOM      5  C   LIG    1        1.206  -0.686  -0.015  0.00  0.00    -0.033 A 
ATOM      6  C   LIG    1        1.204  -2.186  -0.046  0.00  0.00    +0.063 C 
ATOM      7  C   LIG    1        2.519  -2.785   0.331  0.00  0.00    -0.018 C 
ATOM      8  C   LIG    1        3.663  -2.119   0.345  0.00  0.00    +0.047 C 
ATOM      9  C   LIG    1        3.687  -0.690  -0.014  0.00  0.00    +0.186 C 
ATOM     10  O   LIG    1        4.727  -0.129  -0.300  0.00  0.00    -0.287 OA
ATOM     11  C   LIG    1        0.002  -0.004   0.002  0.00  0.00    +0.004 A 
ENDROOT
TORSDOF 0
