REMARK  Name = ZINC04429715
REMARK                            x       y       z     vdW  Elec       q    Type
REMARK                         _______ _______ _______ _____ _____    ______ ____
ROOT
ATOM      1  S   LIG    1       -0.026   2.046   0.013  0.00  0.00    +0.081 S 
ATOM      2  O   LIG    1        1.348   2.408   0.002  0.00  0.00    -0.246 OA
ENDROOT
BRANCH   1   3
ATOM      3  S   LIG    1        0.002  -0.004   0.002  0.00  0.00    -0.061 S 
BRANCH   3   4
ATOM      4  C   LIG    1        0.756  -0.442   1.593  0.00  0.00    +0.083 C 
BRANCH   4   6
ATOM      5  C   LIG    1        0.421  -0.474   4.069  0.00  0.00    +0.004 C 
ATOM      6  C   LIG    1       -0.215  -0.105   2.727  0.00  0.00    +0.008 C 
ENDBRANCH   4   6
ENDBRANCH   3   4
ENDBRANCH   1   3
BRANCH   1   7
ATOM      7  C   LIG    1       -0.779   2.483  -1.578  0.00  0.00    +0.115 C 
BRANCH   7   8
ATOM      8  C   LIG    1       -0.862   4.006  -1.701  0.00  0.00    +0.011 C 
ATOM      9  C   LIG    1       -1.498   4.375  -3.043  0.00  0.00    +0.005 C 
ENDBRANCH   7   8
ENDBRANCH   1   7
TORSDOF 5
