REMARK  Name = ZINC04809571
REMARK                            x       y       z     vdW  Elec       q    Type
REMARK                         _______ _______ _______ _____ _____    ______ ____
ROOT
ATOM      1  C   LIG    1       -2.073   0.531   3.713  0.00  0.00    +0.096 C 
ATOM      2  C   LIG    1       -3.081  -0.516   4.101  0.00  0.00    +0.010 A 
ATOM      3  C   LIG    1       -2.666  -1.671   4.736  0.00  0.00    +0.053 A 
ATOM      4  C   LIG    1       -3.592  -2.638   5.095  0.00  0.00    +0.121 A 
ATOM      5  C   LIG    1       -4.937  -2.446   4.815  0.00  0.00    +0.049 A 
ATOM      6  C   LIG    1       -5.353  -1.292   4.181  0.00  0.00    +0.050 A 
ATOM      7  C   LIG    1       -4.425  -0.323   3.822  0.00  0.00    +0.132 A 
ATOM      8  O   LIG    1       -4.838   0.808   3.203  0.00  0.00    -0.460 OA
ATOM      9  C   LIG    1       -4.080   1.919   3.243  0.00  0.00    +0.114 C 
ATOM     10  C   LIG    1       -4.762   3.249   3.026  0.00  0.00    +0.081 C 
ATOM     11  C   LIG    1       -3.803   4.215   2.350  0.00  0.00    -0.021 C 
ATOM     12  C   LIG    1       -3.380   3.662   0.988  0.00  0.00    +0.012 C 
ATOM     13  C   LIG    1       -4.485   5.572   2.165  0.00  0.00    +0.012 C 
ATOM     14  C   LIG    1       -2.571   4.374   3.247  0.00  0.00    +0.086 C 
ATOM     15  C   LIG    1       -1.969   3.018   3.493  0.00  0.00    +0.164 C 
ATOM     16  O   LIG    1       -0.778   2.927   3.714  0.00  0.00    -0.292 OA
ATOM     17  C   LIG    1       -2.759   1.853   3.472  0.00  0.00    +0.045 C 
ENDROOT
BRANCH   1  24
ATOM     18  C   LIG    1       -0.019   1.526   0.010  0.00  0.00    +0.012 C 
ATOM     19  C   LIG    1        0.002  -0.004   0.002  0.00  0.00    -0.021 C 
ATOM     20  C   LIG    1        0.713  -0.500  -1.259  0.00  0.00    +0.012 C 
ATOM     21  C   LIG    1       -1.434  -0.537   0.028  0.00  0.00    +0.086 C 
ATOM     22  C   LIG    1       -2.101  -0.104   1.307  0.00  0.00    +0.164 C 
ATOM     23  O   LIG    1       -3.312   0.069   1.327  0.00  0.00    -0.292 OA
ATOM     24  C   LIG    1       -1.367   0.100   2.454  0.00  0.00    +0.044 C 
ATOM     25  C   LIG    1       -0.002  -0.081   2.478  0.00  0.00    +0.102 C 
ATOM     26  C   LIG    1        0.742  -0.514   1.242  0.00  0.00    +0.080 C 
BRANCH  25  27
ATOM     27  O   LIG    1        0.614   0.112   3.517  0.00  0.00    -0.511 OA
ATOM     28  H   LIG    1        0.158   0.382   4.289  0.00  0.00    +0.292 HD
ENDBRANCH  25  27
ENDBRANCH   1  24
BRANCH   4  29
ATOM     29  O   LIG    1       -3.182  -3.774   5.720  0.00  0.00    -0.495 OA
ATOM     30  C   LIG    1       -4.191  -4.727   6.061  0.00  0.00    +0.277 C 
ENDBRANCH   4  29
TORSDOF 3
