REMARK  Name = ZINC04657707
REMARK                            x       y       z     vdW  Elec       q    Type
REMARK                         _______ _______ _______ _____ _____    ______ ____
ROOT
ATOM      1  N   LIG    1       -1.172  -0.708   0.010  0.00  0.00    -0.149 NA
ATOM      2  N   LIG    1       -1.151  -1.997   0.003  0.00  0.00    -0.142 NA
ENDROOT
BRANCH   1   8
ATOM      3  C   LIG    1       -0.017   1.393   0.010  0.00  0.00    +0.031 A 
ATOM      4  C   LIG    1        1.170   2.095   0.002  0.00  0.00    +0.030 A 
ATOM      5  C   LIG    1        2.378   1.420  -0.013  0.00  0.00    +0.105 A 
ATOM      6  C   LIG    1        2.404   0.036  -0.021  0.00  0.00    +0.030 A 
ATOM      7  C   LIG    1        1.225  -0.679  -0.014  0.00  0.00    +0.031 A 
ATOM      8  C   LIG    1        0.002  -0.004   0.002  0.00  0.00    +0.086 A 
BRANCH   5   9
ATOM      9  S   LIG    1        3.889   2.325  -0.024  0.00  0.00    +0.056 S 
ATOM     10  O   LIG    1        3.592   3.605  -0.566  0.00  0.00    -0.153 OA
ATOM     11  O   LIG    1        4.872   1.469  -0.589  0.00  0.00    -0.153 OA
BRANCH   9  12
ATOM     12  N   LIG    1        4.325   2.569   1.555  0.00  0.00    -0.204 NA
ATOM     13  H   LIG    1        5.138   3.054   1.764  0.00  0.00    +0.144 HD
ATOM     14  H   LIG    1        3.767   2.227   2.270  0.00  0.00    +0.144 HD
ENDBRANCH   9  12
ENDBRANCH   5   9
ENDBRANCH   1   8
BRANCH   2  15
ATOM     15  C   LIG    1       -2.315  -2.695   0.011  0.00  0.00    +0.166 A 
ATOM     16  C   LIG    1       -2.460  -4.083   0.010  0.00  0.00    +0.141 A 
ATOM     17  N   LIG    1       -3.781  -4.351   0.020  0.00  0.00    -0.261 N 
ATOM     18  N   LIG    1       -4.503  -3.154   0.027  0.00  0.00    -0.155 NA
ATOM     19  H   LIG    1       -4.171  -5.239   0.023  0.00  0.00    +0.190 HD
ATOM     20  C   LIG    1       -3.671  -2.143   0.028  0.00  0.00    +0.167 A 
BRANCH  16  21
ATOM     21  N   LIG    1       -1.437  -5.012   0.001  0.00  0.00    -0.342 N 
ATOM     22  H   LIG    1       -1.643  -5.960   0.002  0.00  0.00    +0.144 HD
ATOM     23  H   LIG    1       -0.513  -4.716  -0.005  0.00  0.00    +0.144 HD
ENDBRANCH  16  21
BRANCH  20  24
ATOM     24  N   LIG    1       -4.014  -0.789   0.038  0.00  0.00    -0.340 N 
ATOM     25  H   LIG    1       -4.947  -0.525   0.049  0.00  0.00    +0.144 HD
ATOM     26  H   LIG    1       -3.319  -0.113   0.035  0.00  0.00    +0.144 HD
ENDBRANCH  20  24
ENDBRANCH   2  15
TORSDOF 6
