REMARK  Name = ZINC04217451
REMARK                            x       y       z     vdW  Elec       q    Type
REMARK                         _______ _______ _______ _____ _____    ______ ____
ROOT
ATOM      1  C   LIG    1       -1.209   2.210   0.020  0.00  0.00    +0.253 C 
ATOM      2  C   LIG    1       -1.619   2.592  -1.425  0.00  0.00    +0.195 C 
ATOM      3  C   LIG    1       -3.130   2.889  -1.265  0.00  0.00    +0.176 C 
ATOM      4  C   LIG    1       -3.524   2.156   0.032  0.00  0.00    +0.150 C 
ATOM      5  O   LIG    1       -2.351   1.478   0.516  0.00  0.00    -0.348 OA
ENDROOT
BRANCH   1  11
ATOM      6  C   LIG    1        3.197   3.066  -0.013  0.00  0.00    +0.225 A 
ATOM      7  N   LIG    1        3.981   2.003  -0.026  0.00  0.00    -0.219 NA
ATOM      8  C   LIG    1        3.474   0.775  -0.027  0.00  0.00    +0.147 A 
ATOM      9  C   LIG    1        2.077   0.626  -0.014  0.00  0.00    +0.147 A 
ATOM     10  C   LIG    1        1.287   1.788  -0.001  0.00  0.00    +0.167 A 
ATOM     11  N   LIG    1       -0.016   1.359   0.009  0.00  0.00    -0.286 N 
ATOM     12  C   LIG    1        0.002  -0.004   0.002  0.00  0.00    +0.203 A 
ATOM     13  N   LIG    1        1.231  -0.432  -0.012  0.00  0.00    -0.231 NA
ATOM     14  N   LIG    1        1.884   2.975  -0.001  0.00  0.00    -0.216 NA
BRANCH   8  15
ATOM     15  N   LIG    1        4.304  -0.333  -0.041  0.00  0.00    -0.341 N 
ATOM     16  H   LIG    1        5.267  -0.218  -0.050  0.00  0.00    +0.144 HD
ATOM     17  H   LIG    1        4.134  -0.887   0.774  0.00  0.00    +0.144 HD
ENDBRANCH   8  15
ENDBRANCH   1  11
BRANCH   2  18
ATOM     18  O   LIG    1       -0.915   3.755  -1.864  0.00  0.00    -0.385 OA
ATOM     19  H   LIG    1       -1.138   4.034  -2.763  0.00  0.00    +0.210 HD
ENDBRANCH   2  18
BRANCH   3  20
ATOM     20  O   LIG    1       -3.353   4.295  -1.136  0.00  0.00    -0.387 OA
ATOM     21  H   LIG    1       -3.068   4.810  -1.903  0.00  0.00    +0.210 HD
ENDBRANCH   3  20
BRANCH   4  22
ATOM     22  C   LIG    1       -4.631   1.141  -0.259  0.00  0.00    +0.018 C 
BRANCH  22  23
ATOM     23  C   LIG    1       -5.101   0.509   1.052  0.00  0.00    -0.073 C 
BRANCH  23  24
ATOM     24  N   LIG    1       -5.709   1.553   1.896  0.00  0.00    +0.380 N 
ATOM     25  H   LIG    1       -5.022   2.298   2.059  0.00  0.00    -0.090 HD
ATOM     26  H   LIG    1       -5.990   1.158   2.792  0.00  0.00    -0.090 HD
ATOM     27  H   LIG    1       -6.524   1.948   1.430  0.00  0.00    -0.090 HD
ENDBRANCH  23  24
BRANCH  23  28
ATOM     28  C   LIG    1       -6.119  -0.594   0.751  0.00  0.00    -0.017 C 
BRANCH  28  29
ATOM     29  C   LIG    1       -6.495  -1.309   2.050  0.00  0.00    -0.007 C 
BRANCH  29  30
ATOM     30  CA  LIG    1       -7.512  -2.412   1.749  0.00  0.00    +0.036 C 
BRANCH  30  31
ATOM     31  N   LIG    1       -8.751  -1.795   1.242  0.00  0.00    +0.387 N 
ATOM     32  H1  LIG    1       -8.534  -1.239   0.406  0.00  0.00    -0.089 HD
ATOM     33  H2  LIG    1       -9.153  -1.184   1.951  0.00  0.00    -0.089 HD
ATOM     34  H3  LIG    1       -9.425  -2.517   0.995  0.00  0.00    -0.089 HD
ENDBRANCH  30  31
BRANCH  30  35
ATOM     35  C   LIG    1       -7.790  -3.195   3.005  0.00  0.00    +0.290 C 
ATOM     36  O   LIG    1       -8.787  -2.969   3.650  0.00  0.00    -0.253 OA
BRANCH  35  37
ATOM     37  OXT LIG    1       -6.931  -4.144   3.409  0.00  0.00    -0.482 OA
ATOM     38  HXT LIG    1       -6.158  -4.320   2.909  0.00  0.00    +0.295 HD
ENDBRANCH  35  37
ENDBRANCH  30  35
ENDBRANCH  29  30
ENDBRANCH  28  29
ENDBRANCH  23  28
ENDBRANCH  22  23
ENDBRANCH   4  22
TORSDOF 13
