REMARK  Name = ZINC04654954
REMARK                            x       y       z     vdW  Elec       q    Type
REMARK                         _______ _______ _______ _____ _____    ______ ____
ROOT
ATOM      1  C   LIG    1        3.241   2.594  -0.857  0.00  0.00    +0.138 C 
ATOM      2  N   LIG    1        2.321   1.833  -0.009  0.00  0.00    -0.272 N 
ATOM      3  C   LIG    1        1.020   2.298   0.100  0.00  0.00    +0.045 A 
ATOM      4  C   LIG    1        0.839   3.678   0.206  0.00  0.00    +0.024 A 
ATOM      5  C   LIG    1       -0.425   4.215   0.313  0.00  0.00    +0.002 A 
ATOM      6  C   LIG    1       -1.534   3.385   0.317  0.00  0.00    +0.001 A 
ATOM      7  C   LIG    1       -1.375   2.022   0.221  0.00  0.00    +0.012 A 
ATOM      8  C   LIG    1       -0.094   1.460   0.106  0.00  0.00    +0.022 A 
ATOM      9  C   LIG    1        0.002  -0.004   0.002  0.00  0.00    +0.078 C 
ATOM     10  N   LIG    1        0.889  -0.727   0.590  0.00  0.00    -0.270 NA
ATOM     11  C   LIG    1        1.924  -0.139   1.439  0.00  0.00    +0.196 C 
ATOM     12  C   LIG    1        2.800   0.749   0.597  0.00  0.00    +0.244 C 
ATOM     13  O   LIG    1        3.973   0.469   0.467  0.00  0.00    -0.273 OA
ENDROOT
BRANCH   9  14
ATOM     14  C   LIG    1       -0.997  -0.698  -0.842  0.00  0.00    +0.036 A 
ATOM     15  C   LIG    1       -1.917  -1.573  -0.263  0.00  0.00    +0.013 A 
ATOM     16  C   LIG    1       -2.845  -2.216  -1.054  0.00  0.00    +0.001 A 
ATOM     17  C   LIG    1       -2.868  -1.996  -2.421  0.00  0.00    +0.003 A 
ATOM     18  C   LIG    1       -1.961  -1.130  -3.003  0.00  0.00    +0.039 A 
ATOM     19  C   LIG    1       -1.027  -0.475  -2.221  0.00  0.00    +0.133 A 
ATOM     20  F   LIG    1       -0.143   0.374  -2.789  0.00  0.00    -0.205 F 
ENDBRANCH   9  14
BRANCH  11  21
ATOM     21  C   LIG    1        1.269   0.690   2.546  0.00  0.00    +0.073 C 
BRANCH  21  22
ATOM     22  C   LIG    1        0.479  -0.219   3.453  0.00  0.00    -0.020 A 
ATOM     23  C   LIG    1       -0.835  -0.482   3.371  0.00  0.00    +0.087 A 
ATOM     24  N   LIG    1       -1.198  -1.355   4.361  0.00  0.00    -0.360 N 
ATOM     25  C   LIG    1       -0.101  -1.673   5.129  0.00  0.00    +0.047 A 
ATOM     26  C   LIG    1        0.086  -2.490   6.240  0.00  0.00    +0.026 A 
ATOM     27  C   LIG    1        1.339  -2.607   6.800  0.00  0.00    +0.002 A 
ATOM     28  C   LIG    1        2.419  -1.917   6.269  0.00  0.00    +0.001 A 
ATOM     29  C   LIG    1        2.259  -1.109   5.178  0.00  0.00    +0.010 A 
ATOM     30  H   LIG    1       -2.095  -1.694   4.502  0.00  0.00    +0.165 HD
ATOM     31  C   LIG    1        0.998  -0.976   4.594  0.00  0.00    +0.003 A 
ENDBRANCH  21  22
ENDBRANCH  11  21
TORSDOF 3
