REMARK  Name = ZINC04116964
REMARK                            x       y       z     vdW  Elec       q    Type
REMARK                         _______ _______ _______ _____ _____    ______ ____
ROOT
ATOM      1  C   LIG    1       -0.397  -0.170  -2.599  0.00  0.00    +0.089 A 
ATOM      2  C   LIG    1       -0.216  -1.035  -3.642  0.00  0.00    +0.077 A 
ATOM      3  S   LIG    1        0.028   0.113  -4.990  0.00  0.00    -0.060 S 
ATOM      4  C   LIG    1       -0.133   1.617  -4.039  0.00  0.00    +0.163 A 
ATOM      5  N   LIG    1       -0.356   1.141  -2.827  0.00  0.00    -0.224 NA
ENDROOT
BRANCH   1   8
ATOM      6  C   LIG    1       -0.849   1.506  -0.060  0.00  0.00    +0.067 C 
ATOM      7  C   LIG    1       -0.849  -0.001  -0.067  0.00  0.00    +0.057 A 
ATOM      8  C   LIG    1       -0.640  -0.684  -1.234  0.00  0.00    +0.062 A 
ATOM      9  S   LIG    1       -0.746  -2.371  -0.651  0.00  0.00    -0.051 S 
ATOM     10  C   LIG    1       -1.053  -1.992   1.069  0.00  0.00    +0.156 A 
ATOM     11  N   LIG    1       -1.043  -0.669   1.050  0.00  0.00    -0.230 NA
BRANCH  10  12
ATOM     12  N   LIG    1       -1.245  -2.853   2.137  0.00  0.00    -0.338 N 
ATOM     13  H   LIG    1       -1.403  -2.496   3.025  0.00  0.00    +0.144 HD
ATOM     14  H   LIG    1       -1.220  -3.812   1.997  0.00  0.00    +0.144 HD
ENDBRANCH  10  12
ENDBRANCH   1   8
BRANCH   4  15
ATOM     15  N   LIG    1       -0.052   2.934  -4.462  0.00  0.00    -0.291 N 
ATOM     16  H   LIG    1       -0.060   3.654  -3.812  0.00  0.00    +0.154 HD
BRANCH  15  17
ATOM     17  C   LIG    1        0.041   3.226  -5.828  0.00  0.00    +0.075 A 
ATOM     18  C   LIG    1       -0.548   2.385  -6.761  0.00  0.00    +0.027 A 
ATOM     19  C   LIG    1       -0.455   2.675  -8.109  0.00  0.00    +0.002 A 
ATOM     20  C   LIG    1        0.225   3.802  -8.531  0.00  0.00    +0.004 A 
ATOM     21  C   LIG    1        0.815   4.645  -7.608  0.00  0.00    +0.047 A 
ATOM     22  C   LIG    1        0.721   4.365  -6.255  0.00  0.00    +0.141 A 
BRANCH  22  23
ATOM     23  O   LIG    1        1.295   5.196  -5.345  0.00  0.00    -0.493 OA
ATOM     24  C   LIG    1        1.976   6.345  -5.854  0.00  0.00    +0.277 C 
ENDBRANCH  22  23
ENDBRANCH  15  17
ENDBRANCH   4  15
TORSDOF 5
