REMARK  Name = ZINC04475051
REMARK                            x       y       z     vdW  Elec       q    Type
REMARK                         _______ _______ _______ _____ _____    ______ ____
ROOT
ATOM      1  C   LIG    1       -3.039  -1.512  -1.257  0.00  0.00    +0.149 A 
ATOM      2  C   LIG    1       -1.715  -1.335  -1.049  0.00  0.00    +0.057 A 
ATOM      3  C   LIG    1       -1.583   0.064  -0.849  0.00  0.00    +0.259 A 
ATOM      4  N   LIG    1       -2.785   0.563  -0.960  0.00  0.00    -0.040 NA
ATOM      5  O   LIG    1       -3.604  -0.298  -1.186  0.00  0.00    -0.355 OA
ENDROOT
BRANCH   1   7
ATOM      6  C   LIG    1       -3.661  -3.704  -0.278  0.00  0.00    +0.019 C 
ATOM      7  C   LIG    1       -3.743  -2.818  -1.523  0.00  0.00    +0.023 C 
ATOM      8  C   LIG    1       -3.071  -3.529  -2.700  0.00  0.00    +0.019 C 
ATOM      9  C   LIG    1       -5.210  -2.548  -1.861  0.00  0.00    +0.019 C 
ENDBRANCH   1   7
BRANCH   2  10
ATOM     10  C   LIG    1       -0.630  -2.381  -1.031  0.00  0.00    +0.039 C 
BRANCH  10  11
ATOM     11  CA  LIG    1        0.028  -2.458  -2.411  0.00  0.00    +0.040 C 
BRANCH  11  12
ATOM     12  N   LIG    1        0.708  -1.189  -2.728  0.00  0.00    +0.387 N 
ATOM     13  H1  LIG    1        1.193  -1.282  -3.628  0.00  0.00    -0.089 HD
ATOM     14  H2  LIG    1        1.390  -0.969  -2.004  0.00  0.00    -0.089 HD
ATOM     15  H3  LIG    1        0.027  -0.435  -2.793  0.00  0.00    -0.089 HD
ENDBRANCH  11  12
BRANCH  11  16
ATOM     16  C   LIG    1        1.042  -3.573  -2.423  0.00  0.00    +0.290 C 
ATOM     17  O   LIG    1        2.216  -3.323  -2.290  0.00  0.00    -0.253 OA
BRANCH  16  18
ATOM     18  OXT LIG    1        0.640  -4.843  -2.581  0.00  0.00    -0.482 OA
ATOM     19  HXT LIG    1       -0.271  -5.037  -2.684  0.00  0.00    +0.295 HD
ENDBRANCH  16  18
ENDBRANCH  11  16
ENDBRANCH  10  11
ENDBRANCH   2  10
BRANCH   3  20
ATOM     20  O   LIG    1       -0.438   0.747  -0.599  0.00  0.00    -0.462 OA
BRANCH  20  21
ATOM     21  C   LIG    1       -0.549   2.162  -0.437  0.00  0.00    +0.357 C 
BRANCH  21  22
ATOM     22  P   LIG    1       -1.269   2.533   1.196  0.00  0.00    +0.365 P 
ATOM     23  O   LIG    1       -2.612   1.919   1.294  0.00  0.00    -0.255 OA
BRANCH  22  24
ATOM     24  O   LIG    1       -1.394   4.128   1.378  0.00  0.00    -0.322 OA
ATOM     25  H   LIG    1       -1.966   4.489   0.683  0.00  0.00    +0.220 HD
ENDBRANCH  22  24
BRANCH  22  26
ATOM     26  O   LIG    1       -0.320   1.933   2.350  0.00  0.00    -0.322 OA
ATOM     27  H   LIG    1       -0.245   0.973   2.240  0.00  0.00    +0.220 HD
ENDBRANCH  22  26
ENDBRANCH  21  22
ENDBRANCH  20  21
ENDBRANCH   3  20
TORSDOF 11
