REMARK  Name = ZINC04654970
REMARK                            x       y       z     vdW  Elec       q    Type
REMARK                         _______ _______ _______ _____ _____    ______ ____
ROOT
ATOM      1  C   LIG    1       -0.234   3.782  10.652  0.00  0.00    -0.027 C 
ATOM      2  C   LIG    1       -1.110   3.180   9.886  0.00  0.00    -0.031 C 
ENDROOT
BRANCH   1   3
ATOM      3  C   LIG    1        0.019   5.259  10.491  0.00  0.00    +0.053 C 
BRANCH   3   5
ATOM      4  C   LIG    1        0.798   6.722  12.284  0.00  0.00    -0.027 C 
ATOM      5  C   LIG    1       -0.150   5.946  11.822  0.00  0.00    -0.027 C 
BRANCH   4   6
ATOM      6  C   LIG    1        1.984   7.060  11.417  0.00  0.00    +0.053 C 
BRANCH   6   8
ATOM      7  C   LIG    1        3.299   9.105  11.647  0.00  0.00    -0.027 C 
ATOM      8  C   LIG    1        2.146   8.557  11.350  0.00  0.00    -0.027 C 
BRANCH   7   9
ATOM      9  C   LIG    1        4.507   8.237  11.883  0.00  0.00    +0.053 C 
BRANCH   9  11
ATOM     10  C   LIG    1        6.804   8.984  11.525  0.00  0.00    -0.031 C 
ATOM     11  C   LIG    1        5.638   8.698  11.001  0.00  0.00    -0.027 C 
BRANCH  10  12
ATOM     12  C   LIG    1        7.066   8.696  12.981  0.00  0.00    +0.027 C 
BRANCH  12  13
ATOM     13  C   LIG    1        8.350   7.875  13.116  0.00  0.00    +0.004 C 
BRANCH  13  14
ATOM     14  C   LIG    1        8.616   7.582  14.594  0.00  0.00    +0.000 C 
BRANCH  14  16
ATOM     15  C   LIG    1       10.165   6.469  16.206  0.00  0.00    +0.004 C 
ATOM     16  C   LIG    1        9.900   6.761  14.729  0.00  0.00    -0.003 C 
ENDBRANCH  14  16
ENDBRANCH  13  14
ENDBRANCH  12  13
ENDBRANCH  10  12
ENDBRANCH   9  11
ENDBRANCH   7   9
ENDBRANCH   6   8
ENDBRANCH   4   6
ENDBRANCH   3   5
ENDBRANCH   1   3
BRANCH   2  17
ATOM     17  C   LIG    1       -1.742   3.923   8.737  0.00  0.00    +0.027 C 
BRANCH  17  18
ATOM     18  C   LIG    1       -1.579   3.109   7.452  0.00  0.00    +0.015 C 
BRANCH  18  19
ATOM     19  C   LIG    1       -2.221   3.863   6.286  0.00  0.00    +0.121 C 
BRANCH  19  20
ATOM     20  C   LIG    1       -2.061   3.061   5.020  0.00  0.00    +0.307 C 
ATOM     21  O   LIG    1       -1.492   1.996   5.048  0.00  0.00    -0.251 OA
BRANCH  20  22
ATOM     22  O   LIG    1       -2.551   3.531   3.862  0.00  0.00    -0.462 OA
BRANCH  22  23
ATOM     23  C   LIG    1       -2.360   2.705   2.683  0.00  0.00    +0.265 C 
BRANCH  23  24
ATOM     24  C   LIG    1       -2.980   3.399   1.468  0.00  0.00    +0.177 C 
BRANCH  24  25
ATOM     25  O   LIG    1       -4.396   3.489   1.642  0.00  0.00    -0.386 OA
ATOM     26  H   LIG    1       -4.835   2.633   1.737  0.00  0.00    +0.210 HD
ENDBRANCH  24  25
BRANCH  24  27
ATOM     27  C   LIG    1       -2.672   2.591   0.206  0.00  0.00    +0.190 C 
BRANCH  27  28
ATOM     28  O   LIG    1       -3.149   3.297  -0.941  0.00  0.00    -0.392 OA
ATOM     29  H   LIG    1       -2.988   2.842  -1.778  0.00  0.00    +0.210 HD
ENDBRANCH  27  28
ENDBRANCH  24  27
ENDBRANCH  23  24
ENDBRANCH  22  23
ENDBRANCH  20  22
ENDBRANCH  19  20
ENDBRANCH  18  19
ENDBRANCH  17  18
ENDBRANCH   2  17
TORSDOF 20
