REMARK  Name = ZINC04097407
REMARK                            x       y       z     vdW  Elec       q    Type
REMARK                         _______ _______ _______ _____ _____    ______ ____
ROOT
ATOM      1  C   LIG    1       -1.012   3.951   2.167  0.00  0.00    -0.040 A 
ATOM      2  C   LIG    1       -1.143   2.991   1.183  0.00  0.00    +0.049 A 
ATOM      3  C   LIG    1       -0.153   2.034   1.010  0.00  0.00    +0.124 A 
ATOM      4  C   LIG    1        0.974   2.049   1.817  0.00  0.00    +0.043 A 
ATOM      5  C   LIG    1        1.106   3.018   2.801  0.00  0.00    +0.124 A 
ATOM      6  C   LIG    1        0.110   3.969   2.974  0.00  0.00    +0.049 A 
ENDROOT
BRANCH   4   7
ATOM      7  C   LIG    1        2.053   1.014   1.628  0.00  0.00    +0.056 C 
ATOM      8  C   LIG    1        3.355   1.553   2.144  0.00  0.00    -0.019 C 
ATOM      9  C   LIG    1        3.883   1.212   3.276  0.00  0.00    -0.076 C 
ATOM     10  C   LIG    1        5.193   1.847   3.665  0.00  0.00    +0.039 C 
ATOM     11  C   LIG    1        3.271   0.223   4.225  0.00  0.00    +0.031 C 
ATOM     12  C   LIG    1        1.793   0.014   3.889  0.00  0.00    +0.013 C 
ATOM     13  C   LIG    1        1.674  -0.259   2.387  0.00  0.00    +0.026 C 
BRANCH  13  14
ATOM     14  C   LIG    1        0.254  -0.642   2.057  0.00  0.00    -0.076 C 
ATOM     15  C   LIG    1       -0.022  -1.879   1.242  0.00  0.00    +0.039 C 
ATOM     16  C   LIG    1       -0.739   0.100   2.479  0.00  0.00    +0.007 C 
ENDBRANCH  13  14
ENDBRANCH   4   7
BRANCH   3  17
ATOM     17  O   LIG    1       -0.285   1.086   0.045  0.00  0.00    -0.506 OA
ATOM     18  H   LIG    1       -0.206   0.179   0.371  0.00  0.00    +0.292 HD
ENDBRANCH   3  17
BRANCH   5  19
ATOM     19  O   LIG    1        2.209   3.035   3.594  0.00  0.00    -0.506 OA
ATOM     20  H   LIG    1        2.935   3.571   3.246  0.00  0.00    +0.292 HD
ENDBRANCH   5  19
BRANCH   1  21
ATOM     21  C   LIG    1       -2.091   4.986   2.357  0.00  0.00    +0.035 C 
BRANCH  21  22
ATOM     22  C   LIG    1       -1.792   6.202   1.479  0.00  0.00    +0.005 C 
BRANCH  22  23
ATOM     23  C   LIG    1       -2.888   7.253   1.672  0.00  0.00    +0.000 C 
BRANCH  23  25
ATOM     24  C   LIG    1       -3.684   9.519   0.987  0.00  0.00    +0.004 C 
ATOM     25  C   LIG    1       -2.588   8.469   0.794  0.00  0.00    -0.003 C 
ENDBRANCH  23  25
ENDBRANCH  22  23
ENDBRANCH  21  22
ENDBRANCH   1  21
TORSDOF 8
