REMARK  Name = ZINC04318026
REMARK                            x       y       z     vdW  Elec       q    Type
REMARK                         _______ _______ _______ _____ _____    ______ ____
ROOT
ATOM      1  C   LIG    1       -2.519   1.379   5.462  0.00  0.00    +0.200 A 
ATOM      2  N   LIG    1       -2.160   0.421   4.566  0.00  0.00    -0.320 N 
ATOM      3  C   LIG    1       -1.042   0.900   3.895  0.00  0.00    +0.150 A 
ATOM      4  C   LIG    1       -0.772   2.155   4.431  0.00  0.00    +0.170 A 
ATOM      5  N   LIG    1        0.307   2.872   3.939  0.00  0.00    -0.280 N 
ATOM      6  C   LIG    1        0.616   4.196   4.486  0.00  0.00    +0.155 C 
ATOM      7  C   LIG    1        1.076   2.350   2.965  0.00  0.00    +0.333 A 
ATOM      8  N   LIG    1        0.820   1.141   2.437  0.00  0.00    -0.262 N 
ATOM      9  C   LIG    1        1.684   0.621   1.374  0.00  0.00    +0.157 C 
ATOM     10  O   LIG    1        2.022   2.991   2.549  0.00  0.00    -0.246 OA
ATOM     11  C   LIG    1       -0.217   0.397   2.874  0.00  0.00    +0.282 A 
ATOM     12  O   LIG    1       -0.435  -0.700   2.390  0.00  0.00    -0.265 OA
ATOM     13  H   LIG    1       -2.613  -0.458   4.418  0.00  0.00    +0.169 HD
ATOM     14  N   LIG    1       -1.688   2.397   5.370  0.00  0.00    -0.196 NA
ENDROOT
BRANCH   1  15
ATOM     15  N   LIG    1       -3.584   1.296   6.331  0.00  0.00    -0.285 N 
ATOM     16  H   LIG    1       -4.099   0.477   6.390  0.00  0.00    +0.155 HD
BRANCH  15  22
ATOM     17  C   LIG    1       -5.471   3.072  10.508  0.00  0.00    +0.044 C 
ATOM     18  C   LIG    1       -4.839   3.285   9.156  0.00  0.00    -0.049 A 
ATOM     19  C   LIG    1       -4.596   4.568   8.701  0.00  0.00    +0.003 A 
ATOM     20  C   LIG    1       -4.017   4.767   7.462  0.00  0.00    +0.002 A 
ATOM     21  C   LIG    1       -3.680   3.685   6.673  0.00  0.00    +0.023 A 
ATOM     22  C   LIG    1       -3.923   2.395   7.127  0.00  0.00    +0.034 A 
ATOM     23  C   LIG    1       -4.509   2.198   8.371  0.00  0.00    +0.026 A 
ENDBRANCH  15  22
ENDBRANCH   1  15
TORSDOF 2
