REMARK  Name = ZINC04456012
REMARK                            x       y       z     vdW  Elec       q    Type
REMARK                         _______ _______ _______ _____ _____    ______ ____
ROOT
ATOM      1  C   LIG    1        4.960   0.161  -0.046  0.00  0.00    +0.105 C 
ATOM      2  C   LIG    1        5.356   0.505  -1.471  0.00  0.00    +0.029 C 
ATOM      3  C   LIG    1        4.462   1.498  -2.225  0.00  0.00    +0.033 C 
ATOM      4  C   LIG    1        5.464   2.149  -3.181  0.00  0.00    -0.030 C 
ATOM      5  C   LIG    1        6.689   2.076  -2.673  0.00  0.00    -0.023 C 
ATOM      6  C   LIG    1        6.631   1.391  -1.346  0.00  0.00    +0.049 C 
ATOM      7  C   LIG    1        7.725   0.540  -0.830  0.00  0.00    -0.018 A 
ATOM      8  C   LIG    1        9.036   0.702  -1.223  0.00  0.00    +0.034 A 
ATOM      9  C   LIG    1       10.026  -0.110  -0.701  0.00  0.00    +0.105 A 
ATOM     10  C   LIG    1        9.702  -1.090   0.220  0.00  0.00    +0.030 A 
ATOM     11  C   LIG    1        8.392  -1.263   0.616  0.00  0.00    +0.025 A 
ATOM     12  C   LIG    1        7.388  -0.457   0.092  0.00  0.00    +0.031 A 
ATOM     13  N   LIG    1        6.060  -0.673   0.485  0.00  0.00    -0.336 N 
ATOM     14  H   LIG    1        5.859  -1.384   1.114  0.00  0.00    +0.147 HD
ENDROOT
BRANCH   1  23
ATOM     15  C   LIG    1       -0.007   1.345   0.306  0.00  0.00    +0.001 A 
ATOM     16  C   LIG    1        1.178   2.079   0.300  0.00  0.00    +0.001 A 
ATOM     17  C   LIG    1        2.385   1.460   0.189  0.00  0.00    +0.009 A 
ATOM     18  C   LIG    1        2.441   0.060   0.079  0.00  0.00    -0.013 A 
ATOM     19  C   LIG    1        1.236  -0.687   0.086  0.00  0.00    -0.018 A 
ATOM     20  C   LIG    1        1.292  -2.086  -0.024  0.00  0.00    +0.008 A 
ATOM     21  C   LIG    1        2.499  -2.705  -0.135  0.00  0.00    +0.001 A 
ATOM     22  C   LIG    1        3.684  -1.972  -0.141  0.00  0.00    +0.006 A 
ATOM     23  C   LIG    1        3.668  -0.615  -0.037  0.00  0.00    -0.019 A 
ATOM     24  C   LIG    1        0.008  -0.012   0.201  0.00  0.00    +0.008 A 
ENDBRANCH   1  23
BRANCH   9  25
ATOM     25  S   LIG    1       11.699   0.102  -1.210  0.00  0.00    +0.056 S 
ATOM     26  O   LIG    1       11.659   0.723  -2.488  0.00  0.00    -0.153 OA
ATOM     27  O   LIG    1       12.352  -1.140  -0.987  0.00  0.00    -0.153 OA
BRANCH  25  28
ATOM     28  N   LIG    1       12.392   1.193  -0.175  0.00  0.00    -0.204 NA
ATOM     29  H   LIG    1       13.321   1.447  -0.288  0.00  0.00    +0.144 HD
ATOM     30  H   LIG    1       11.868   1.578   0.545  0.00  0.00    +0.144 HD
ENDBRANCH  25  28
ENDBRANCH   9  25
TORSDOF 3
