REMARK  Name = ZINC04809416
REMARK                            x       y       z     vdW  Elec       q    Type
REMARK                         _______ _______ _______ _____ _____    ______ ____
ROOT
ATOM      1  C   LIG    1       -1.204   3.066  -0.028  0.00  0.00    +0.025 A 
ATOM      2  C   LIG    1       -2.393   3.768   0.007  0.00  0.00    +0.023 A 
ATOM      3  C   LIG    1       -3.594   3.092   0.131  0.00  0.00    +0.059 A 
ATOM      4 CL   LIG    1       -5.086   3.978   0.181  0.00  0.00    -0.082 Cl
ATOM      5  C   LIG    1       -3.607   1.709   0.213  0.00  0.00    +0.061 A 
ATOM      6 CL   LIG    1       -5.116   0.864   0.368  0.00  0.00    -0.082 Cl
ATOM      7  C   LIG    1       -2.421   1.002   0.172  0.00  0.00    +0.044 A 
ATOM      8  C   LIG    1       -1.215   1.679   0.049  0.00  0.00    +0.036 A 
ENDROOT
BRANCH   8   9
ATOM      9  N   LIG    1       -0.011   0.966   0.007  0.00  0.00    -0.268 N 
ATOM     10  H   LIG    1        0.786   1.335   0.418  0.00  0.00    +0.156 HD
ATOM     11  C   LIG    1        0.039  -0.237  -0.599  0.00  0.00    +0.327 C 
ATOM     12  N   LIG    1        1.215  -0.884  -0.715  0.00  0.00    -0.181 N 
ATOM     13  H   LIG    1        2.026  -0.485  -0.363  0.00  0.00    +0.184 HD
ATOM     14  O   LIG    1       -0.977  -0.738  -1.040  0.00  0.00    -0.250 OA
BRANCH  12  15
ATOM     15  O   LIG    1        1.268  -2.148  -1.352  0.00  0.00    -0.294 OA
ATOM     16  H   LIG    1        2.154  -2.534  -1.388  0.00  0.00    +0.241 HD
ENDBRANCH  12  15
ENDBRANCH   8   9
TORSDOF 2
