REMARK  Name = ZINC04340269
REMARK                            x       y       z     vdW  Elec       q    Type
REMARK                         _______ _______ _______ _____ _____    ______ ____
ROOT
ATOM      1  C   LIG    1        0.054   1.309   0.051  0.00  0.00    +0.186 A 
ATOM      2  C   LIG    1        1.238   2.058  -0.036  0.00  0.00    +0.151 A 
ATOM      3  N   LIG    1        2.413   1.450   0.070  0.00  0.00    -0.213 NA
ATOM      4  C   LIG    1        2.464   0.137   0.258  0.00  0.00    +0.156 A 
ATOM      5  C   LIG    1        1.282  -0.606   0.344  0.00  0.00    +0.170 A 
ATOM      6 CL   LIG    1        1.355  -2.323   0.590  0.00  0.00    -0.058 Cl
ATOM      7  N   LIG    1        0.114  -0.008   0.240  0.00  0.00    -0.222 NA
ENDROOT
BRANCH   2   8
ATOM      8  N   LIG    1        1.180   3.427  -0.232  0.00  0.00    -0.341 N 
ATOM      9  H   LIG    1        1.997   3.932  -0.370  0.00  0.00    +0.144 HD
ATOM     10  H   LIG    1        0.324   3.881  -0.232  0.00  0.00    +0.144 HD
ENDBRANCH   2   8
BRANCH   4  11
ATOM     11  N   LIG    1        3.690  -0.498   0.368  0.00  0.00    -0.341 N 
ATOM     12  H   LIG    1        3.728  -1.458   0.505  0.00  0.00    +0.144 HD
ATOM     13  H   LIG    1        4.510   0.017   0.308  0.00  0.00    +0.144 HD
ENDBRANCH   4  11
BRANCH   1  14
ATOM     14  C   LIG    1       -1.256   1.981  -0.060  0.00  0.00    +0.362 C 
ATOM     15  O   LIG    1       -1.314   3.197  -0.123  0.00  0.00    -0.247 OA
BRANCH  14  16
ATOM     16  N   LIG    1       -2.382   1.254  -0.092  0.00  0.00    +0.002 NA
ATOM     17  C   LIG    1       -3.365   1.518   0.755  0.00  0.00    +0.375 C 
BRANCH  17  18
ATOM     18  N   LIG    1       -4.553   0.857   0.648  0.00  0.00    -0.291 N 
ATOM     19  H   LIG    1       -5.273   1.051   1.269  0.00  0.00    +0.254 HD
ATOM     20  H   LIG    1       -4.679   0.194  -0.048  0.00  0.00    +0.254 HD
ENDBRANCH  17  18
BRANCH  17  21
ATOM     21  N   LIG    1       -3.189   2.451   1.734  0.00  0.00    -0.291 N 
ATOM     22  H   LIG    1       -3.882   2.595   2.398  0.00  0.00    +0.254 HD
ATOM     23  H   LIG    1       -2.371   2.971   1.767  0.00  0.00    +0.254 HD
ENDBRANCH  17  21
ENDBRANCH  14  16
ENDBRANCH   1  14
TORSDOF 6
