REMARK  Name = ZINC04098976
REMARK                            x       y       z     vdW  Elec       q    Type
REMARK                         _______ _______ _______ _____ _____    ______ ____
ROOT
ATOM      1  N   LIG    1       11.841  -5.330  -0.140  0.00  0.00    +0.379 N 
ATOM      2  H   LIG    1       11.903  -5.924   0.695  0.00  0.00    -0.086 HD
ATOM      3  H   LIG    1       11.887  -5.915  -0.982  0.00  0.00    -0.086 HD
ENDROOT
BRANCH   1   4
ATOM      4  C   LIG    1       12.969  -4.379  -0.145  0.00  0.00    -0.083 C 
BRANCH   4   5
ATOM      5  C   LIG    1       14.284  -5.161  -0.162  0.00  0.00    -0.019 C 
BRANCH   5   6
ATOM      6  C   LIG    1       15.459  -4.182  -0.168  0.00  0.00    -0.002 C 
BRANCH   6   7
ATOM      7  C   LIG    1       16.774  -4.965  -0.185  0.00  0.00    -0.000 C 
BRANCH   7   8
ATOM      8  C   LIG    1       17.950  -3.986  -0.191  0.00  0.00    +0.000 C 
BRANCH   8   9
ATOM      9  C   LIG    1       19.265  -4.768  -0.208  0.00  0.00    +0.003 C 
BRANCH   9  10
ATOM     10  C   LIG    1       20.441  -3.789  -0.214  0.00  0.00    +0.037 C 
BRANCH  10  11
ATOM     11  C   LIG    1       21.755  -4.571  -0.230  0.00  0.00    +0.195 C 
BRANCH  11  12
ATOM     12  N   LIG    1       22.881  -3.634  -0.236  0.00  0.00    -0.279 N 
ATOM     13  H   LIG    1       22.716  -2.678  -0.229  0.00  0.00    +0.258 HD
BRANCH  12  14
ATOM     14  C   LIG    1       24.171  -4.109  -0.251  0.00  0.00    +0.341 C 
ATOM     15  N   LIG    1       24.329  -5.425  -0.260  0.00  0.00    -0.292 N 
ATOM     16  H   LIG    1       23.507  -6.040  -0.255  0.00  0.00    +0.255 HD
ATOM     17  H   LIG    1       25.267  -5.826  -0.271  0.00  0.00    +0.255 HD
BRANCH  14  18
ATOM     18  N   LIG    1       25.228  -3.229  -0.256  0.00  0.00    -0.292 N 
ATOM     19  H   LIG    1       26.138  -3.564  -0.267  0.00  0.00    +0.255 HD
ATOM     20  H   LIG    1       25.063  -2.273  -0.250  0.00  0.00    +0.255 HD
ENDBRANCH  14  18
ENDBRANCH  12  14
ENDBRANCH  11  12
ENDBRANCH  10  11
ENDBRANCH   9  10
ENDBRANCH   8   9
ENDBRANCH   7   8
ENDBRANCH   6   7
ENDBRANCH   5   6
ENDBRANCH   4   5
ENDBRANCH   1   4
BRANCH   1  21
ATOM     21  C   LIG    1       10.558  -4.602  -0.123  0.00  0.00    -0.083 C 
BRANCH  21  22
ATOM     22  C   LIG    1        9.409  -5.612  -0.118  0.00  0.00    -0.019 C 
BRANCH  22  23
ATOM     23  C   LIG    1        8.073  -4.865  -0.101  0.00  0.00    -0.002 C 
BRANCH  23  24
ATOM     24  C   LIG    1        6.924  -5.875  -0.096  0.00  0.00    -0.000 C 
BRANCH  24  25
ATOM     25  C   LIG    1        5.589  -5.128  -0.079  0.00  0.00    +0.000 C 
BRANCH  25  26
ATOM     26  C   LIG    1        4.439  -6.138  -0.073  0.00  0.00    +0.003 C 
BRANCH  26  27
ATOM     27  C   LIG    1        3.104  -5.391  -0.057  0.00  0.00    +0.037 C 
BRANCH  27  28
ATOM     28  C   LIG    1        1.955  -6.401  -0.051  0.00  0.00    +0.195 C 
BRANCH  28  29
ATOM     29  N   LIG    1        0.676  -5.686  -0.035  0.00  0.00    -0.279 N 
ATOM     30  H   LIG    1        0.663  -4.716  -0.029  0.00  0.00    +0.258 HD
BRANCH  29  31
ATOM     31  C   LIG    1       -0.504  -6.389  -0.027  0.00  0.00    +0.341 C 
ATOM     32  N   LIG    1       -0.419  -7.712  -0.035  0.00  0.00    -0.292 N 
ATOM     33  H   LIG    1        0.502  -8.166  -0.046  0.00  0.00    +0.255 HD
ATOM     34  H   LIG    1       -1.267  -8.278  -0.030  0.00  0.00    +0.255 HD
BRANCH  31  35
ATOM     35  N   LIG    1       -1.704  -5.718  -0.018  0.00  0.00    -0.292 N 
ATOM     36  H   LIG    1       -1.718  -4.748  -0.013  0.00  0.00    +0.255 HD
ATOM     37  H   LIG    1       -2.538  -6.215  -0.017  0.00  0.00    +0.255 HD
ENDBRANCH  31  35
ENDBRANCH  29  31
ENDBRANCH  28  29
ENDBRANCH  27  28
ENDBRANCH  26  27
ENDBRANCH  25  26
ENDBRANCH  24  25
ENDBRANCH  23  24
ENDBRANCH  22  23
ENDBRANCH  21  22
ENDBRANCH   1  21
TORSDOF 22
