REMARK  Name = ZINC04425504
REMARK                            x       y       z     vdW  Elec       q    Type
REMARK                         _______ _______ _______ _____ _____    ______ ____
ROOT
ATOM      1  C   LIG    1       -2.800  -2.432   0.236  0.00  0.00    +0.078 C 
ATOM      2  C   LIG    1       -2.984  -3.731  -0.085  0.00  0.00    +0.019 C 
ATOM      3  C   LIG    1       -1.789  -4.641  -0.209  0.00  0.00    +0.061 C 
ATOM      4  N   LIG    1       -4.235  -4.233  -0.298  0.00  0.00    -0.300 N 
ATOM      5  H   LIG    1       -4.318  -5.172  -0.526  0.00  0.00    +0.154 HD
ATOM      6  C   LIG    1       -5.354  -3.503  -0.209  0.00  0.00    +0.135 C 
ATOM      7  S   LIG    1       -6.862  -4.259  -0.502  0.00  0.00    -0.019 S 
ATOM      8  N   LIG    1       -5.332  -2.192   0.102  0.00  0.00    -0.315 N 
ATOM      9  H   LIG    1       -6.154  -1.681   0.160  0.00  0.00    +0.149 HD
ATOM     10  C   LIG    1       -4.029  -1.554   0.357  0.00  0.00    +0.141 C 
ENDROOT
BRANCH  10  11
ATOM     11  C   LIG    1       -3.880  -0.410  -0.612  0.00  0.00    -0.019 A 
ATOM     12  C   LIG    1       -4.170  -0.596  -1.952  0.00  0.00    +0.006 A 
ATOM     13  C   LIG    1       -4.034   0.452  -2.843  0.00  0.00    +0.004 A 
ATOM     14  C   LIG    1       -3.608   1.688  -2.398  0.00  0.00    +0.045 A 
ATOM     15  C   LIG    1       -3.316   1.878  -1.055  0.00  0.00    +0.117 A 
ATOM     16  C   LIG    1       -3.459   0.826  -0.161  0.00  0.00    +0.051 A 
BRANCH  15  17
ATOM     17  O   LIG    1       -2.897   3.093  -0.615  0.00  0.00    -0.507 OA
ATOM     18  H   LIG    1       -3.614   3.680  -0.338  0.00  0.00    +0.292 HD
ENDBRANCH  15  17
ENDBRANCH  10  11
BRANCH   1  19
ATOM     19  C   LIG    1       -1.504  -1.910   0.457  0.00  0.00    +0.339 C 
ATOM     20  O   LIG    1       -0.542  -2.655   0.472  0.00  0.00    -0.245 OA
BRANCH  19  21
ATOM     21  O   LIG    1       -1.335  -0.586   0.652  0.00  0.00    -0.462 OA
BRANCH  21  23
ATOM     22  C   LIG    1       -0.005   1.389   1.069  0.00  0.00    +0.048 C 
ATOM     23  C   LIG    1        0.002  -0.128   0.870  0.00  0.00    +0.229 C 
ENDBRANCH  21  23
ENDBRANCH  19  21
ENDBRANCH   1  19
TORSDOF 5
