REMARK  Name = ZINC04099013
REMARK                            x       y       z     vdW  Elec       q    Type
REMARK                         _______ _______ _______ _____ _____    ______ ____
ROOT
ATOM      1  C   LIG    1        0.731  -0.503   1.223  0.00  0.00    -0.031 A 
ATOM      2  C   LIG    1        2.124  -0.720   1.197  0.00  0.00    +0.007 A 
ATOM      3  C   LIG    1        2.876  -0.479   0.039  0.00  0.00    +0.055 A 
ATOM      4  C   LIG    1        4.225  -0.701   0.051  0.00  0.00    +0.118 A 
ATOM      5  C   LIG    1        4.862  -1.166   1.206  0.00  0.00    +0.047 A 
ATOM      6  C   LIG    1        4.160  -1.409   2.344  0.00  0.00    +0.032 A 
ATOM      7  C   LIG    1        2.769  -1.192   2.369  0.00  0.00    +0.072 A 
ATOM      8  N   LIG    1        2.061  -1.422   3.476  0.00  0.00    -0.245 NA
ATOM      9  C   LIG    1        0.754  -1.221   3.514  0.00  0.00    +0.093 A 
ATOM     10  C   LIG    1       -0.227  -1.402   4.609  0.00  0.00    +0.071 A 
ATOM     11  C   LIG    1       -0.046  -1.829   5.908  0.00  0.00    +0.035 A 
ATOM     12  C   LIG    1       -1.141  -1.928   6.775  0.00  0.00    +0.008 A 
ATOM     13  C   LIG    1       -2.384  -1.604   6.326  0.00  0.00    +0.061 A 
ATOM     14  C   LIG    1       -3.610  -1.725   7.191  0.00  0.00    +0.273 C 
ATOM     15  O   LIG    1       -3.250  -1.821   8.570  0.00  0.00    -0.457 OA
ATOM     16  C   LIG    1       -2.242  -2.681   8.838  0.00  0.00    +0.344 C 
ATOM     17  O   LIG    1       -2.400  -3.640   9.557  0.00  0.00    -0.247 OA
ATOM     18  C   LIG    1       -2.534  -1.134   5.005  0.00  0.00    +0.259 A 
ATOM     19  O   LIG    1       -3.641  -0.816   4.601  0.00  0.00    -0.267 OA
ATOM     20  C   LIG    1       -0.906  -2.385   8.193  0.00  0.00    +0.188 C 
ATOM     21  N   LIG    1       -1.475  -1.052   4.177  0.00  0.00    -0.302 N 
ATOM     22  C   LIG    1       -1.386  -0.632   2.772  0.00  0.00    +0.163 C 
ATOM     23  C   LIG    1        0.065  -0.752   2.381  0.00  0.00    +0.003 A 
ENDROOT
BRANCH   1  25
ATOM     24  C   LIG    1       -0.019   1.526   0.010  0.00  0.00    +0.009 C 
ATOM     25  C   LIG    1        0.002  -0.004   0.002  0.00  0.00    +0.033 C 
ENDBRANCH   1  25
BRANCH   4  26
ATOM     26  O   LIG    1        4.955  -0.467  -1.071  0.00  0.00    -0.507 OA
ATOM     27  H   LIG    1        5.301   0.434  -1.134  0.00  0.00    +0.292 HD
ENDBRANCH   4  26
BRANCH  20  28
ATOM     28  O   LIG    1       -0.104  -3.568   8.188  0.00  0.00    -0.373 OA
ATOM     29  H   LIG    1        0.086  -3.918   9.070  0.00  0.00    +0.211 HD
ENDBRANCH  20  28
BRANCH  20  30
ATOM     30  C   LIG    1       -0.193  -1.282   8.976  0.00  0.00    +0.048 C 
ATOM     31  C   LIG    1        0.044  -1.748  10.414  0.00  0.00    +0.007 C 
ENDBRANCH  20  30
TORSDOF 4
