REMARK  Name = ZINC04641406
REMARK                            x       y       z     vdW  Elec       q    Type
REMARK                         _______ _______ _______ _____ _____    ______ ____
ROOT
ATOM      1  C   LIG    1       -0.241   1.490   0.004  0.00  0.00    +0.065 C 
ATOM      2  C   LIG    1       -0.093  -0.009  -0.001  0.00  0.00    +0.041 A 
ATOM      3  C   LIG    1        0.060  -0.797  -1.102  0.00  0.00    +0.030 A 
ATOM      4  C   LIG    1        0.161  -2.139  -0.655  0.00  0.00    +0.104 A 
ATOM      5  N   LIG    1        0.070  -2.134   0.657  0.00  0.00    -0.173 NA
ATOM      6  N   LIG    1       -0.084  -0.810   1.085  0.00  0.00    -0.281 N 
ATOM      7  H   LIG    1       -0.171  -0.519   2.006  0.00  0.00    +0.189 HD
ENDROOT
BRANCH   3   8
ATOM      8  C   LIG    1        0.112  -0.335  -2.511  0.00  0.00    -0.014 A 
ATOM      9  C   LIG    1       -0.911  -0.673  -3.394  0.00  0.00    +0.012 A 
ATOM     10  C   LIG    1       -0.860  -0.242  -4.704  0.00  0.00    +0.046 A 
ATOM     11  C   LIG    1        0.209   0.528  -5.142  0.00  0.00    +0.120 A 
ATOM     12  C   LIG    1        1.230   0.866  -4.264  0.00  0.00    +0.046 A 
ATOM     13  C   LIG    1        1.181   0.443  -2.952  0.00  0.00    +0.012 A 
BRANCH  11  14
ATOM     14  O   LIG    1        0.256   0.951  -6.432  0.00  0.00    -0.495 OA
ATOM     15  C   LIG    1        1.385   1.739  -6.816  0.00  0.00    +0.277 C 
ENDBRANCH  11  14
ENDBRANCH   3   8
BRANCH   4  16
ATOM     16  C   LIG    1        0.338  -3.334  -1.514  0.00  0.00    +0.044 A 
ATOM     17  C   LIG    1        1.302  -3.335  -2.521  0.00  0.00    +0.017 A 
ATOM     18  C   LIG    1        1.465  -4.448  -3.318  0.00  0.00    +0.046 A 
ATOM     19  C   LIG    1        0.670  -5.570  -3.122  0.00  0.00    +0.120 A 
ATOM     20  C   LIG    1       -0.292  -5.577  -2.123  0.00  0.00    +0.091 A 
ATOM     21  C   LIG    1       -0.459  -4.466  -1.314  0.00  0.00    +0.130 A 
BRANCH  19  22
ATOM     22  O   LIG    1        0.835  -6.664  -3.911  0.00  0.00    -0.507 OA
ATOM     23  H   LIG    1        1.477  -7.302  -3.570  0.00  0.00    +0.292 HD
ENDBRANCH  19  22
BRANCH  21  24
ATOM     24  O   LIG    1       -1.396  -4.473  -0.331  0.00  0.00    -0.506 OA
ATOM     25  H   LIG    1       -2.265  -4.156  -0.613  0.00  0.00    +0.292 HD
ENDBRANCH  21  24
ENDBRANCH   4  16
TORSDOF 5
