REMARK  Name = ZINC04204789
REMARK                            x       y       z     vdW  Elec       q    Type
REMARK                         _______ _______ _______ _____ _____    ______ ____
ROOT
ATOM      1  C   LIG    1       -2.379   0.854  -0.074  0.00  0.00    -0.041 C 
ATOM      2  C   LIG    1       -3.496   1.829   0.291  0.00  0.00    -0.011 C 
ATOM      3  C   LIG    1       -3.399   3.045  -0.638  0.00  0.00    +0.003 C 
ATOM      4  C   LIG    1       -2.147   3.837  -0.266  0.00  0.00    +0.035 C 
ATOM      5  C   LIG    1       -0.944   2.932  -0.214  0.00  0.00    -0.046 A 
ATOM      6  C   LIG    1        0.312   3.523  -0.263  0.00  0.00    +0.004 A 
ATOM      7  C   LIG    1        1.453   2.749  -0.213  0.00  0.00    +0.000 A 
ATOM      8  C   LIG    1        1.346   1.375  -0.111  0.00  0.00    +0.000 A 
ATOM      9  C   LIG    1        0.099   0.786  -0.063  0.00  0.00    +0.002 A 
ATOM     10  C   LIG    1       -1.050   1.562  -0.122  0.00  0.00    -0.058 A 
ENDROOT
BRANCH   1  12
ATOM     11  C   LIG    1       -3.268  -1.294   0.602  0.00  0.00    -0.100 C 
ATOM     12  N   LIG    1       -2.317  -0.217   0.938  0.00  0.00    +0.382 N 
ATOM     13  H   LIG    1       -2.558   0.171   1.857  0.00  0.00    -0.085 HD
ATOM     14  H   LIG    1       -1.366  -0.602   0.967  0.00  0.00    -0.085 HD
ENDBRANCH   1  12
TORSDOF 1
