REMARK  Name = ZINC04528594
REMARK                            x       y       z     vdW  Elec       q    Type
REMARK                         _______ _______ _______ _____ _____    ______ ____
ROOT
ATOM      1  C   LIG    1       -0.018   1.490   0.010  0.00  0.00    +0.415 C 
ATOM      2  O   LIG    1       -1.076   2.082   0.018  0.00  0.00    -0.238 OA
ENDROOT
BRANCH   1   3
ATOM      3  O   LIG    1        1.138   2.179   0.003  0.00  0.00    -0.473 OA
ATOM      4  H   LIG    1        1.955   1.721  -0.004  0.00  0.00    +0.296 HD
ENDBRANCH   1   3
BRANCH   1   5
ATOM      5  C   LIG    1        0.002  -0.004   0.002  0.00  0.00    +0.415 C 
ATOM      6  O   LIG    1        1.060  -0.596  -0.011  0.00  0.00    -0.238 OA
BRANCH   5   7
ATOM      7  O   LIG    1       -1.154  -0.693   0.009  0.00  0.00    -0.473 OA
ATOM      8  H   LIG    1       -1.972  -0.235   0.020  0.00  0.00    +0.296 HD
ENDBRANCH   5   7
ENDBRANCH   1   5
TORSDOF 3
