REMARK  Name = ZINC04097426
REMARK                            x       y       z     vdW  Elec       q    Type
REMARK                         _______ _______ _______ _____ _____    ______ ____
ROOT
ATOM      1  C   LIG    1        0.058   1.433  -0.093  0.00  0.00    -0.044 C 
ATOM      2  C   LIG    1        1.460   2.018  -0.279  0.00  0.00    +0.129 C 
ATOM      3  C   LIG    1        2.097   1.414  -1.534  0.00  0.00    +0.168 C 
ATOM      4  C   LIG    1        2.118  -0.111  -1.400  0.00  0.00    +0.134 C 
ATOM      5  C   LIG    1        0.692  -0.618  -1.173  0.00  0.00    -0.011 C 
ATOM      6  N   LIG    1        0.148  -0.025   0.055  0.00  0.00    +0.388 N 
ATOM      7  H   LIG    1        0.754  -0.247   0.831  0.00  0.00    -0.081 HD
ENDROOT
BRANCH   2   8
ATOM      8  O   LIG    1        1.369   3.436  -0.424  0.00  0.00    -0.391 OA
ATOM      9  H   LIG    1        2.223   3.875  -0.545  0.00  0.00    +0.210 HD
ENDBRANCH   2   8
BRANCH   3  10
ATOM     10  O   LIG    1        3.433   1.901  -1.673  0.00  0.00    -0.387 OA
ATOM     11  H   LIG    1        3.495   2.863  -1.756  0.00  0.00    +0.210 HD
ENDBRANCH   3  10
BRANCH   4  12
ATOM     12  O   LIG    1        2.645  -0.688  -2.597  0.00  0.00    -0.391 OA
ATOM     13  H   LIG    1        3.547  -0.407  -2.804  0.00  0.00    +0.210 HD
ENDBRANCH   4  12
BRANCH   5  14
ATOM     14  C   LIG    1        0.708  -2.142  -1.039  0.00  0.00    +0.143 C 
BRANCH  14  15
ATOM     15  O   LIG    1        1.585  -2.517   0.025  0.00  0.00    -0.397 OA
ATOM     16  H   LIG    1        1.644  -3.471   0.168  0.00  0.00    +0.209 HD
ENDBRANCH  14  15
ENDBRANCH   5  14
BRANCH   6  17
ATOM     17  C   LIG    1       -1.191  -0.573   0.310  0.00  0.00    -0.050 C 
BRANCH  17  18
ATOM     18  C   LIG    1       -1.681  -0.103   1.681  0.00  0.00    +0.137 C 
BRANCH  18  19
ATOM     19  O   LIG    1       -1.953   1.299   1.635  0.00  0.00    -0.397 OA
ATOM     20  H   LIG    1       -2.269   1.666   2.471  0.00  0.00    +0.209 HD
ENDBRANCH  18  19
ENDBRANCH  17  18
ENDBRANCH   6  17
TORSDOF 8
