REMARK  Name = ZINC04098612
REMARK                            x       y       z     vdW  Elec       q    Type
REMARK                         _______ _______ _______ _____ _____    ______ ____
ROOT
ATOM      1  C   LIG    1       -1.348   0.994  -3.464  0.00  0.00    +0.344 C 
ATOM      2  C   LIG    1       -2.805   0.759  -3.094  0.00  0.00    +0.226 C 
ATOM      3  C   LIG    1       -3.248   1.599  -1.908  0.00  0.00    +0.242 C 
ATOM      4  C   LIG    1       -2.198   1.838  -0.880  0.00  0.00    +0.190 C 
ATOM      5  C   LIG    1       -0.771   1.645  -1.261  0.00  0.00    +0.192 C 
ATOM      6  C   LIG    1       -0.024   1.120  -0.009  0.00  0.00    +0.266 C 
ATOM      7  O   LIG    1       -0.697   1.574   1.186  0.00  0.00    -0.458 OA
ATOM      8  C   LIG    1       -1.635   0.813   1.788  0.00  0.00    +0.340 C 
ATOM      9  C   LIG    1       -2.487   1.440   2.816  0.00  0.00    +0.074 A 
ATOM     10  C   LIG    1       -1.885   2.469   3.563  0.00  0.00    +0.065 A 
ATOM     11  C   LIG    1       -2.574   3.106   4.573  0.00  0.00    +0.163 A 
ATOM     12  C   LIG    1       -3.893   2.744   4.842  0.00  0.00    +0.201 A 
ATOM     13  C   LIG    1       -4.510   1.752   4.103  0.00  0.00    +0.171 A 
ATOM     14  C   LIG    1       -3.807   1.060   3.083  0.00  0.00    +0.046 A 
ATOM     15  C   LIG    1       -4.599   0.032   2.390  0.00  0.00    +0.046 A 
ATOM     16  C   LIG    1       -4.877  -0.019   1.020  0.00  0.00    +0.074 A 
ATOM     17  C   LIG    1       -4.458   1.031   0.081  0.00  0.00    +0.340 C 
ATOM     18  O   LIG    1       -4.298   2.140   0.539  0.00  0.00    -0.245 OA
ATOM     19  C   LIG    1       -5.595  -1.100   0.483  0.00  0.00    +0.065 A 
ATOM     20  C   LIG    1       -6.040  -2.122   1.294  0.00  0.00    +0.163 A 
ATOM     21  C   LIG    1       -5.775  -2.083   2.661  0.00  0.00    +0.201 A 
ATOM     22  C   LIG    1       -5.064  -1.027   3.204  0.00  0.00    +0.171 A 
ATOM     23  O   LIG    1       -1.771  -0.363   1.494  0.00  0.00    -0.245 OA
ATOM     24  O   LIG    1       -4.264   0.777  -1.220  0.00  0.00    -0.452 OA
ATOM     25  O   LIG    1       -0.588   0.684  -2.291  0.00  0.00    -0.330 OA
ENDROOT
BRANCH   2  26
ATOM     26  O   LIG    1       -3.635   1.065  -4.219  0.00  0.00    -0.382 OA
ATOM     27  H   LIG    1       -3.414   0.567  -5.018  0.00  0.00    +0.210 HD
ENDBRANCH   2  26
BRANCH   4  28
ATOM     28  O   LIG    1       -2.326   3.196  -0.421  0.00  0.00    -0.385 OA
ATOM     29  H   LIG    1       -1.771   3.407   0.342  0.00  0.00    +0.210 HD
ENDBRANCH   4  28
BRANCH  11  30
ATOM     30  O   LIG    1       -1.970   4.080   5.303  0.00  0.00    -0.503 OA
ATOM     31  H   LIG    1       -2.078   4.969   4.938  0.00  0.00    +0.292 HD
ENDBRANCH  11  30
BRANCH  12  32
ATOM     32  O   LIG    1       -4.575   3.368   5.838  0.00  0.00    -0.501 OA
ATOM     33  H   LIG    1       -5.056   4.156   5.551  0.00  0.00    +0.292 HD
ENDBRANCH  12  32
BRANCH  13  34
ATOM     34  O   LIG    1       -5.815   1.460   4.344  0.00  0.00    -0.503 OA
ATOM     35  H   LIG    1       -5.950   0.824   5.059  0.00  0.00    +0.292 HD
ENDBRANCH  13  34
BRANCH  20  36
ATOM     36  O   LIG    1       -6.736  -3.162   0.762  0.00  0.00    -0.503 OA
ATOM     37  H   LIG    1       -7.693  -3.025   0.742  0.00  0.00    +0.292 HD
ENDBRANCH  20  36
BRANCH  21  38
ATOM     38  O   LIG    1       -6.215  -3.088   3.463  0.00  0.00    -0.501 OA
ATOM     39  H   LIG    1       -7.098  -2.941   3.830  0.00  0.00    +0.292 HD
ENDBRANCH  21  38
BRANCH  22  40
ATOM     40  O   LIG    1       -4.801  -1.021   4.539  0.00  0.00    -0.503 OA
ATOM     41  H   LIG    1       -4.015  -1.527   4.787  0.00  0.00    +0.292 HD
ENDBRANCH  22  40
BRANCH   1  42
ATOM     42  O   LIG    1       -0.957   0.115  -4.551  0.00  0.00    -0.429 OA
BRANCH  42  43
ATOM     43  C   LIG    1        0.281   0.281  -5.058  0.00  0.00    +0.342 C 
ATOM     44  O   LIG    1        1.013   1.138  -4.604  0.00  0.00    -0.245 OA
BRANCH  43  46
ATOM     45  C   LIG    1        2.030  -0.404  -6.691  0.00  0.00    +0.064 A 
ATOM     46  C   LIG    1        0.746  -0.576  -6.164  0.00  0.00    +0.066 A 
ATOM     47  C   LIG    1       -0.092  -1.565  -6.684  0.00  0.00    +0.064 A 
ATOM     48  C   LIG    1        0.345  -2.364  -7.724  0.00  0.00    +0.163 A 
ATOM     49  C   LIG    1        1.624  -2.190  -8.246  0.00  0.00    +0.201 A 
ATOM     50  C   LIG    1        2.464  -1.209  -7.727  0.00  0.00    +0.163 A 
BRANCH  48  51
ATOM     51  O   LIG    1       -0.473  -3.324  -8.233  0.00  0.00    -0.503 OA
ATOM     52  H   LIG    1       -0.392  -4.183  -7.796  0.00  0.00    +0.292 HD
ENDBRANCH  48  51
BRANCH  49  53
ATOM     53  O   LIG    1        2.053  -2.980  -9.265  0.00  0.00    -0.501 OA
ATOM     54  H   LIG    1        2.495  -3.790  -8.976  0.00  0.00    +0.292 HD
ENDBRANCH  49  53
BRANCH  50  55
ATOM     55  O   LIG    1        3.712  -1.042  -8.240  0.00  0.00    -0.503 OA
ATOM     56  H   LIG    1        4.391  -1.574  -7.804  0.00  0.00    +0.292 HD
ENDBRANCH  50  55
ENDBRANCH  43  46
ENDBRANCH  42  43
ENDBRANCH   1  42
TORSDOF 14
