REMARK  Name = ZINC04164588
REMARK                            x       y       z     vdW  Elec       q    Type
REMARK                         _______ _______ _______ _____ _____    ______ ____
ROOT
ATOM      1  C   LIG    1        2.854  -4.466   4.651  0.00  0.00    +0.182 C 
ATOM      2  C   LIG    1        1.944  -4.987   5.779  0.00  0.00    +0.038 C 
ATOM      3  C   LIG    1        0.554  -4.360   5.663  0.00  0.00    +0.012 C 
ATOM      4  C   LIG    1        1.852  -6.520   5.600  0.00  0.00    +0.012 C 
ATOM      5  C   LIG    1        2.186  -6.728   4.111  0.00  0.00    +0.006 C 
ATOM      6  C   LIG    1        2.584  -8.148   3.798  0.00  0.00    +0.034 C 
ATOM      7  C   LIG    1        2.719  -8.355   2.283  0.00  0.00    +0.011 C 
ATOM      8  C   LIG    1        2.688  -9.862   2.021  0.00  0.00    +0.032 C 
ATOM      9  C   LIG    1        3.645 -10.572   2.932  0.00  0.00    -0.053 C 
ATOM     10  C   LIG    1        3.931 -11.869   2.674  0.00  0.00    +0.051 C 
ATOM     11  C   LIG    1        4.846 -12.514   3.655  0.00  0.00    +0.179 C 
ATOM     12  C   LIG    1        4.578 -12.170   5.079  0.00  0.00    +0.047 C 
ATOM     13  C   LIG    1        4.288 -10.870   5.307  0.00  0.00    -0.009 C 
ATOM     14  O   LIG    1        5.742 -13.265   3.320  0.00  0.00    -0.288 OA
ATOM     15  C   LIG    1        4.261  -9.978   4.112  0.00  0.00    +0.044 C 
ATOM     16  C   LIG    1        5.742  -9.904   3.735  0.00  0.00    +0.023 C 
ATOM     17  C   LIG    1        3.879  -8.562   4.450  0.00  0.00    +0.153 C 
ATOM     18  F   LIG    1        3.724  -8.456   5.836  0.00  0.00    -0.238 F 
ATOM     19  C   LIG    1        4.977  -7.592   4.001  0.00  0.00    +0.154 C 
ATOM     20  C   LIG    1        4.621  -6.190   4.487  0.00  0.00    +0.045 C 
ATOM     21  C   LIG    1        3.313  -5.714   3.850  0.00  0.00    +0.021 C 
ATOM     22  C   LIG    1        3.473  -5.410   2.359  0.00  0.00    +0.016 C 
ENDROOT
BRANCH   1  23
ATOM     23  C   LIG    1        2.083  -3.531   3.755  0.00  0.00    +0.214 C 
ATOM     24  O   LIG    1        1.125  -3.936   3.141  0.00  0.00    -0.289 OA
BRANCH  23  25
ATOM     25  C   LIG    1        2.507  -2.091   3.626  0.00  0.00    +0.310 C 
BRANCH  25  26
ATOM     26  O   LIG    1        1.710  -1.447   2.630  0.00  0.00    -0.457 OA
BRANCH  26  27
ATOM     27  C   LIG    1        1.963  -0.150   2.392  0.00  0.00    +0.307 C 
ATOM     28  O   LIG    1        2.833   0.419   3.008  0.00  0.00    -0.251 OA
BRANCH  27  30
ATOM     29  C   LIG    1        1.649   2.044   1.281  0.00  0.00    +0.015 C 
ATOM     30  C   LIG    1        1.163   0.595   1.355  0.00  0.00    +0.117 C 
ENDBRANCH  27  30
ENDBRANCH  26  27
ENDBRANCH  25  26
ENDBRANCH  23  25
ENDBRANCH   1  23
BRANCH  19  31
ATOM     31  O   LIG    1        5.070  -7.595   2.575  0.00  0.00    -0.389 OA
ATOM     32  H   LIG    1        5.741  -6.994   2.223  0.00  0.00    +0.210 HD
ENDBRANCH  19  31
BRANCH   1  33
ATOM     33  O   LIG    1        3.987  -3.793   5.203  0.00  0.00    -0.449 OA
BRANCH  33  34
ATOM     34  C   LIG    1        3.741  -2.783   6.052  0.00  0.00    +0.308 C 
ATOM     35  O   LIG    1        2.608  -2.545   6.396  0.00  0.00    -0.251 OA
BRANCH  34  36
ATOM     36  C   LIG    1        4.880  -1.947   6.577  0.00  0.00    +0.117 C 
ATOM     37  C   LIG    1        4.331  -0.872   7.518  0.00  0.00    +0.015 C 
ENDBRANCH  34  36
ENDBRANCH  33  34
ENDBRANCH   1  33
TORSDOF 9
