REMARK  Name = ZINC04588415
REMARK                            x       y       z     vdW  Elec       q    Type
REMARK                         _______ _______ _______ _____ _____    ______ ____
ROOT
ATOM      1  C   LIG    1        2.749   5.589  -0.227  0.00  0.00    +0.232 C 
ATOM      2  N   LIG    1        2.397   4.337  -0.124  0.00  0.00    -0.205 NA
ATOM      3  C   LIG    1        3.517   3.558  -0.117  0.00  0.00    +0.152 C 
ATOM      4  C   LIG    1        4.649   4.496  -0.242  0.00  0.00    +0.364 C 
ATOM      5  O   LIG    1        5.834   4.224  -0.281  0.00  0.00    -0.243 OA
ATOM      6  C   LIG    1        3.578   2.185  -0.021  0.00  0.00    +0.044 C 
ATOM      7  O   LIG    1        4.087   5.723  -0.304  0.00  0.00    -0.402 OA
ENDROOT
BRANCH   1  12
ATOM      8  C   LIG    1        1.372   9.081  -0.412  0.00  0.00    +0.121 A 
ATOM      9  C   LIG    1        0.008   8.835  -0.328  0.00  0.00    +0.045 A 
ATOM     10  C   LIG    1       -0.461   7.539  -0.211  0.00  0.00    +0.004 A 
ATOM     11  C   LIG    1        0.424   6.481  -0.177  0.00  0.00    +0.013 A 
ATOM     12  C   LIG    1        1.798   6.718  -0.263  0.00  0.00    +0.040 A 
ATOM     13  C   LIG    1        2.269   8.028  -0.375  0.00  0.00    +0.058 A 
BRANCH   8  15
ATOM     14  C   LIG    1        0.844  11.395  -0.554  0.00  0.00    +0.277 C 
ATOM     15  O   LIG    1        1.826  10.357  -0.527  0.00  0.00    -0.495 OA
ENDBRANCH   8  15
ENDBRANCH   1  12
BRANCH   6  16
ATOM     16  C   LIG    1        2.342   1.395  -0.015  0.00  0.00    -0.005 A 
ATOM     17  C   LIG    1        1.088   2.028   0.016  0.00  0.00    +0.011 A 
ATOM     18  C   LIG    1       -0.045   1.236   0.020  0.00  0.00    +0.020 A 
ATOM     19  C   LIG    1        0.090  -0.141  -0.006  0.00  0.00    +0.111 A 
ATOM     20  N   LIG    1        1.280  -0.711  -0.036  0.00  0.00    -0.263 NA
ATOM     21  C   LIG    1        2.390  -0.005  -0.042  0.00  0.00    +0.118 A 
ENDBRANCH   6  16
TORSDOF 3
