REMARK  Name = ZINC04180759
REMARK                            x       y       z     vdW  Elec       q    Type
REMARK                         _______ _______ _______ _____ _____    ______ ____
ROOT
ATOM      1  C   LIG    1       -2.122   5.445  -3.517  0.00  0.00    +0.059 A 
ATOM      2  C   LIG    1       -1.527   4.811  -2.435  0.00  0.00    +0.048 A 
ATOM      3  C   LIG    1       -1.422   3.427  -2.419  0.00  0.00    +0.031 A 
ATOM      4  C   LIG    1       -1.907   2.682  -3.487  0.00  0.00    +0.025 A 
ATOM      5  C   LIG    1       -2.502   3.316  -4.560  0.00  0.00    +0.036 A 
ATOM      6  C   LIG    1       -2.610   4.694  -4.579  0.00  0.00    +0.142 A 
ENDROOT
BRANCH   3   7
ATOM      7  N   LIG    1       -0.823   2.785  -1.332  0.00  0.00    -0.333 N 
ATOM      8  C   LIG    1       -0.817   1.327  -1.521  0.00  0.00    +0.086 C 
ATOM      9  C   LIG    1       -0.084   0.667  -0.350  0.00  0.00    -0.060 C 
ATOM     10  N   LIG    1       -0.777   1.022   0.906  0.00  0.00    +0.380 N 
ATOM     11  H   LIG    1       -1.752   0.705   0.850  0.00  0.00    -0.082 HD
ATOM     12  C   LIG    1       -0.120   0.354   2.051  0.00  0.00    -0.096 C 
ATOM     13  C   LIG    1       -0.757   2.487   1.097  0.00  0.00    -0.060 C 
ATOM     14  C   LIG    1       -1.490   3.147  -0.074  0.00  0.00    +0.086 C 
ENDBRANCH   3   7
BRANCH   1  15
ATOM     15  N   LIG    1       -2.230   6.837  -3.538  0.00  0.00    -0.339 N 
ATOM     16  H   LIG    1       -2.569   7.286  -4.328  0.00  0.00    +0.146 HD
BRANCH  15  17
ATOM     17  C   LIG    1       -1.832   7.621  -2.366  0.00  0.00    +0.142 C 
BRANCH  17  18
ATOM     18  C   LIG    1       -2.048   9.109  -2.649  0.00  0.00    +0.247 C 
BRANCH  18  19
ATOM     19  O   LIG    1       -3.445   9.363  -2.816  0.00  0.00    -0.490 OA
BRANCH  19  26
ATOM     20  C   LIG    1       -6.200   9.888  -3.151  0.00  0.00    +0.047 C 
ATOM     21  C   LIG    1       -5.150  10.964  -3.250  0.00  0.00    -0.009 A 
ATOM     22  C   LIG    1       -5.520  12.269  -3.514  0.00  0.00    +0.007 A 
ATOM     23  C   LIG    1       -4.557  13.257  -3.605  0.00  0.00    +0.000 A 
ATOM     24  C   LIG    1       -3.221  12.942  -3.432  0.00  0.00    +0.004 A 
ATOM     25  C   LIG    1       -2.847  11.640  -3.162  0.00  0.00    +0.046 A 
ATOM     26  C   LIG    1       -3.811  10.646  -3.076  0.00  0.00    +0.123 A 
ENDBRANCH  19  26
ENDBRANCH  18  19
ENDBRANCH  17  18
ENDBRANCH  15  17
ENDBRANCH   1  15
BRANCH   6  27
ATOM     27  N   LIG    1       -3.244   5.369  -5.733  0.00  0.00    +0.008 N 
ATOM     28  O   LIG    1       -3.771   4.710  -6.611  0.00  0.00    -0.130 OA
BRANCH  27  29
ATOM     29  O   LIG    1       -3.240   6.585  -5.804  0.00  0.00    -0.396 OA
ATOM     30  H   LIG    1       -2.835   7.093  -5.129  0.00  0.00    +0.329 HD
ENDBRANCH  27  29
ENDBRANCH   6  27
TORSDOF 8
