REMARK  Name = ZINC04322084
REMARK                            x       y       z     vdW  Elec       q    Type
REMARK                         _______ _______ _______ _____ _____    ______ ____
ROOT
ATOM      1  C   LIG    1        1.220  -2.190  -0.020  0.00  0.00    +0.112 C 
ENDROOT
BRANCH   1   7
ATOM      2  C   LIG    1        0.002  -0.004   0.002  0.00  0.00    +0.006 A 
ATOM      3  C   LIG    1       -0.017   1.375   0.010  0.00  0.00    +0.019 A 
ATOM      4  C   LIG    1        1.185   2.087   0.002  0.00  0.00    +0.052 A 
ATOM      5  C   LIG    1        2.398   1.395  -0.013  0.00  0.00    +0.019 A 
ATOM      6  C   LIG    1        2.402   0.016  -0.020  0.00  0.00    +0.006 A 
ATOM      7  C   LIG    1        1.208  -0.683  -0.013  0.00  0.00    -0.037 A 
BRANCH   4   8
ATOM      8  C   LIG    1        1.173   3.518   0.009  0.00  0.00    +0.099 C 
ATOM      9  N   LIG    1        1.164   4.654   0.015  0.00  0.00    -0.191 NA
ENDBRANCH   4   8
ENDBRANCH   1   7
BRANCH   1  10
ATOM     10  S   LIG    1        1.209  -2.785  -1.729  0.00  0.00    -0.088 S 
BRANCH  10  11
ATOM     11  C   LIG    1        1.226  -4.524  -1.448  0.00  0.00    +0.123 C 
ATOM     12  N   LIG    1        1.242  -4.987  -0.228  0.00  0.00    -0.382 N 
ATOM     13  H   LIG    1        1.244  -4.292   0.624  0.00  0.00    +0.158 HD
ATOM     14  H   LIG    1        1.252  -6.073  -0.053  0.00  0.00    +0.158 HD
BRANCH  11  15
ATOM     15  N   LIG    1        1.223  -5.394  -2.514  0.00  0.00    -0.340 N 
ATOM     16  H   LIG    1        1.210  -5.003  -3.542  0.00  0.00    +0.144 HD
ATOM     17  H   LIG    1        1.234  -6.479  -2.338  0.00  0.00    +0.144 HD
ENDBRANCH  11  15
ENDBRANCH  10  11
ENDBRANCH   1  10
TORSDOF 5
