REMARK  Name = ZINC04475235
REMARK                            x       y       z     vdW  Elec       q    Type
REMARK                         _______ _______ _______ _____ _____    ______ ____
ROOT
ATOM      1  C   LIG    1       -0.018   1.503   0.010  0.00  0.00    +0.035 C 
ATOM      2  C   LIG    1        0.002  -0.004   0.002  0.00  0.00    -0.023 C 
ATOM      3  C   LIG    1       -1.144  -0.686   0.009  0.00  0.00    -0.003 C 
ATOM      4  C   LIG    1       -2.499  -0.106   0.011  0.00  0.00    +0.160 C 
ATOM      5  C   LIG    1       -3.499  -1.242   0.149  0.00  0.00    +0.084 C 
ATOM      6  C   LIG    1       -2.657  -2.415   0.732  0.00  0.00    +0.010 C 
ATOM      7  C   LIG    1       -2.472  -2.156   2.222  0.00  0.00    -0.002 C 
ATOM      8  C   LIG    1       -3.794  -2.280   2.975  0.00  0.00    +0.008 C 
ATOM      9  C   LIG    1       -4.254  -3.738   2.971  0.00  0.00    +0.032 C 
ATOM     10  C   LIG    1       -3.169  -4.577   3.619  0.00  0.00    -0.060 C 
ATOM     11  C   LIG    1       -3.518  -5.365   4.632  0.00  0.00    +0.046 C 
ATOM     12  C   LIG    1       -2.537  -6.223   5.300  0.00  0.00    +0.156 C 
ATOM     13  C   LIG    1       -1.194  -6.406   4.623  0.00  0.00    +0.080 C 
ATOM     14  C   LIG    1       -0.747  -5.061   4.067  0.00  0.00    +0.019 C 
ATOM     15  O   LIG    1       -2.796  -6.785   6.347  0.00  0.00    -0.293 OA
ATOM     16  C   LIG    1       -1.765  -4.469   3.093  0.00  0.00    -0.007 C 
ATOM     17  C   LIG    1       -1.700  -5.299   1.814  0.00  0.00    +0.016 C 
ATOM     18  C   LIG    1       -1.392  -3.018   2.840  0.00  0.00    +0.002 C 
ATOM     19  C   LIG    1       -0.065  -2.853   2.111  0.00  0.00    +0.005 C 
ATOM     20  C   LIG    1       -0.173  -2.956   0.600  0.00  0.00    +0.012 C 
ATOM     21  O   LIG    1       -2.767   1.074  -0.080  0.00  0.00    -0.292 OA
ATOM     22  C   LIG    1       -1.316  -2.183   0.003  0.00  0.00    -0.001 C 
ATOM     23  C   LIG    1       -1.484  -2.638  -1.454  0.00  0.00    +0.016 C 
ENDROOT
TORSDOF 0
