REMARK  Name = ZINC04521543
REMARK                            x       y       z     vdW  Elec       q    Type
REMARK                         _______ _______ _______ _____ _____    ______ ____
ROOT
ATOM      1  C   LIG    1        1.189   0.260  -0.172  0.00  0.00    +0.107 C 
ENDROOT
BRANCH   1   2
ATOM      2  C   LIG    1        0.172   0.958  -1.077  0.00  0.00    +0.206 C 
BRANCH   2   3
ATOM      3  N   LIG    1        0.520   0.717  -2.480  0.00  0.00    -0.278 N 
ATOM      4  H   LIG    1        1.299   0.182  -2.701  0.00  0.00    +0.258 HD
BRANCH   3   5
ATOM      5  C   LIG    1       -0.256   1.249  -3.482  0.00  0.00    +0.341 C 
ATOM      6  N   LIG    1        0.112   0.994  -4.729  0.00  0.00    -0.292 N 
ATOM      7  H   LIG    1        0.945   0.422  -4.912  0.00  0.00    +0.255 HD
ATOM      8  H   LIG    1       -0.431   1.367  -5.508  0.00  0.00    +0.255 HD
BRANCH   5   9
ATOM      9  N   LIG    1       -1.359   2.007  -3.168  0.00  0.00    -0.292 N 
ATOM     10  H   LIG    1       -1.907   2.382  -3.876  0.00  0.00    +0.255 HD
ATOM     11  H   LIG    1       -1.590   2.166  -2.240  0.00  0.00    +0.255 HD
ENDBRANCH   5   9
ENDBRANCH   3   5
ENDBRANCH   2   3
ENDBRANCH   1   2
BRANCH   1  12
ATOM     12  S   LIG    1        0.758   0.558   1.564  0.00  0.00    -0.142 S 
BRANCH  12  13
ATOM     13  C   LIG    1        2.042  -0.323   2.494  0.00  0.00    +0.165 C 
BRANCH  13  14
ATOM     14  C   LIG    1        3.381   0.320   2.234  0.00  0.00    +0.318 C 
ATOM     15  O   LIG    1        4.214  -0.262   1.581  0.00  0.00    -0.250 OA
BRANCH  14  16
ATOM     16  O   LIG    1        3.647   1.539   2.728  0.00  0.00    -0.480 OA
ATOM     17  H   LIG    1        3.000   1.991   3.234  0.00  0.00    +0.295 HD
ENDBRANCH  14  16
ENDBRANCH  13  14
BRANCH  13  18
ATOM     18  C   LIG    1        1.726  -0.257   3.989  0.00  0.00    +0.146 C 
BRANCH  18  19
ATOM     19  C   LIG    1        0.449  -1.006   4.266  0.00  0.00    +0.306 C 
ATOM     20  O   LIG    1       -0.148  -1.539   3.361  0.00  0.00    -0.251 OA
BRANCH  19  21
ATOM     21  O   LIG    1       -0.026  -1.082   5.519  0.00  0.00    -0.481 OA
ATOM     22  H   LIG    1        0.437  -0.669   6.222  0.00  0.00    +0.295 HD
ENDBRANCH  19  21
ENDBRANCH  18  19
ENDBRANCH  13  18
ENDBRANCH  12  13
ENDBRANCH   1  12
TORSDOF 11
