REMARK  Name = ZINC04208821
REMARK                            x       y       z     vdW  Elec       q    Type
REMARK                         _______ _______ _______ _____ _____    ______ ____
ROOT
ATOM      1  C   LIG    1        0.059  -4.224  -0.021  0.00  0.00    +0.002 C 
ATOM      2  C   LIG    1       -1.049  -4.915  -0.545  0.00  0.00    +0.045 A 
ATOM      3  C   LIG    1       -2.239  -4.285  -0.975  0.00  0.00    +0.028 A 
ATOM      4  C   LIG    1       -3.062  -5.254  -1.452  0.00  0.00    +0.028 A 
ATOM      5  C   LIG    1       -2.385  -6.487  -1.317  0.00  0.00    +0.045 A 
ATOM      6  C   LIG    1       -2.897  -7.719  -1.764  0.00  0.00    +0.002 C 
ATOM      7  C   LIG    1       -2.255  -8.943  -1.500  0.00  0.00    +0.045 A 
ATOM      8  N   LIG    1       -1.143  -9.156  -0.760  0.00  0.00    -0.355 N 
ATOM      9  H   LIG    1       -0.604  -8.467  -0.342  0.00  0.00    +0.166 HD
ATOM     10  C   LIG    1       -0.904 -10.486  -0.699  0.00  0.00    +0.045 A 
ATOM     11  C   LIG    1       -1.869 -11.142  -1.496  0.00  0.00    +0.028 A 
ATOM     12  C   LIG    1        0.112 -11.152   0.012  0.00  0.00    +0.002 C 
ATOM     13  C   LIG    1        1.146 -10.465   0.672  0.00  0.00    +0.045 A 
ATOM     14  C   LIG    1        2.155 -11.099   1.432  0.00  0.00    +0.028 A 
ATOM     15  C   LIG    1        2.993 -10.131   1.883  0.00  0.00    +0.028 A 
ATOM     16  C   LIG    1        2.502  -8.893   1.410  0.00  0.00    +0.045 A 
ATOM     17  C   LIG    1        3.132  -7.657   1.646  0.00  0.00    +0.002 C 
ATOM     18  C   LIG    1        2.570  -6.433   1.240  0.00  0.00    +0.045 A 
ATOM     19  N   LIG    1        1.369  -6.220   0.656  0.00  0.00    -0.355 N 
ATOM     20  H   LIG    1        0.740  -6.910   0.394  0.00  0.00    +0.166 HD
ATOM     21  C   LIG    1        3.208  -5.182   1.397  0.00  0.00    +0.028 A 
ATOM     22  C   LIG    1        2.359  -4.231   0.929  0.00  0.00    +0.028 A 
ATOM     23  N   LIG    1        1.371  -9.131   0.708  0.00  0.00    -0.355 N 
ATOM     24  H   LIG    1        0.810  -8.455   0.297  0.00  0.00    +0.166 HD
ATOM     25  C   LIG    1       -2.703 -10.191  -1.989  0.00  0.00    +0.028 A 
ATOM     26  N   LIG    1       -1.192  -6.247  -0.727  0.00  0.00    -0.355 N 
ATOM     27  H   LIG    1       -0.542  -6.922  -0.475  0.00  0.00    +0.166 HD
ATOM     28  C   LIG    1        1.188  -4.890   0.491  0.00  0.00    +0.045 A 
ENDROOT
BRANCH   1  33
ATOM     29  C   LIG    1       -0.018   1.461   0.010  0.00  0.00    +0.104 C 
ATOM     30  N   LIG    1        0.002  -0.004   0.002  0.00  0.00    -0.305 NA
ATOM     31  C   LIG    1        0.005  -0.636  -1.156  0.00  0.00    +0.084 C 
ATOM     32  C   LIG    1        0.024  -2.014  -1.211  0.00  0.00    +0.023 C 
ATOM     33  C   LIG    1        0.039  -2.741  -0.013  0.00  0.00    +0.025 C 
ATOM     34  C   LIG    1        0.035  -2.027   1.193  0.00  0.00    +0.023 C 
ATOM     35  C   LIG    1        0.022  -0.649   1.153  0.00  0.00    +0.084 C 
ENDBRANCH   1  33
BRANCH   6  36
ATOM     36  C   LIG    1       -4.159  -7.727  -2.544  0.00  0.00    +0.025 C 
ATOM     37  C   LIG    1       -5.367  -7.317  -1.965  0.00  0.00    +0.023 C 
ATOM     38  C   LIG    1       -6.516  -7.340  -2.728  0.00  0.00    +0.084 C 
ATOM     39  N   LIG    1       -6.487  -7.741  -3.985  0.00  0.00    -0.305 NA
ATOM     40  C   LIG    1       -7.733  -7.749  -4.755  0.00  0.00    +0.104 C 
ATOM     41  C   LIG    1       -5.372  -8.135  -4.569  0.00  0.00    +0.084 C 
ATOM     42  C   LIG    1       -4.175  -8.139  -3.884  0.00  0.00    +0.023 C 
ENDBRANCH   6  36
BRANCH  12  43
ATOM     43  C   LIG    1        0.088 -12.634   0.069  0.00  0.00    +0.025 C 
ATOM     44  C   LIG    1       -0.954 -13.314   0.715  0.00  0.00    +0.023 C 
ATOM     45  C   LIG    1       -0.935 -14.693   0.743  0.00  0.00    +0.084 C 
ATOM     46  N   LIG    1        0.044 -15.370   0.174  0.00  0.00    -0.305 NA
ATOM     47  C   LIG    1        0.020 -16.833   0.231  0.00  0.00    +0.104 C 
ATOM     48  C   LIG    1        1.044 -14.770  -0.444  0.00  0.00    +0.084 C 
ATOM     49  C   LIG    1        1.103 -13.395  -0.526  0.00  0.00    +0.023 C 
ENDBRANCH  12  43
BRANCH  17  50
ATOM     50  C   LIG    1        4.437  -7.645   2.352  0.00  0.00    +0.025 C 
ATOM     51  C   LIG    1        4.540  -8.070   3.683  0.00  0.00    +0.023 C 
ATOM     52  C   LIG    1        5.773  -8.042   4.300  0.00  0.00    +0.084 C 
ATOM     53  N   LIG    1        6.845  -7.623   3.655  0.00  0.00    -0.305 NA
ATOM     54  C   LIG    1        8.133  -7.611   4.352  0.00  0.00    +0.104 C 
ATOM     55  C   LIG    1        6.793  -7.215   2.401  0.00  0.00    +0.084 C 
ATOM     56  C   LIG    1        5.602  -7.214   1.705  0.00  0.00    +0.023 C 
ENDBRANCH  17  50
TORSDOF 4
