REMARK  Name = ZINC04641406
REMARK                            x       y       z     vdW  Elec       q    Type
REMARK                         _______ _______ _______ _____ _____    ______ ____
ROOT
ATOM      1  C   LIG    1        0.212   1.496   0.014  0.00  0.00    +0.065 C 
ATOM      2  C   LIG    1        0.101  -0.007   0.004  0.00  0.00    +0.041 A 
ATOM      3  N   LIG    1        0.106  -0.796  -1.090  0.00  0.00    -0.281 N 
ATOM      4  H   LIG    1        0.183  -0.493  -2.009  0.00  0.00    +0.189 HD
ATOM      5  N   LIG    1       -0.013  -2.128  -0.676  0.00  0.00    -0.173 NA
ATOM      6  C   LIG    1       -0.099  -2.149   0.637  0.00  0.00    +0.104 A 
ATOM      7  C   LIG    1       -0.029  -0.810   1.097  0.00  0.00    +0.030 A 
ENDROOT
BRANCH   6   8
ATOM      8  C   LIG    1       -0.244  -3.357   1.484  0.00  0.00    +0.044 A 
ATOM      9  C   LIG    1       -1.204  -3.392   2.493  0.00  0.00    +0.017 A 
ATOM     10  C   LIG    1       -1.336  -4.517   3.279  0.00  0.00    +0.046 A 
ATOM     11  C   LIG    1       -0.515  -5.617   3.068  0.00  0.00    +0.120 A 
ATOM     12  C   LIG    1        0.443  -5.591   2.065  0.00  0.00    +0.091 A 
ATOM     13  C   LIG    1        0.579  -4.467   1.268  0.00  0.00    +0.130 A 
BRANCH  11  14
ATOM     14  O   LIG    1       -0.651  -6.723   3.846  0.00  0.00    -0.507 OA
ATOM     15  H   LIG    1       -1.279  -7.373   3.500  0.00  0.00    +0.292 HD
ENDBRANCH  11  14
BRANCH  13  16
ATOM     16  O   LIG    1        1.513  -4.442   0.281  0.00  0.00    -0.506 OA
ATOM     17  H   LIG    1        1.604  -3.681  -0.258  0.00  0.00    +0.292 HD
ENDBRANCH  13  16
ENDBRANCH   6   8
BRANCH   7  18
ATOM     18  C   LIG    1       -0.086  -0.364   2.511  0.00  0.00    -0.014 A 
ATOM     19  C   LIG    1        0.950  -0.683   3.386  0.00  0.00    +0.012 A 
ATOM     20  C   LIG    1        0.894  -0.267   4.700  0.00  0.00    +0.046 A 
ATOM     21  C   LIG    1       -0.194   0.468   5.151  0.00  0.00    +0.120 A 
ATOM     22  C   LIG    1       -1.228   0.787   4.282  0.00  0.00    +0.046 A 
ATOM     23  C   LIG    1       -1.174   0.380   2.965  0.00  0.00    +0.012 A 
BRANCH  21  24
ATOM     24  O   LIG    1       -0.246   0.876   6.447  0.00  0.00    -0.495 OA
ATOM     25  C   LIG    1       -1.394   1.629   6.844  0.00  0.00    +0.277 C 
ENDBRANCH  21  24
ENDBRANCH   7  18
TORSDOF 5
