REMARK  Name = ZINC04699664
REMARK                            x       y       z     vdW  Elec       q    Type
REMARK                         _______ _______ _______ _____ _____    ______ ____
ROOT
ATOM      1  C   LIG    1        3.859  -6.178  -6.919  0.00  0.00    +0.034 A 
ATOM      2  C   LIG    1        4.399  -5.304  -7.857  0.00  0.00    +0.024 A 
ATOM      3  C   LIG    1        4.957  -5.795  -9.017  0.00  0.00    +0.015 A 
ATOM      4  C   LIG    1        4.980  -7.172  -9.250  0.00  0.00    +0.037 A 
ATOM      5  C   LIG    1        4.437  -8.047  -8.305  0.00  0.00    +0.015 A 
ATOM      6  C   LIG    1        3.885  -7.549  -7.145  0.00  0.00    +0.024 A 
ENDROOT
BRANCH   4   7
ATOM      7  C   LIG    1        5.577  -7.702 -10.492  0.00  0.00    +0.228 A 
ATOM      8  N   LIG    1        6.115  -6.973 -11.437  0.00  0.00    -0.209 NA
ATOM      9  C   LIG    1        6.559  -7.795 -12.423  0.00  0.00    +0.111 A 
ATOM     10  C   LIG    1        7.201  -7.576 -13.645  0.00  0.00    +0.051 A 
ATOM     11  C   LIG    1        7.530  -8.648 -14.445  0.00  0.00    +0.043 A 
ATOM     12 CL   LIG    1        8.327  -8.378 -15.964  0.00  0.00    -0.083 Cl
ATOM     13  C   LIG    1        7.228  -9.942 -14.045  0.00  0.00    +0.024 A 
ATOM     14  C   LIG    1        6.595 -10.172 -12.841  0.00  0.00    +0.050 A 
ATOM     15  C   LIG    1        6.256  -9.106 -12.023  0.00  0.00    +0.156 A 
ATOM     16  O   LIG    1        5.652  -9.007 -10.817  0.00  0.00    -0.435 OA
ENDBRANCH   4   7
BRANCH   1  18
ATOM     17  C   LIG    1        2.626  -4.506  -5.764  0.00  0.00    +0.255 C 
ATOM     18  N   LIG    1        3.294  -5.676  -5.744  0.00  0.00    -0.283 N 
ATOM     19  H   LIG    1        3.383  -6.170  -4.914  0.00  0.00    +0.155 HD
ATOM     20  O   LIG    1        2.585  -3.848  -6.782  0.00  0.00    -0.272 OA
BRANCH  17  21
ATOM     21  C   LIG    1        1.928  -4.016  -4.521  0.00  0.00    +0.324 C 
BRANCH  21  22
ATOM     22  O   LIG    1        1.296  -2.764  -4.793  0.00  0.00    -0.483 OA
BRANCH  22  26
ATOM     23  C   LIG    1       -0.767  -0.993  -1.685  0.00  0.00    +0.120 A 
ATOM     24  C   LIG    1       -0.710  -0.371  -2.924  0.00  0.00    +0.049 A 
ATOM     25  C   LIG    1       -0.020  -0.964  -3.963  0.00  0.00    +0.049 A 
ATOM     26  C   LIG    1        0.617  -2.180  -3.769  0.00  0.00    +0.121 A 
ATOM     27  C   LIG    1        0.561  -2.802  -2.530  0.00  0.00    +0.049 A 
ATOM     28  C   LIG    1       -0.125  -2.207  -1.489  0.00  0.00    +0.049 A 
BRANCH  23  30
ATOM     29  C   LIG    1       -2.083   0.840  -0.935  0.00  0.00    +0.277 C 
ATOM     30  O   LIG    1       -1.446  -0.410  -0.662  0.00  0.00    -0.495 OA
ENDBRANCH  23  30
ENDBRANCH  22  26
ENDBRANCH  21  22
ENDBRANCH  17  21
ENDBRANCH   1  18
TORSDOF 6
