REMARK  Name = ZINC04217460
REMARK                            x       y       z     vdW  Elec       q    Type
REMARK                         _______ _______ _______ _____ _____    ______ ____
ROOT
ATOM      1  CB  LIG    1       -0.175  -2.721  -1.257  0.00  0.00    -0.004 C 
ATOM      2  CA  LIG    1       -0.917  -2.300   0.013  0.00  0.00    +0.014 C 
ENDROOT
BRANCH   2   3
ATOM      3  C   LIG    1       -1.083  -0.803   0.025  0.00  0.00    +0.202 C 
ATOM      4  N   LIG    1        0.002  -0.004   0.002  0.00  0.00    -0.287 N 
ATOM      5  C   LIG    1        1.407  -0.464  -0.035  0.00  0.00    +0.137 C 
ATOM      6  C   LIG    1        2.211   0.721   0.495  0.00  0.00    +0.080 C 
ATOM      7  S   LIG    1        3.938   0.698  -0.088  0.00  0.00    -0.141 S 
ATOM      8  C   LIG    1        4.857   1.319   1.378  0.00  0.00    +0.081 C 
ATOM      9  C   LIG    1        4.184   0.639   2.599  0.00  0.00    +0.081 C 
ATOM     10  C   LIG    1        1.452   1.951  -0.001  0.00  0.00    +0.064 C 
ATOM     11  S   LIG    1        2.377   0.694   2.306  0.00  0.00    -0.141 S 
ATOM     12  CA  LIG    1       -0.018   1.468   0.010  0.00  0.00    +0.187 C 
ATOM     13  O   LIG    1       -2.194  -0.316   0.054  0.00  0.00    -0.277 OA
BRANCH  12  14
ATOM     14  C   LIG    1       -0.734   1.977  -1.214  0.00  0.00    +0.326 C 
ATOM     15  O   LIG    1       -0.888   1.252  -2.169  0.00  0.00    -0.249 OA
BRANCH  14  16
ATOM     16  OXT LIG    1       -1.199   3.235  -1.245  0.00  0.00    -0.479 OA
ATOM     17  HXT LIG    1       -1.079   3.797  -0.505  0.00  0.00    +0.295 HD
ENDBRANCH  14  16
ENDBRANCH  12  14
ENDBRANCH   2   3
BRANCH   2  18
ATOM     18  N   LIG    1       -2.248  -2.936   0.038  0.00  0.00    +0.395 N 
ATOM     19  H1  LIG    1       -2.884  -2.367   0.610  0.00  0.00    -0.084 HD
ATOM     20  H2  LIG    1       -2.613  -2.997  -0.920  0.00  0.00    -0.084 HD
BRANCH  18  21
ATOM     21  CA  LIG    1       -2.158  -4.291   0.613  0.00  0.00    +0.040 C 
BRANCH  21  22
ATOM     22  C   LIG    1       -1.779  -5.271  -0.468  0.00  0.00    +0.291 C 
ATOM     23  O   LIG    1       -1.596  -4.884  -1.598  0.00  0.00    -0.253 OA
BRANCH  22  24
ATOM     24  OXT LIG    1       -1.646  -6.574  -0.175  0.00  0.00    -0.482 OA
ATOM     25  HXT LIG    1       -1.788  -6.875   0.701  0.00  0.00    +0.295 HD
ENDBRANCH  22  24
ENDBRANCH  21  22
BRANCH  21  26
ATOM     26  C   LIG    1       -3.517  -4.679   1.200  0.00  0.00    -0.000 C 
BRANCH  26  27
ATOM     27  C   LIG    1       -3.844  -3.761   2.379  0.00  0.00    +0.034 C 
BRANCH  27  28
ATOM     28  C   LIG    1       -5.182  -4.143   2.957  0.00  0.00    -0.047 A 
ATOM     29  C   LIG    1       -6.336  -3.550   2.481  0.00  0.00    +0.003 A 
ATOM     30  C   LIG    1       -7.563  -3.904   3.008  0.00  0.00    +0.000 A 
ATOM     31  C   LIG    1       -7.636  -4.844   4.019  0.00  0.00    +0.000 A 
ATOM     32  C   LIG    1       -6.482  -5.434   4.499  0.00  0.00    +0.000 A 
ATOM     33  C   LIG    1       -5.255  -5.083   3.968  0.00  0.00    +0.003 A 
ENDBRANCH  27  28
ENDBRANCH  26  27
ENDBRANCH  21  26
ENDBRANCH  18  21
ENDBRANCH   2  18
TORSDOF 10
