REMARK  Name = ZINC04265685
REMARK                            x       y       z     vdW  Elec       q    Type
REMARK                         _______ _______ _______ _____ _____    ______ ____
ROOT
ATOM      1  C   LIG    1        1.395   2.024  -0.000  0.00  0.00    +0.217 C 
ATOM      2  O   LIG    1        1.921   2.325  -1.046  0.00  0.00    -0.287 OA
ENDROOT
BRANCH   1   3
ATOM      3  C   LIG    1       -0.018   1.503   0.010  0.00  0.00    +0.160 C 
ATOM      4 BR   LIG    1       -0.939   2.137   1.628  0.00  0.00    -0.074 Br
BRANCH   3   8
ATOM      5  C   LIG    1        0.040  -2.768  -0.013  0.00  0.00    +0.000 A 
ATOM      6  C   LIG    1       -0.486  -2.078  -1.089  0.00  0.00    +0.000 A 
ATOM      7  C   LIG    1       -0.505  -0.696  -1.082  0.00  0.00    +0.005 A 
ATOM      8  C   LIG    1        0.002  -0.004   0.002  0.00  0.00    -0.026 A 
ATOM      9  C   LIG    1        0.533  -0.694   1.076  0.00  0.00    +0.005 A 
ATOM     10  C   LIG    1        0.548  -2.076   1.070  0.00  0.00    +0.000 A 
ENDBRANCH   3   8
ENDBRANCH   1   3
BRANCH   1  11
ATOM     11  C   LIG    1        2.144   2.170   1.276  0.00  0.00    +0.217 C 
ATOM     12  O   LIG    1        1.619   1.869   2.321  0.00  0.00    -0.287 OA
BRANCH  11  13
ATOM     13  C   LIG    1        3.558   2.691   1.265  0.00  0.00    +0.160 C 
ATOM     14 BR   LIG    1        3.970   3.503   3.007  0.00  0.00    -0.074 Br
BRANCH  13  15
ATOM     15  C   LIG    1        4.511   1.554   1.003  0.00  0.00    -0.026 A 
ATOM     16  C   LIG    1        4.637   0.531   1.925  0.00  0.00    +0.005 A 
ATOM     17  C   LIG    1        5.508  -0.514   1.683  0.00  0.00    +0.000 A 
ATOM     18  C   LIG    1        6.260  -0.533   0.523  0.00  0.00    +0.000 A 
ATOM     19  C   LIG    1        6.137   0.492  -0.397  0.00  0.00    +0.000 A 
ATOM     20  C   LIG    1        5.263   1.535  -0.157  0.00  0.00    +0.005 A 
ENDBRANCH  13  15
ENDBRANCH  11  13
ENDBRANCH   1  11
TORSDOF 5
