REMARK  Name = ZINC04802670
REMARK                            x       y       z     vdW  Elec       q    Type
REMARK                         _______ _______ _______ _____ _____    ______ ____
ROOT
ATOM      1  C   LIG    1       -0.360   2.779   1.818  0.00  0.00    +0.006 A 
ATOM      2  C   LIG    1       -1.009   3.228   2.953  0.00  0.00    +0.022 A 
ATOM      3  C   LIG    1       -2.011   2.465   3.524  0.00  0.00    +0.059 A 
ATOM      4 CL   LIG    1       -2.823   3.026   4.952  0.00  0.00    -0.082 Cl
ATOM      5  C   LIG    1       -2.367   1.253   2.956  0.00  0.00    +0.060 A 
ATOM      6 CL   LIG    1       -3.625   0.294   3.671  0.00  0.00    -0.082 Cl
ATOM      7  C   LIG    1       -1.720   0.808   1.817  0.00  0.00    +0.026 A 
ATOM      8  C   LIG    1       -0.718   1.572   1.248  0.00  0.00    -0.036 A 
ENDROOT
BRANCH   8   9
ATOM      9  C   LIG    1       -0.013   1.086   0.008  0.00  0.00    +0.100 C 
BRANCH   9  10
ATOM     10  S   LIG    1       -0.890   1.687  -1.462  0.00  0.00    -0.174 S 
ATOM     11  H   LIG    1       -0.176   1.195  -2.490  0.00  0.00    +0.102 HD
ENDBRANCH   9  10
ENDBRANCH   8   9
TORSDOF 2
