REMARK  Name = ZINC04578845
REMARK                            x       y       z     vdW  Elec       q    Type
REMARK                         _______ _______ _______ _____ _____    ______ ____
ROOT
ATOM      1  C   LIG    1       -0.086  -0.002   0.050  0.00  0.00    +0.159 C 
ATOM      2  C   LIG    1        1.149  -0.486  -0.753  0.00  0.00    +0.160 C 
ATOM      3  C   LIG    1        1.920   0.801  -1.162  0.00  0.00    +0.039 C 
ATOM      4  C   LIG    1        1.506   1.764  -0.038  0.00  0.00    +0.004 C 
ATOM      5  C   LIG    1        1.902   3.200  -0.148  0.00  0.00    +0.000 C 
ATOM      6  C   LIG    1        2.483   3.526  -1.533  0.00  0.00    +0.031 C 
ATOM      7  C   LIG    1        2.839   4.986  -1.562  0.00  0.00    -0.027 C 
ATOM      8  C   LIG    1        2.316   5.869  -0.772  0.00  0.00    -0.065 C 
ATOM      9  C   LIG    1        1.249   5.564   0.251  0.00  0.00    -0.008 C 
ATOM     10  C   LIG    1        0.077   6.527   0.034  0.00  0.00    +0.016 C 
ATOM     11  C   LIG    1        1.832   5.801   1.638  0.00  0.00    +0.014 C 
ATOM     12  C   LIG    1        3.188   6.498   1.529  0.00  0.00    +0.032 C 
ATOM     13  C   LIG    1        3.140   7.721   0.620  0.00  0.00    +0.119 C 
ATOM     14  C   LIG    1        2.810   7.305  -0.820  0.00  0.00    +0.062 C 
ATOM     15  C   LIG    1        0.716   4.142   0.076  0.00  0.00    +0.003 C 
ATOM     16  C   LIG    1       -0.123   3.714   1.266  0.00  0.00    +0.005 C 
ATOM     17  C   LIG    1       -0.608   2.260   1.192  0.00  0.00    +0.010 C 
ATOM     18  C   LIG    1       -0.019   1.540   0.011  0.00  0.00    +0.010 C 
ATOM     19  C   LIG    1       -0.722   1.953  -1.287  0.00  0.00    +0.015 C 
ATOM     20  O   LIG    1       -0.184  -0.669  -1.216  0.00  0.00    -0.356 OA
ENDROOT
BRANCH   1  22
ATOM     21  C   LIG    1       -1.176  -2.057   1.220  0.00  0.00    +0.089 C 
ATOM     22  C   LIG    1       -0.570  -0.680   1.298  0.00  0.00    +0.165 C 
ATOM     23  O   LIG    1       -0.473  -0.121   2.364  0.00  0.00    -0.295 OA
ENDBRANCH   1  22
BRANCH  13  24
ATOM     24  O   LIG    1        2.163   8.647   1.096  0.00  0.00    -0.391 OA
ATOM     25  H   LIG    1        2.086   9.447   0.559  0.00  0.00    +0.210 HD
ENDBRANCH  13  24
TORSDOF 2
