REMARK  Name = ZINC04401896
REMARK                            x       y       z     vdW  Elec       q    Type
REMARK                         _______ _______ _______ _____ _____    ______ ____
ROOT
ATOM      1  C   LIG    1        4.389   8.482   0.007  0.00  0.00    +0.050 C 
ENDROOT
BRANCH   1   5
ATOM      2  C   LIG    1        3.601  12.680   0.088  0.00  0.00    +0.000 A 
ATOM      3  C   LIG    1        2.664  11.791   0.582  0.00  0.00    +0.000 A 
ATOM      4  C   LIG    1        2.919  10.433   0.556  0.00  0.00    +0.004 A 
ATOM      5  C   LIG    1        4.111   9.963   0.036  0.00  0.00    -0.040 A 
ATOM      6  C   LIG    1        5.050  10.852  -0.453  0.00  0.00    +0.004 A 
ATOM      7  C   LIG    1        4.793  12.210  -0.432  0.00  0.00    +0.000 A 
ENDBRANCH   1   5
BRANCH   1   8
ATOM      8  C   LIG    1        4.560   7.976   1.416  0.00  0.00    -0.040 A 
ATOM      9  C   LIG    1        3.482   7.960   2.281  0.00  0.00    +0.004 A 
ATOM     10  C   LIG    1        3.638   7.491   3.572  0.00  0.00    +0.000 A 
ATOM     11  C   LIG    1        4.875   7.048   4.002  0.00  0.00    +0.000 A 
ATOM     12  C   LIG    1        5.955   7.070   3.139  0.00  0.00    +0.000 A 
ATOM     13  C   LIG    1        5.797   7.534   1.846  0.00  0.00    +0.004 A 
ENDBRANCH   1   8
BRANCH   1  14
ATOM     14  C   LIG    1        3.217   7.756  -0.657  0.00  0.00    +0.031 C 
BRANCH  14  15
ATOM     15  C   LIG    1        3.553   6.270  -0.798  0.00  0.00    +0.105 C 
BRANCH  15  16
ATOM     16  N   LIG    1        2.431   5.574  -1.434  0.00  0.00    -0.311 N 
ATOM     17  H   LIG    1        1.637   6.069  -1.691  0.00  0.00    +0.149 HD
ATOM     18  C   LIG    1        2.503   4.248  -1.662  0.00  0.00    +0.246 C 
ATOM     19  O   LIG    1        3.498   3.629  -1.340  0.00  0.00    -0.270 OA
BRANCH  18  20
ATOM     20  C   LIG    1        1.371   3.546  -2.303  0.00  0.00    +0.055 A 
ATOM     21  C   LIG    1        1.432   2.168  -2.546  0.00  0.00    +0.016 A 
ATOM     22  C   LIG    1        0.346   1.559  -3.148  0.00  0.00    +0.020 A 
ATOM     23  C   LIG    1       -0.754   2.325  -3.494  0.00  0.00    +0.111 A 
ATOM     24  N   LIG    1       -0.786   3.620  -3.248  0.00  0.00    -0.263 NA
ATOM     25  C   LIG    1        0.223   4.245  -2.677  0.00  0.00    +0.123 A 
ENDBRANCH  18  20
ENDBRANCH  15  16
ENDBRANCH  14  15
ENDBRANCH   1  14
TORSDOF 6
