REMARK  Name = ZINC04375654
REMARK                            x       y       z     vdW  Elec       q    Type
REMARK                         _______ _______ _______ _____ _____    ______ ____
ROOT
ATOM      1  C   LIG    1       -1.548   1.441  -0.169  0.00  0.00    +0.138 C 
ATOM      2  N   LIG    1       -0.144   1.030  -0.096  0.00  0.00    -0.274 N 
ATOM      3  C   LIG    1        0.818   2.027  -0.154  0.00  0.00    +0.045 A 
ATOM      4  C   LIG    1        0.564   3.205   0.552  0.00  0.00    +0.024 A 
ATOM      5  C   LIG    1        1.471   4.241   0.538  0.00  0.00    +0.002 A 
ATOM      6  C   LIG    1        2.650   4.123  -0.179  0.00  0.00    +0.001 A 
ATOM      7  C   LIG    1        2.917   2.970  -0.880  0.00  0.00    +0.012 A 
ATOM      8  C   LIG    1        2.003   1.905  -0.875  0.00  0.00    +0.022 A 
ATOM      9  C   LIG    1        2.356   0.702  -1.644  0.00  0.00    +0.073 C 
ATOM     10  N   LIG    1        2.148  -0.506  -1.256  0.00  0.00    -0.289 NA
ATOM     11  C   LIG    1        1.515  -0.806   0.028  0.00  0.00    +0.134 C 
ATOM     12  C   LIG    1        0.109  -0.272   0.015  0.00  0.00    +0.226 C 
ATOM     13  O   LIG    1       -0.818  -1.048   0.108  0.00  0.00    -0.275 OA
ENDROOT
BRANCH   9  14
ATOM     14  C   LIG    1        2.998   0.896  -2.965  0.00  0.00    +0.000 A 
ATOM     15  C   LIG    1        2.815   2.088  -3.664  0.00  0.00    +0.010 A 
ATOM     16  C   LIG    1        3.419   2.265  -4.892  0.00  0.00    +0.001 A 
ATOM     17  C   LIG    1        4.197   1.258  -5.435  0.00  0.00    +0.000 A 
ATOM     18  C   LIG    1        4.378   0.071  -4.748  0.00  0.00    +0.001 A 
ATOM     19  C   LIG    1        3.783  -0.116  -3.517  0.00  0.00    +0.010 A 
ENDBRANCH   9  14
BRANCH  11  20
ATOM     20  N   LIG    1        2.260  -0.175   1.132  0.00  0.00    +0.399 N 
ATOM     21  H   LIG    1        1.813  -0.418   2.023  0.00  0.00    -0.086 HD
ATOM     22  H   LIG    1        2.256   0.837   1.022  0.00  0.00    -0.086 HD
ATOM     23  H   LIG    1        3.222  -0.511   1.140  0.00  0.00    -0.086 HD
ENDBRANCH  11  20
TORSDOF 2
