REMARK  Name = ZINC04769919
REMARK                            x       y       z     vdW  Elec       q    Type
REMARK                         _______ _______ _______ _____ _____    ______ ____
ROOT
ATOM      1  CA  LIG    1        4.433   0.507   0.684  0.00  0.00    +0.097 C 
ATOM      2  C   LIG    1        4.984   0.639  -0.545  0.00  0.00    +0.039 C 
ENDROOT
BRANCH   2   3
ATOM      3  C   LIG    1        4.159   1.088  -1.676  0.00  0.00    +0.012 A 
ATOM      4  C   LIG    1        2.845   0.628  -1.814  0.00  0.00    +0.011 A 
ATOM      5  C   LIG    1        2.077   1.057  -2.875  0.00  0.00    +0.001 A 
ATOM      6  C   LIG    1        2.604   1.932  -3.810  0.00  0.00    +0.003 A 
ATOM      7  C   LIG    1        3.904   2.388  -3.686  0.00  0.00    +0.039 A 
ATOM      8  C   LIG    1        4.687   1.973  -2.626  0.00  0.00    +0.131 A 
ATOM      9  F   LIG    1        5.956   2.418  -2.505  0.00  0.00    -0.205 F 
ENDBRANCH   2   3
BRANCH   1  12
ATOM     10  N   LIG    1        2.636   2.128   1.000  0.00  0.00    -0.297 N 
ATOM     11  H   LIG    1        3.288   2.837   0.889  0.00  0.00    +0.150 HD
ATOM     12  C   LIG    1        3.017   0.839   0.894  0.00  0.00    +0.259 C 
ATOM     13  O   LIG    1        2.189  -0.049   0.972  0.00  0.00    -0.269 OA
BRANCH  10  14
ATOM     14  CA  LIG    1        1.237   2.457   1.283  0.00  0.00    +0.185 C 
BRANCH  14  16
ATOM     15  CG1 LIG    1        1.257   3.875  -0.774  0.00  0.00    +0.009 C 
ATOM     16  CB  LIG    1        0.914   3.841   0.717  0.00  0.00    +0.014 C 
ATOM     17  CG2 LIG    1       -0.576   4.134   0.904  0.00  0.00    +0.009 C 
ENDBRANCH  14  16
BRANCH  14  18
ATOM     18  C   LIG    1        1.012   2.458   2.773  0.00  0.00    +0.326 C 
ATOM     19  O   LIG    1        1.927   2.210   3.522  0.00  0.00    -0.249 OA
BRANCH  18  20
ATOM     20  OXT LIG    1       -0.204   2.735   3.268  0.00  0.00    -0.479 OA
ATOM     21  HXT LIG    1       -0.914   2.928   2.687  0.00  0.00    +0.295 HD
ENDBRANCH  18  20
ENDBRANCH  14  18
ENDBRANCH  10  14
ENDBRANCH   1  12
BRANCH   1  22
ATOM     22  N   LIG    1        5.211   0.054   1.754  0.00  0.00    -0.277 N 
ATOM     23  H   LIG    1        6.166  -0.072   1.640  0.00  0.00    +0.155 HD
ATOM     24  C   LIG    1        4.634  -0.207   2.944  0.00  0.00    +0.248 C 
ATOM     25  O   LIG    1        3.426  -0.142   3.061  0.00  0.00    -0.270 OA
BRANCH  24  26
ATOM     26  C   LIG    1        5.470  -0.574   4.106  0.00  0.00    +0.037 A 
ATOM     27  C   LIG    1        6.857  -0.656   3.974  0.00  0.00    +0.013 A 
ATOM     28  C   LIG    1        7.633  -0.993   5.064  0.00  0.00    +0.001 A 
ATOM     29  C   LIG    1        7.037  -1.260   6.284  0.00  0.00    +0.000 A 
ATOM     30  C   LIG    1        5.662  -1.187   6.421  0.00  0.00    +0.001 A 
ATOM     31  C   LIG    1        4.876  -0.845   5.340  0.00  0.00    +0.013 A 
ENDBRANCH  24  26
ENDBRANCH   1  22
TORSDOF 8
