REMARK  Name = ZINC04785817
REMARK                            x       y       z     vdW  Elec       q    Type
REMARK                         _______ _______ _______ _____ _____    ______ ____
ROOT
ATOM      1  C   LIG    1        1.430  -6.227  -1.085  0.00  0.00    +0.002 A 
ATOM      2  C   LIG    1        2.415  -6.976  -0.468  0.00  0.00    +0.001 A 
ATOM      3  C   LIG    1        3.409  -6.348   0.263  0.00  0.00    +0.017 A 
ATOM      4  C   LIG    1        3.411  -4.969   0.373  0.00  0.00    +0.035 A 
ATOM      5  C   LIG    1        2.418  -4.207  -0.249  0.00  0.00    +0.055 A 
ATOM      6  N   LIG    1        2.423  -2.812  -0.137  0.00  0.00    -0.234 N 
ATOM      7  C   LIG    1        1.249  -2.160  -0.021  0.00  0.00    +0.255 C 
ATOM      8  O   LIG    1        0.208  -2.787   0.025  0.00  0.00    -0.269 OA
ATOM      9  C   LIG    1        3.612  -2.075  -0.149  0.00  0.00    +0.055 A 
ATOM     10  C   LIG    1        3.670  -0.845  -0.781  0.00  0.00    +0.025 A 
ATOM     11  C   LIG    1        4.850  -0.123  -0.785  0.00  0.00    +0.002 A 
ATOM     12  C   LIG    1        5.977  -0.619  -0.157  0.00  0.00    +0.001 A 
ATOM     13  C   LIG    1        5.932  -1.846   0.483  0.00  0.00    +0.017 A 
ATOM     14  C   LIG    1        4.755  -2.571   0.490  0.00  0.00    +0.035 A 
ATOM     15  S   LIG    1        4.665  -4.139   1.298  0.00  0.00    -0.086 S 
ATOM     16  C   LIG    1        1.428  -4.848  -0.979  0.00  0.00    +0.025 A 
ENDROOT
BRANCH   7  17
ATOM     17  C   LIG    1        1.228  -0.685   0.051  0.00  0.00    +0.039 A 
ATOM     18  C   LIG    1        0.418   0.048  -0.819  0.00  0.00    +0.013 A 
ATOM     19  C   LIG    1        0.402   1.426  -0.746  0.00  0.00    +0.002 A 
ATOM     20  C   LIG    1        1.186   2.082   0.186  0.00  0.00    +0.015 A 
ATOM     21  C   LIG    1        1.991   1.362   1.052  0.00  0.00    +0.019 A 
ATOM     22 BR   LIG    1        3.059   2.269   2.322  0.00  0.00    -0.050 Br
ATOM     23  C   LIG    1        2.016  -0.017   0.990  0.00  0.00    +0.028 A 
ENDBRANCH   7  17
TORSDOF 1
