REMARK  Name = ZINC04695498
REMARK                            x       y       z     vdW  Elec       q    Type
REMARK                         _______ _______ _______ _____ _____    ______ ____
ROOT
ATOM      1  C   LIG    1        5.704   2.309   2.350  0.00  0.00    +0.000 A 
ATOM      2  C   LIG    1        5.754   1.005   1.887  0.00  0.00    +0.001 A 
ATOM      3  C   LIG    1        4.689   0.488   1.181  0.00  0.00    +0.012 A 
ATOM      4  C   LIG    1        3.567   1.281   0.935  0.00  0.00    +0.025 A 
ATOM      5  C   LIG    1        3.511   2.589   1.409  0.00  0.00    -0.036 A 
ATOM      6  C   LIG    1        2.320   3.480   1.191  0.00  0.00    +0.040 C 
ATOM      7  C   LIG    1        1.515   3.071  -0.039  0.00  0.00    +0.044 C 
ATOM      8  C   LIG    1        1.238   1.581   0.037  0.00  0.00    +0.002 C 
ATOM      9  C   LIG    1       -0.013   1.076   0.008  0.00  0.00    +0.035 C 
ATOM     10  C   LIG    1        2.438   0.723   0.152  0.00  0.00    +0.190 C 
ATOM     11  O   LIG    1        2.498  -0.376  -0.367  0.00  0.00    -0.287 OA
ATOM     12  C   LIG    1        4.593   3.094   2.114  0.00  0.00    +0.004 A 
ENDROOT
BRANCH   9  13
ATOM     13  C   LIG    1       -1.174   1.982   0.024  0.00  0.00    +0.064 A 
ATOM     14  C   LIG    1       -2.464   1.454   0.118  0.00  0.00    +0.028 A 
ATOM     15  C   LIG    1       -3.545   2.319   0.132  0.00  0.00    +0.004 A 
ATOM     16  C   LIG    1       -3.302   3.683   0.051  0.00  0.00    +0.020 A 
ATOM     17  C   LIG    1       -1.997   4.138  -0.040  0.00  0.00    +0.111 A 
ATOM     18  N   LIG    1       -0.986   3.296  -0.045  0.00  0.00    -0.256 NA
ENDBRANCH   9  13
TORSDOF 1
