REMARK  Name = ZINC04242536
REMARK                            x       y       z     vdW  Elec       q    Type
REMARK                         _______ _______ _______ _____ _____    ______ ____
ROOT
ATOM      1  CA  LIG    1        2.442   4.593   0.002  0.00  0.00    +0.067 C 
ENDROOT
BRANCH   1   9
ATOM      2  C   LIG    1       -0.059   4.498   0.026  0.00  0.00    +0.005 A 
ATOM      3  C   LIG    1       -1.247   3.793   0.033  0.00  0.00    +0.040 A 
ATOM      4  C   LIG    1       -1.231   2.409   0.021  0.00  0.00    +0.142 A 
ATOM      5  F   LIG    1       -2.392   1.719   0.023  0.00  0.00    -0.204 F 
ATOM      6  C   LIG    1       -0.021   1.732   0.012  0.00  0.00    +0.076 A 
ATOM      7 CL   LIG    1        0.002  -0.004   0.002  0.00  0.00    -0.081 Cl
ATOM      8  C   LIG    1        1.166   2.440   0.004  0.00  0.00    +0.025 A 
ATOM      9  C   LIG    1        1.147   3.822   0.011  0.00  0.00    -0.050 A 
ENDBRANCH   1   9
BRANCH   1  10
ATOM     10  N   LIG    1        2.306   5.748  -0.902  0.00  0.00    +0.390 N 
ATOM     11  H1  LIG    1        2.056   5.414  -1.841  0.00  0.00    -0.088 HD
ATOM     12  H2  LIG    1        3.186   6.257  -0.954  0.00  0.00    -0.088 HD
ATOM     13  H3  LIG    1        1.573   6.371  -0.566  0.00  0.00    -0.088 HD
ENDBRANCH   1  10
BRANCH   1  14
ATOM     14  C   LIG    1        2.761   5.055   1.401  0.00  0.00    +0.294 C 
ATOM     15  O   LIG    1        2.520   6.192   1.731  0.00  0.00    -0.253 OA
BRANCH  14  16
ATOM     16  OXT LIG    1        3.313   4.203   2.280  0.00  0.00    -0.482 OA
ATOM     17  HXT LIG    1        3.500   3.322   2.023  0.00  0.00    +0.295 HD
ENDBRANCH  14  16
ENDBRANCH   1  14
TORSDOF 4
