REMARK  Name = ZINC04216936
REMARK                            x       y       z     vdW  Elec       q    Type
REMARK                         _______ _______ _______ _____ _____    ______ ____
ROOT
ATOM      1  C   LIG    1       -2.699  -0.541   3.229  0.00  0.00    +0.008 C 
ATOM      2  C   LIG    1       -2.448   0.926   3.584  0.00  0.00    -0.006 C 
ATOM      3  C   LIG    1       -2.989   1.822   2.467  0.00  0.00    +0.034 C 
ATOM      4  C   LIG    1       -2.195   1.555   1.201  0.00  0.00    -0.063 C 
ATOM      5  C   LIG    1       -2.877   1.331   0.078  0.00  0.00    +0.045 C 
ATOM      6  C   LIG    1       -2.160   1.084  -1.178  0.00  0.00    +0.156 C 
ATOM      7  C   LIG    1       -0.730   1.581  -1.247  0.00  0.00    +0.079 C 
ATOM      8  C   LIG    1       -0.013   1.086   0.008  0.00  0.00    +0.016 C 
ATOM      9  O   LIG    1       -2.684   0.512  -2.111  0.00  0.00    -0.293 OA
ATOM     10  C   LIG    1       -0.701   1.564   1.274  0.00  0.00    +0.019 C 
ATOM     11  C   LIG    1       -0.230   0.707   2.457  0.00  0.00    -0.000 C 
ATOM     12  C   LIG    1        1.287   0.818   2.583  0.00  0.00    +0.005 C 
ATOM     13  C   LIG    1        1.810   0.081   3.826  0.00  0.00    +0.010 C 
ATOM     14  C   LIG    1        1.102   0.674   5.030  0.00  0.00    -0.000 C 
ATOM     15  C   LIG    1        1.291   2.192   5.051  0.00  0.00    +0.014 C 
ATOM     16  C   LIG    1        1.456   0.102   6.404  0.00  0.00    +0.069 C 
ATOM     17  C   LIG    1        1.938  -1.342   6.248  0.00  0.00    +0.042 C 
ATOM     18  C   LIG    1        0.145   0.144   7.228  0.00  0.00    +0.035 C 
ATOM     19  C   LIG    1       -0.956   0.680   6.273  0.00  0.00    +0.007 C 
ATOM     20  C   LIG    1       -0.406   0.334   4.886  0.00  0.00    +0.001 C 
ATOM     21  C   LIG    1       -0.944   1.167   3.736  0.00  0.00    -0.000 C 
ENDROOT
BRANCH  16  22
ATOM     22  O   LIG    1        2.463   0.894   7.036  0.00  0.00    -0.388 OA
ATOM     23  H   LIG    1        2.704   0.591   7.923  0.00  0.00    +0.210 HD
ENDBRANCH  16  22
TORSDOF 1
