REMARK  Name = ZINC04102194
REMARK                            x       y       z     vdW  Elec       q    Type
REMARK                         _______ _______ _______ _____ _____    ______ ____
ROOT
ATOM      1  C   LIG    1       -4.831  -0.670   6.572  0.00  0.00    +0.048 C 
ATOM      2  C   LIG    1       -4.027  -0.800   5.276  0.00  0.00    +0.166 C 
ATOM      3  O   LIG    1       -3.074   0.262   5.199  0.00  0.00    -0.373 OA
ATOM      4  C   LIG    1       -2.120   0.268   6.263  0.00  0.00    +0.153 C 
ATOM      5  C   LIG    1       -2.848   0.441   7.599  0.00  0.00    +0.172 C 
ATOM      6  C   LIG    1       -3.870  -0.688   7.764  0.00  0.00    +0.151 C 
ENDROOT
BRANCH   6   7
ATOM      7  O   LIG    1       -3.191  -1.944   7.813  0.00  0.00    -0.389 OA
ATOM      8  H   LIG    1       -2.565  -2.025   8.545  0.00  0.00    +0.210 HD
ENDBRANCH   6   7
BRANCH   5   9
ATOM      9  O   LIG    1       -1.901   0.389   8.668  0.00  0.00    -0.387 OA
ATOM     10  H   LIG    1       -1.220   1.074   8.624  0.00  0.00    +0.210 HD
ENDBRANCH   5   9
BRANCH   4  11
ATOM     11  C   LIG    1       -1.140   1.426   6.063  0.00  0.00    +0.065 C 
BRANCH  11  12
ATOM     12  C   LIG    1       -0.337   1.192   4.809  0.00  0.00    -0.063 C 
ATOM     13  C   LIG    1        0.905   0.339   4.857  0.00  0.00    +0.039 C 
ATOM     14  C   LIG    1       -0.724   1.740   3.659  0.00  0.00    +0.090 C 
BRANCH  14  15
ATOM     15  C   LIG    1       -0.015   1.413   2.414  0.00  0.00    +0.332 C 
ATOM     16  O   LIG    1        0.983   0.720   2.447  0.00  0.00    -0.246 OA
BRANCH  15  17
ATOM     17  O   LIG    1       -0.470   1.883   1.236  0.00  0.00    -0.462 OA
BRANCH  17  18
ATOM     18  C   LIG    1        0.281   1.521   0.047  0.00  0.00    +0.232 C 
BRANCH  18  19
ATOM     19  C   LIG    1       -0.383   2.142  -1.184  0.00  0.00    +0.041 C 
BRANCH  19  20
ATOM     20  C   LIG    1        0.409   1.760  -2.437  0.00  0.00    +0.003 C 
BRANCH  20  21
ATOM     21  C   LIG    1       -0.255   2.381  -3.668  0.00  0.00    +0.000 C 
BRANCH  21  22
ATOM     22  C   LIG    1        0.537   1.999  -4.920  0.00  0.00    +0.000 C 
BRANCH  22  23
ATOM     23  C   LIG    1       -0.127   2.619  -6.152  0.00  0.00    +0.001 C 
BRANCH  23  24
ATOM     24  C   LIG    1        0.664   2.238  -7.404  0.00  0.00    +0.011 C 
BRANCH  24  25
ATOM     25  C   LIG    1        0.001   2.858  -8.635  0.00  0.00    +0.120 C 
BRANCH  25  26
ATOM     26  C   LIG    1        0.780   2.482  -9.869  0.00  0.00    +0.305 C 
ATOM     27  O   LIG    1        1.765   1.789  -9.774  0.00  0.00    -0.251 OA
BRANCH  26  28
ATOM     28  O   LIG    1        0.380   2.917 -11.074  0.00  0.00    -0.481 OA
ATOM     29  H   LIG    1       -0.384   3.455 -11.148  0.00  0.00    +0.295 HD
ENDBRANCH  26  28
ENDBRANCH  25  26
ENDBRANCH  24  25
ENDBRANCH  23  24
ENDBRANCH  22  23
ENDBRANCH  21  22
ENDBRANCH  20  21
ENDBRANCH  19  20
ENDBRANCH  18  19
ENDBRANCH  17  18
ENDBRANCH  15  17
ENDBRANCH  14  15
ENDBRANCH  11  12
ENDBRANCH   4  11
BRANCH   1  30
ATOM     30  C   LIG    1       -5.610   0.647   6.560  0.00  0.00    +0.042 C 
BRANCH  30  32
ATOM     31  C   LIG    1       -7.619   1.794   5.331  0.00  0.00    +0.153 C 
ATOM     32  C   LIG    1       -6.651   0.614   5.440  0.00  0.00    +0.148 C 
ATOM     33  O   LIG    1       -6.548   1.595   4.406  0.00  0.00    -0.368 OA
BRANCH  31  35
ATOM     34  C   LIG    1       -9.717   0.523   5.804  0.00  0.00    +0.013 C 
ATOM     35  C   LIG    1       -9.041   1.507   4.847  0.00  0.00    +0.046 C 
BRANCH  35  36
ATOM     36  C   LIG    1       -9.840   2.811   4.809  0.00  0.00    +0.117 C 
ATOM     37  C   LIG    1      -11.263   2.525   4.326  0.00  0.00    +0.038 C 
BRANCH  36  38
ATOM     38  O   LIG    1       -9.210   3.731   3.916  0.00  0.00    -0.392 OA
ATOM     39  H   LIG    1       -9.663   4.582   3.842  0.00  0.00    +0.210 HD
ENDBRANCH  36  38
ENDBRANCH  35  36
ENDBRANCH  31  35
ENDBRANCH  30  32
ENDBRANCH   1  30
TORSDOF 21
