REMARK  Name = ZINC04339374
REMARK                            x       y       z     vdW  Elec       q    Type
REMARK                         _______ _______ _______ _____ _____    ______ ____
ROOT
ATOM      1  C   LIG    1        0.000  -0.691  -1.203  0.00  0.00    +0.068 C 
ATOM      2  C   LIG    1        1.192  -1.030  -1.825  0.00  0.00    +0.035 C 
ATOM      3  C   LIG    1        1.181  -1.715  -3.025  0.00  0.00    +0.083 C 
ATOM      4  N   LIG    1        0.037  -2.054  -3.593  0.00  0.00    -0.304 NA
ATOM      5  H   LIG    1        0.052  -2.534  -4.436  0.00  0.00    +0.123 HD
ATOM      6  C   LIG    1       -1.122  -1.756  -3.042  0.00  0.00    +0.127 C 
ATOM      7  S   LIG    1       -2.808  -2.050  -3.518  0.00  0.00    -0.099 S 
ATOM      8  C   LIG    1       -3.623  -1.293  -2.139  0.00  0.00    +0.096 A 
ATOM      9  C   LIG    1       -4.965  -1.113  -1.779  0.00  0.00    +0.268 A 
ATOM     10  N   LIG    1       -5.232  -0.459  -0.624  0.00  0.00    -0.294 N 
ATOM     11  C   LIG    1       -4.203  -0.006   0.136  0.00  0.00    +0.202 A 
ATOM     12  N   LIG    1       -2.959  -0.170  -0.191  0.00  0.00    -0.240 NA
ATOM     13  O   LIG    1       -5.866  -1.534  -2.486  0.00  0.00    -0.266 OA
ATOM     14  C   LIG    1       -2.590  -0.815  -1.335  0.00  0.00    +0.068 A 
ATOM     15  C   LIG    1       -1.225  -1.067  -1.821  0.00  0.00    +0.083 C 
ENDROOT
BRANCH   1  17
ATOM     16  C   LIG    1       -0.018   1.461   0.010  0.00  0.00    +0.104 C 
ATOM     17  N   LIG    1        0.002  -0.004   0.002  0.00  0.00    -0.305 NA
ATOM     18  C   LIG    1        0.024  -0.743   1.267  0.00  0.00    +0.104 C 
ENDBRANCH   1  17
BRANCH  10  19
ATOM     19  C   LIG    1       -6.618  -0.242  -0.200  0.00  0.00    +0.161 C 
BRANCH  19  20
ATOM     20  C   LIG    1       -7.070  -1.402   0.650  0.00  0.00    -0.028 A 
ATOM     21  C   LIG    1       -7.661  -2.503   0.059  0.00  0.00    +0.005 A 
ATOM     22  C   LIG    1       -8.076  -3.567   0.838  0.00  0.00    +0.000 A 
ATOM     23  C   LIG    1       -7.899  -3.530   2.208  0.00  0.00    +0.000 A 
ATOM     24  C   LIG    1       -7.307  -2.429   2.800  0.00  0.00    +0.000 A 
ATOM     25  C   LIG    1       -6.888  -1.367   2.020  0.00  0.00    +0.005 A 
ENDBRANCH  19  20
ENDBRANCH  10  19
TORSDOF 3
