REMARK  Name = ZINC04654890
REMARK                            x       y       z     vdW  Elec       q    Type
REMARK                         _______ _______ _______ _____ _____    ______ ____
ROOT
ATOM      1  N   LIG    1        1.369   4.327   0.010  0.00  0.00    -0.276 N 
ATOM      2  C   LIG    1        0.676   3.127   0.012  0.00  0.00    +0.168 A 
ATOM      3  C   LIG    1       -0.712   3.154   0.025  0.00  0.00    +0.149 A 
ATOM      4  N   LIG    1       -1.125   1.836   0.017  0.00  0.00    -0.339 N 
ATOM      5  C   LIG    1       -0.013   1.076   0.008  0.00  0.00    +0.199 A 
ATOM      6  H   LIG    1       -2.070   1.509   0.018  0.00  0.00    +0.167 HD
ATOM      7  C   LIG    1       -1.376   4.400   0.036  0.00  0.00    +0.282 A 
ATOM      8  N   LIG    1       -0.646   5.535   0.034  0.00  0.00    -0.259 N 
ATOM      9  O   LIG    1       -2.593   4.450   0.048  0.00  0.00    -0.265 OA
ATOM     10  N   LIG    1        1.047   1.844   0.002  0.00  0.00    -0.218 NA
ATOM     11  C   LIG    1        0.697   5.494   0.021  0.00  0.00    +0.334 A 
ATOM     12  O   LIG    1        1.322   6.537   0.021  0.00  0.00    -0.246 OA
ENDROOT
BRANCH   1  13
ATOM     13  C   LIG    1        2.834   4.326  -0.004  0.00  0.00    +0.128 C 
BRANCH  13  15
ATOM     14  C   LIG    1        4.860   4.331  -1.465  0.00  0.00    +0.005 C 
ATOM     15  C   LIG    1        3.330   4.332  -1.451  0.00  0.00    +0.018 C 
ENDBRANCH  13  15
ENDBRANCH   1  13
BRANCH   8  16
ATOM     16  C   LIG    1       -1.328   6.831   0.046  0.00  0.00    +0.130 C 
BRANCH  16  17
ATOM     17  C   LIG    1       -1.579   7.289  -1.392  0.00  0.00    +0.018 C 
ATOM     18  C   LIG    1       -2.291   8.643  -1.380  0.00  0.00    +0.005 C 
ENDBRANCH  16  17
ENDBRANCH   8  16
TORSDOF 4
