REMARK  Name = ZINC04712894
REMARK                            x       y       z     vdW  Elec       q    Type
REMARK                         _______ _______ _______ _____ _____    ______ ____
ROOT
ATOM      1  C   LIG    1       -2.801  -0.033   0.029  0.00  0.00    +0.044 C 
ATOM      2  C   LIG    1       -2.584   1.458   0.035  0.00  0.00    -0.037 A 
ATOM      3  C   LIG    1       -3.667   2.299   0.050  0.00  0.00    +0.024 A 
ATOM      4  C   LIG    1       -3.504   3.677   0.055  0.00  0.00    +0.042 A 
ATOM      5 CL   LIG    1       -4.889   4.723   0.074  0.00  0.00    -0.083 Cl
ATOM      6  C   LIG    1       -2.227   4.211   0.046  0.00  0.00    +0.035 A 
ATOM      7  C   LIG    1       -1.131   3.373   0.031  0.00  0.00    +0.025 A 
ATOM      8  S   LIG    1        0.616   3.686   0.016  0.00  0.00    -0.084 S 
ATOM      9  C   LIG    1        1.224   2.013   0.001  0.00  0.00    +0.077 C 
ATOM     10  C   LIG    1        2.531   1.573  -0.014  0.00  0.00    +0.077 C 
ATOM     11  C   LIG    1        3.035   0.188  -0.026  0.00  0.00    +0.202 C 
ATOM     12  C   LIG    1        4.492   0.037  -0.041  0.00  0.00    +0.040 A 
ATOM     13  C   LIG    1        5.231  -1.170  -0.055  0.00  0.00    -0.037 A 
ATOM     14  C   LIG    1        4.502  -2.489  -0.055  0.00  0.00    +0.044 C 
ATOM     15  C   LIG    1        6.602  -1.154  -0.069  0.00  0.00    +0.024 A 
ATOM     16  C   LIG    1        7.304   0.043  -0.070  0.00  0.00    +0.042 A 
ATOM     17 CL   LIG    1        9.040   0.039  -0.087  0.00  0.00    -0.083 Cl
ATOM     18  C   LIG    1        6.609   1.240  -0.056  0.00  0.00    +0.035 A 
ATOM     19  C   LIG    1        5.230   1.234  -0.042  0.00  0.00    +0.025 A 
ATOM     20  O   LIG    1        2.287  -0.772  -0.024  0.00  0.00    -0.286 OA
ATOM     21  S   LIG    1        4.027   2.539  -0.031  0.00  0.00    -0.084 S 
ATOM     22  C   LIG    1       -0.014   1.213   0.009  0.00  0.00    +0.202 C 
ATOM     23  O   LIG    1        0.002  -0.004   0.002  0.00  0.00    -0.286 OA
ATOM     24  C   LIG    1       -1.267   1.974   0.018  0.00  0.00    +0.040 A 
ENDROOT
TORSDOF 0
