REMARK  Name = ZINC04522200
REMARK                            x       y       z     vdW  Elec       q    Type
REMARK                         _______ _______ _______ _____ _____    ______ ____
ROOT
ATOM      1  C   LIG    1        1.208  -0.679  -0.013  0.00  0.00    +0.020 A 
ATOM      2  C   LIG    1        0.002  -0.004   0.002  0.00  0.00    +0.007 A 
ATOM      3  C   LIG    1       -0.017   1.378   0.010  0.00  0.00    -0.019 A 
ATOM      4  C   LIG    1        1.172   2.086   0.002  0.00  0.00    +0.046 A 
ATOM      5 CL   LIG    1        1.148   3.822   0.011  0.00  0.00    -0.083 Cl
ATOM      6  C   LIG    1        2.379   1.411  -0.013  0.00  0.00    +0.040 A 
ATOM      7  C   LIG    1        2.397   0.028  -0.021  0.00  0.00    +0.042 A 
ATOM      8 CL   LIG    1        3.912  -0.821  -0.039  0.00  0.00    -0.083 Cl
ENDROOT
BRANCH   3   9
ATOM      9  C   LIG    1       -1.332   2.113   0.020  0.00  0.00    +0.102 C 
BRANCH   9  10
ATOM     10  S   LIG    1       -1.852   2.399   1.734  0.00  0.00    -0.174 S 
ATOM     11  H   LIG    1       -3.021   3.053   1.615  0.00  0.00    +0.102 HD
ENDBRANCH   9  10
ENDBRANCH   3   9
TORSDOF 2
