REMARK  Name = ZINC04098600
REMARK                            x       y       z     vdW  Elec       q    Type
REMARK                         _______ _______ _______ _____ _____    ______ ____
ROOT
ATOM      1  C   LIG    1        0.004   1.414   0.309  0.00  0.00    +0.046 A 
ATOM      2  C   LIG    1        1.155   2.098   0.038  0.00  0.00    +0.019 A 
ATOM      3  C   LIG    1        2.373   1.419   0.006  0.00  0.00    +0.068 A 
ATOM      4  C   LIG    1        2.419   0.035   0.251  0.00  0.00    +0.143 A 
ATOM      5  O   LIG    1        3.600  -0.615   0.218  0.00  0.00    -0.451 OA
ATOM      6  C   LIG    1        4.759   0.014  -0.045  0.00  0.00    +0.181 A 
ATOM      7  C   LIG    1        4.824   1.352  -0.296  0.00  0.00    +0.208 A 
ATOM      8  C   LIG    1        1.241  -0.645   0.526  0.00  0.00    +0.092 A 
ATOM      9  C   LIG    1        3.635   2.123  -0.283  0.00  0.00    +0.234 A 
ATOM     10  O   LIG    1        3.654   3.324  -0.503  0.00  0.00    -0.283 OA
ATOM     11  C   LIG    1        0.040   0.043   0.553  0.00  0.00    +0.120 A 
ENDROOT
BRANCH   6  12
ATOM     12  C   LIG    1        6.005  -0.773  -0.062  0.00  0.00    +0.028 A 
ATOM     13  C   LIG    1        7.132  -0.316   0.627  0.00  0.00    +0.061 A 
ATOM     14  C   LIG    1        8.299  -1.056   0.610  0.00  0.00    +0.163 A 
ATOM     15  C   LIG    1        8.354  -2.256  -0.094  0.00  0.00    +0.201 A 
ATOM     16  C   LIG    1        7.234  -2.714  -0.782  0.00  0.00    +0.163 A 
ATOM     17  C   LIG    1        6.062  -1.981  -0.764  0.00  0.00    +0.061 A 
BRANCH  14  18
ATOM     18  O   LIG    1        9.396  -0.612   1.280  0.00  0.00    -0.503 OA
ATOM     19  H   LIG    1        9.448  -0.918   2.196  0.00  0.00    +0.292 HD
ENDBRANCH  14  18
BRANCH  15  20
ATOM     20  O   LIG    1        9.503  -2.982  -0.110  0.00  0.00    -0.501 OA
ATOM     21  H   LIG    1        9.571  -3.627   0.607  0.00  0.00    +0.292 HD
ENDBRANCH  15  20
BRANCH  16  22
ATOM     22  O   LIG    1        7.290  -3.887  -1.469  0.00  0.00    -0.503 OA
ATOM     23  H   LIG    1        7.042  -4.661  -0.946  0.00  0.00    +0.292 HD
ENDBRANCH  16  22
ENDBRANCH   6  12
BRANCH   7  24
ATOM     24  O   LIG    1        6.022   1.944  -0.557  0.00  0.00    -0.501 OA
ATOM     25  H   LIG    1        5.963   2.894  -0.722  0.00  0.00    +0.292 HD
ENDBRANCH   7  24
BRANCH  11  26
ATOM     26  O   LIG    1       -1.112  -0.623   0.822  0.00  0.00    -0.507 OA
ATOM     27  H   LIG    1       -1.556  -0.973   0.037  0.00  0.00    +0.292 HD
ENDBRANCH  11  26
TORSDOF 6
