REMARK  Name = ZINC04692811
REMARK                            x       y       z     vdW  Elec       q    Type
REMARK                         _______ _______ _______ _____ _____    ______ ____
ROOT
ATOM      1  C   LIG    1        3.699  -0.689  -0.037  0.00  0.00    +0.064 A 
ATOM      2  C   LIG    1        4.932  -0.120  -0.041  0.00  0.00    +0.110 A 
ATOM      3  N   LIG    1        5.837  -1.144  -0.057  0.00  0.00    -0.352 N 
ATOM      4  C   LIG    1        5.138  -2.301  -0.064  0.00  0.00    +0.171 A 
ATOM      5  H   LIG    1        6.803  -1.057  -0.063  0.00  0.00    +0.166 HD
ATOM      6  N   LIG    1        3.864  -2.027  -0.046  0.00  0.00    -0.346 N 
ATOM      7  H   LIG    1        3.148  -2.682  -0.043  0.00  0.00    +0.167 HD
ENDROOT
BRANCH   1  11
ATOM      8  C   LIG    1       -0.017   1.379   0.010  0.00  0.00    +0.000 A 
ATOM      9  C   LIG    1        1.169   2.092   0.002  0.00  0.00    +0.001 A 
ATOM     10  C   LIG    1        2.377   1.426  -0.013  0.00  0.00    +0.010 A 
ATOM     11  C   LIG    1        2.402   0.033  -0.021  0.00  0.00    -0.000 A 
ATOM     12  C   LIG    1        1.205  -0.680  -0.013  0.00  0.00    +0.010 A 
ATOM     13  C   LIG    1        0.002  -0.004   0.002  0.00  0.00    +0.001 A 
ENDBRANCH   1  11
TORSDOF 1
