REMARK  Name = ZINC04144845
REMARK                            x       y       z     vdW  Elec       q    Type
REMARK                         _______ _______ _______ _____ _____    ______ ____
ROOT
ATOM      1  N   LIG    1        3.522  -0.546  -0.035  0.00  0.00    -0.204 N 
ATOM      2  H   LIG    1        3.564  -1.515  -0.040  0.00  0.00    +0.177 HD
ENDROOT
BRANCH   1   7
ATOM      3  C   LIG    1        0.002  -0.004   0.002  0.00  0.00    +0.094 A 
ATOM      4  C   LIG    1       -0.017   1.395   0.010  0.00  0.00    +0.163 A 
ATOM      5  N   LIG    1        1.127   2.054   0.002  0.00  0.00    -0.152 NA
ATOM      6  N   LIG    1        2.247   1.421  -0.011  0.00  0.00    -0.112 NA
ATOM      7  C   LIG    1        2.295   0.094  -0.019  0.00  0.00    +0.255 A 
ATOM      8  N   LIG    1        1.181  -0.626  -0.013  0.00  0.00    -0.210 NA
BRANCH   3  12
ATOM      9  C   LIG    1       -3.624  -2.225   0.024  0.00  0.00    +0.120 A 
ATOM     10  C   LIG    1       -2.405  -2.889   0.009  0.00  0.00    +0.046 A 
ATOM     11  C   LIG    1       -1.227  -2.172   0.002  0.00  0.00    +0.013 A 
ATOM     12  C   LIG    1       -1.262  -0.778   0.009  0.00  0.00    +0.002 A 
ATOM     13  C   LIG    1       -2.488  -0.114   0.030  0.00  0.00    +0.013 A 
ATOM     14  C   LIG    1       -3.662  -0.836   0.032  0.00  0.00    +0.046 A 
BRANCH   9  16
ATOM     15  C   LIG    1       -6.000  -2.187   0.046  0.00  0.00    +0.277 C 
ATOM     16  O   LIG    1       -4.782  -2.934   0.031  0.00  0.00    -0.495 OA
ENDBRANCH   9  16
ENDBRANCH   3  12
ENDBRANCH   1   7
BRANCH   1  17
ATOM     17  N   LIG    1        4.704   0.206  -0.042  0.00  0.00    -0.187 NA
ATOM     18  C   LIG    1        5.855  -0.394  -0.056  0.00  0.00    +0.142 C 
BRANCH  18  19
ATOM     19  C   LIG    1        7.099   0.397  -0.064  0.00  0.00    +0.036 A 
ATOM     20  C   LIG    1        8.339  -0.245  -0.073  0.00  0.00    +0.013 A 
ATOM     21  C   LIG    1        9.499   0.501  -0.085  0.00  0.00    +0.001 A 
ATOM     22  C   LIG    1        9.440   1.884  -0.077  0.00  0.00    +0.004 A 
ATOM     23  C   LIG    1        8.218   2.531  -0.062  0.00  0.00    +0.046 A 
ATOM     24  C   LIG    1        7.043   1.797  -0.056  0.00  0.00    +0.130 A 
BRANCH  24  25
ATOM     25  O   LIG    1        5.843   2.432  -0.042  0.00  0.00    -0.480 OA
BRANCH  25  26
ATOM     26  C   LIG    1        5.864   3.861  -0.034  0.00  0.00    +0.349 C 
BRANCH  26  27
ATOM     27  C   LIG    1        4.451   4.385  -0.019  0.00  0.00    +0.343 C 
ATOM     28  O   LIG    1        3.521   3.613  -0.015  0.00  0.00    -0.247 OA
BRANCH  27  29
ATOM     29  O   LIG    1        4.226   5.708  -0.010  0.00  0.00    -0.478 OA
ATOM     30  H   LIG    1        4.947   6.306  -0.013  0.00  0.00    +0.295 HD
ENDBRANCH  27  29
ENDBRANCH  26  27
ENDBRANCH  25  26
ENDBRANCH  24  25
ENDBRANCH  18  19
ENDBRANCH   1  17
TORSDOF 9
