REMARK  Name = ZINC04676424
REMARK                            x       y       z     vdW  Elec       q    Type
REMARK                         _______ _______ _______ _____ _____    ______ ____
ROOT
ATOM      1  S   LIG    1       -2.668  -4.743  -1.693  0.00  0.00    +0.091 S 
ATOM      2  O   LIG    1       -1.403  -4.537  -2.306  0.00  0.00    -0.249 OA
ENDROOT
BRANCH   1   3
ATOM      3  C   LIG    1       -2.780  -6.493  -1.526  0.00  0.00    +0.198 A 
ATOM      4  N   LIG    1       -1.717  -7.339  -1.454  0.00  0.00    -0.331 N 
ATOM      5  C   LIG    1       -2.220  -8.620  -1.327  0.00  0.00    +0.067 A 
ATOM      6  C   LIG    1       -1.640  -9.876  -1.213  0.00  0.00    +0.031 A 
ATOM      7  C   LIG    1       -2.438 -10.994  -1.100  0.00  0.00    +0.048 A 
ATOM      8  C   LIG    1       -3.825 -10.872  -1.100  0.00  0.00    +0.129 A 
ATOM      9  C   LIG    1       -4.417  -9.631  -1.213  0.00  0.00    +0.075 A 
ATOM     10  C   LIG    1       -3.618  -8.489  -1.328  0.00  0.00    +0.093 A 
ATOM     11  H   LIG    1       -0.781  -7.089  -1.486  0.00  0.00    +0.168 HD
ATOM     12  N   LIG    1       -3.892  -7.165  -1.447  0.00  0.00    -0.220 NA
BRANCH   8  13
ATOM     13  O   LIG    1       -4.600 -11.983  -0.988  0.00  0.00    -0.434 OA
BRANCH  13  14
ATOM     14  C   LIG    1       -3.925 -13.237  -0.874  0.00  0.00    +0.541 C 
ATOM     15  F   LIG    1       -3.114 -13.229   0.266  0.00  0.00    -0.166 F 
ATOM     16  F   LIG    1       -3.132 -13.445  -2.009  0.00  0.00    -0.166 F 
ENDBRANCH  13  14
ENDBRANCH   8  13
ENDBRANCH   1   3
BRANCH   1  17
ATOM     17  C   LIG    1       -2.617  -4.141   0.017  0.00  0.00    +0.133 C 
BRANCH  17  23
ATOM     18  C   LIG    1       -1.200  -0.637   0.010  0.00  0.00    +0.149 C 
ATOM     19  C   LIG    1       -2.387   0.087   0.019  0.00  0.00    +0.049 C 
ATOM     20  C   LIG    1       -3.589  -0.593   0.027  0.00  0.00    +0.084 C 
ATOM     21  N   LIG    1       -3.622  -1.912   0.026  0.00  0.00    -0.310 NA
ATOM     22  H   LIG    1       -4.482  -2.361   0.032  0.00  0.00    +0.122 HD
ATOM     23  C   LIG    1       -2.520  -2.637   0.018  0.00  0.00    +0.098 C 
ATOM     24  C   LIG    1       -1.275  -2.032   0.003  0.00  0.00    +0.164 C 
BRANCH  18  26
ATOM     25  C   LIG    1       -0.017   1.425   0.010  0.00  0.00    +0.194 C 
ATOM     26  O   LIG    1        0.002  -0.004   0.002  0.00  0.00    -0.377 OA
ENDBRANCH  18  26
BRANCH  24  27
ATOM     27  O   LIG    1       -0.142  -2.784  -0.011  0.00  0.00    -0.376 OA
ATOM     28  C   LIG    1        0.410  -3.150   1.255  0.00  0.00    +0.194 C 
ENDBRANCH  24  27
ENDBRANCH  17  23
ENDBRANCH   1  17
TORSDOF 7
