REMARK  Name = ZINC04098814
REMARK                            x       y       z     vdW  Elec       q    Type
REMARK                         _______ _______ _______ _____ _____    ______ ____
ROOT
ATOM      1  C   LIG    1       -1.635  -1.860   0.525  0.00  0.00    +0.015 C 
ATOM      2  C   LIG    1       -1.438  -0.521  -0.189  0.00  0.00    +0.075 C 
ATOM      3  C   LIG    1       -1.525  -0.697  -1.725  0.00  0.00    +0.210 C 
ATOM      4  O   LIG    1       -0.223  -0.278  -2.252  0.00  0.00    -0.485 OA
ATOM      5  C   LIG    1        0.685  -0.485  -1.273  0.00  0.00    +0.138 C 
ATOM      6  C   LIG    1        1.897  -1.040  -1.186  0.00  0.00    +0.095 C 
ATOM      7  C   LIG    1        2.479  -1.301   0.080  0.00  0.00    +0.185 C 
ATOM      8  C   LIG    1        1.720  -1.117   1.325  0.00  0.00    +0.002 C 
ATOM      9  C   LIG    1        0.547  -0.492   1.317  0.00  0.00    +0.023 C 
ATOM     10  O   LIG    1        3.633  -1.687   0.137  0.00  0.00    -0.288 OA
ATOM     11  C   LIG    1        0.002  -0.004   0.002  0.00  0.00    +0.151 C 
ENDROOT
BRANCH   3  12
ATOM     12  C   LIG    1       -2.619   0.174  -2.287  0.00  0.00    -0.003 A 
ATOM     13  C   LIG    1       -2.370   1.509  -2.549  0.00  0.00    +0.011 A 
ATOM     14  C   LIG    1       -3.368   2.311  -3.070  0.00  0.00    +0.050 A 
ATOM     15  C   LIG    1       -4.624   1.781  -3.320  0.00  0.00    +0.162 A 
ATOM     16  C   LIG    1       -4.875   0.439  -3.051  0.00  0.00    +0.162 A 
ATOM     17  C   LIG    1       -3.869  -0.361  -2.534  0.00  0.00    +0.056 A 
BRANCH  15  18
ATOM     18  O   LIG    1       -5.608   2.570  -3.828  0.00  0.00    -0.491 OA
ATOM     19  C   LIG    1       -5.278   3.938  -4.080  0.00  0.00    +0.277 C 
ENDBRANCH  15  18
BRANCH  16  20
ATOM     20  O   LIG    1       -6.106  -0.086  -3.295  0.00  0.00    -0.491 OA
ATOM     21  C   LIG    1       -6.291  -1.471  -2.995  0.00  0.00    +0.277 C 
ENDBRANCH  16  20
ENDBRANCH   3  12
BRANCH  11  22
ATOM     22  O   LIG    1       -0.017   1.425   0.010  0.00  0.00    -0.364 OA
ATOM     23  C   LIG    1        1.280   2.024   0.001  0.00  0.00    +0.195 C 
ENDBRANCH  11  22
BRANCH   8  24
ATOM     24  C   LIG    1        2.291  -1.619   2.627  0.00  0.00    +0.065 C 
BRANCH  24  25
ATOM     25  C   LIG    1        1.946  -3.076   2.798  0.00  0.00    -0.030 C 
ATOM     26  C   LIG    1        2.895  -3.954   3.006  0.00  0.00    +0.004 C 
ENDBRANCH  24  25
ENDBRANCH   8  24
TORSDOF 6
