REMARK  Name = ZINC04325276
REMARK                            x       y       z     vdW  Elec       q    Type
REMARK                         _______ _______ _______ _____ _____    ______ ____
ROOT
ATOM      1  C   LIG    1        2.696  -1.862  -4.731  0.00  0.00    +0.248 C 
ATOM      2  N   LIG    1        3.981  -1.520  -4.953  0.00  0.00    -0.281 N 
ATOM      3  H   LIG    1        4.429  -0.904  -4.354  0.00  0.00    +0.155 HD
ATOM      4  O   LIG    1        2.108  -2.567  -5.527  0.00  0.00    -0.270 OA
ENDROOT
BRANCH   1   8
ATOM      5  C   LIG    1        0.701  -0.472  -1.248  0.00  0.00    -0.042 A 
ATOM      6  C   LIG    1        0.029  -1.275  -2.153  0.00  0.00    +0.005 A 
ATOM      7  C   LIG    1        0.671  -1.730  -3.286  0.00  0.00    +0.013 A 
ATOM      8  C   LIG    1        2.002  -1.378  -3.519  0.00  0.00    +0.037 A 
ATOM      9  C   LIG    1        2.674  -0.568  -2.602  0.00  0.00    +0.013 A 
ATOM     10  C   LIG    1        2.019  -0.115  -1.476  0.00  0.00    +0.005 A 
BRANCH   5  12
ATOM     11  C   LIG    1       -0.031   1.550  -0.015  0.00  0.00    +0.015 C 
ATOM     12  C   LIG    1       -0.006   0.021  -0.012  0.00  0.00    -0.013 C 
ATOM     13  C   LIG    1       -1.440  -0.512   0.001  0.00  0.00    +0.015 C 
ATOM     14  C   LIG    1        0.734  -0.476   1.231  0.00  0.00    +0.015 C 
ENDBRANCH   5  12
ENDBRANCH   1   8
BRANCH   2  15
ATOM     15  C   LIG    1        4.668  -2.056  -6.048  0.00  0.00    +0.036 A 
ATOM     16  C   LIG    1        6.020  -2.353  -5.943  0.00  0.00    +0.023 A 
ATOM     17  C   LIG    1        6.695  -2.882  -7.026  0.00  0.00    +0.004 A 
ATOM     18  C   LIG    1        6.026  -3.114  -8.213  0.00  0.00    +0.028 A 
ATOM     19  C   LIG    1        4.679  -2.819  -8.321  0.00  0.00    +0.107 A 
ATOM     20  C   LIG    1        3.997  -2.296  -7.240  0.00  0.00    +0.051 A 
BRANCH  19  21
ATOM     21  S   LIG    1        3.832  -3.116  -9.837  0.00  0.00    +0.056 S 
ATOM     22  O   LIG    1        4.816  -3.105 -10.862  0.00  0.00    -0.153 OA
ATOM     23  O   LIG    1        2.707  -2.247  -9.850  0.00  0.00    -0.153 OA
BRANCH  21  24
ATOM     24  N   LIG    1        3.236  -4.660  -9.770  0.00  0.00    -0.204 NA
ATOM     25  H   LIG    1        2.732  -5.018 -10.517  0.00  0.00    +0.144 HD
ATOM     26  H   LIG    1        3.391  -5.206  -8.983  0.00  0.00    +0.144 HD
ENDBRANCH  21  24
ENDBRANCH  19  21
ENDBRANCH   2  15
TORSDOF 5
