REMARK  Name = ZINC04419293
REMARK                            x       y       z     vdW  Elec       q    Type
REMARK                         _______ _______ _______ _____ _____    ______ ____
ROOT
ATOM      1  O   LIG    1        4.205  -0.566  -0.041  0.00  0.00    -0.419 OA
ENDROOT
BRANCH   1   2
ATOM      2  C   LIG    1        5.559  -0.553  -0.159  0.00  0.00    +0.151 A 
ATOM      3  C   LIG    1        6.358  -0.199   0.924  0.00  0.00    +0.069 A 
ATOM      4  C   LIG    1        7.734  -0.201   0.756  0.00  0.00    +0.063 A 
ATOM      5 CL   LIG    1        8.780   0.232   2.072  0.00  0.00    -0.082 Cl
ATOM      6  C   LIG    1        8.263  -0.552  -0.473  0.00  0.00    +0.131 A 
ATOM      7  N   LIG    1        7.477  -0.882  -1.479  0.00  0.00    -0.258 NA
ATOM      8  C   LIG    1        6.164  -0.897  -1.358  0.00  0.00    +0.157 A 
ENDBRANCH   1   2
BRANCH   1   9
ATOM      9  C   LIG    1        3.556   0.617  -0.067  0.00  0.00    +0.380 C 
ATOM     10  O   LIG    1        4.186   1.656  -0.102  0.00  0.00    -0.241 OA
BRANCH   9  13
ATOM     11  C   LIG    1       -0.022   1.336  -0.051  0.00  0.00    +0.042 A 
ATOM     12  C   LIG    1        1.312   1.771  -0.076  0.00  0.00    +0.056 A 
ATOM     13  C   LIG    1        2.091   0.649  -0.053  0.00  0.00    +0.212 A 
ATOM     14  O   LIG    1        1.275  -0.425  -0.015  0.00  0.00    -0.456 OA
ATOM     15  C   LIG    1        0.001  -0.015  -0.014  0.00  0.00    +0.196 A 
ENDBRANCH   9  13
ENDBRANCH   1   9
TORSDOF 3
