REMARK  Name = ZINC04809571
REMARK                            x       y       z     vdW  Elec       q    Type
REMARK                         _______ _______ _______ _____ _____    ______ ____
ROOT
ATOM      1  C   LIG    1       -2.193   0.390   4.493  0.00  0.00    +0.077 C 
ATOM      2  C   LIG    1       -1.835  -0.134   5.856  0.00  0.00    +0.007 A 
ATOM      3  C   LIG    1       -0.517  -0.414   6.162  0.00  0.00    +0.053 A 
ATOM      4  C   LIG    1       -0.184  -0.899   7.418  0.00  0.00    +0.121 A 
ATOM      5  C   LIG    1       -1.175  -1.103   8.367  0.00  0.00    +0.049 A 
ATOM      6  C   LIG    1       -2.491  -0.823   8.061  0.00  0.00    +0.050 A 
ATOM      7  C   LIG    1       -2.826  -0.338   6.803  0.00  0.00    +0.132 A 
ATOM      8  O   LIG    1       -4.119  -0.066   6.508  0.00  0.00    -0.460 OA
ATOM      9  C   LIG    1       -4.529  -0.026   5.227  0.00  0.00    +0.113 C 
ATOM     10  C   LIG    1       -6.002  -0.222   4.950  0.00  0.00    +0.081 C 
ATOM     11  C   LIG    1       -6.183  -0.905   3.597  0.00  0.00    -0.021 C 
ATOM     12  C   LIG    1       -5.502  -2.275   3.607  0.00  0.00    +0.012 C 
ATOM     13  C   LIG    1       -7.675  -1.069   3.301  0.00  0.00    +0.012 C 
ATOM     14  C   LIG    1       -5.540  -0.018   2.525  0.00  0.00    +0.086 C 
ATOM     15  C   LIG    1       -4.096   0.208   2.883  0.00  0.00    +0.164 C 
ATOM     16  O   LIG    1       -3.290   0.419   1.999  0.00  0.00    -0.292 OA
ATOM     17  C   LIG    1       -3.662   0.180   4.221  0.00  0.00    +0.042 C 
ENDROOT
BRANCH   1  24
ATOM     18  C   LIG    1        1.215  -2.371   4.758  0.00  0.00    +0.012 C 
ATOM     19  C   LIG    1        0.953  -2.257   3.255  0.00  0.00    -0.022 C 
ATOM     20  C   LIG    1        1.958  -3.125   2.496  0.00  0.00    +0.012 C 
ATOM     21  C   LIG    1        1.111  -0.797   2.820  0.00  0.00    +0.082 C 
ATOM     22  C   LIG    1        0.087   0.047   3.545  0.00  0.00    +0.145 C 
ATOM     23  O   LIG    1        0.422   1.009   4.193  0.00  0.00    -0.297 OA
ATOM     24  C   LIG    1       -1.372  -0.349   3.434  0.00  0.00    +0.133 C 
ATOM     25  C   LIG    1       -1.455  -1.844   3.669  0.00  0.00    +0.145 C 
ATOM     26  O   LIG    1       -2.285  -2.310   4.411  0.00  0.00    -0.297 OA
ATOM     27  C   LIG    1       -0.469  -2.734   2.948  0.00  0.00    +0.082 C 
ENDBRANCH   1  24
BRANCH   4  28
ATOM     28  O   LIG    1        1.113  -1.175   7.719  0.00  0.00    -0.495 OA
ATOM     29  C   LIG    1        1.383  -1.673   9.031  0.00  0.00    +0.277 C 
ENDBRANCH   4  28
TORSDOF 2
