REMARK  Name = ZINC04530702
REMARK                            x       y       z     vdW  Elec       q    Type
REMARK                         _______ _______ _______ _____ _____    ______ ____
ROOT
ATOM      1  C   LIG    1        3.716  -2.186  -0.046  0.00  0.00    +0.159 C 
ENDROOT
BRANCH   1   2
ATOM      2  C   LIG    1        3.691  -0.679  -0.038  0.00  0.00    +0.171 C 
ATOM      3  O   LIG    1        4.731  -0.056  -0.045  0.00  0.00    -0.292 OA
BRANCH   2   7
ATOM      4  C   LIG    1       -0.017   1.380   0.010  0.00  0.00    +0.000 A 
ATOM      5  C   LIG    1        1.168   2.095   0.002  0.00  0.00    +0.001 A 
ATOM      6  C   LIG    1        2.377   1.433  -0.013  0.00  0.00    +0.011 A 
ATOM      7  C   LIG    1        2.405   0.035  -0.021  0.00  0.00    +0.018 A 
ATOM      8  C   LIG    1        1.203  -0.681  -0.013  0.00  0.00    +0.011 A 
ATOM      9  C   LIG    1        0.002  -0.004   0.002  0.00  0.00    +0.001 A 
ENDBRANCH   2   7
ENDBRANCH   1   2
BRANCH   1  10
ATOM     10  C   LIG    1        5.145  -2.665  -0.064  0.00  0.00    +0.171 C 
ATOM     11  O   LIG    1        6.054  -1.862  -0.069  0.00  0.00    -0.292 OA
BRANCH  10  12
ATOM     12  C   LIG    1        5.438  -4.107  -0.074  0.00  0.00    +0.018 A 
ATOM     13  C   LIG    1        4.393  -5.037  -0.074  0.00  0.00    +0.011 A 
ATOM     14  C   LIG    1        4.676  -6.386  -0.085  0.00  0.00    +0.001 A 
ATOM     15  C   LIG    1        5.989  -6.822  -0.095  0.00  0.00    +0.000 A 
ATOM     16  C   LIG    1        7.029  -5.908  -0.095  0.00  0.00    +0.001 A 
ATOM     17  C   LIG    1        6.763  -4.555  -0.090  0.00  0.00    +0.011 A 
ENDBRANCH  10  12
ENDBRANCH   1  10
TORSDOF 4
