REMARK  Name = ZINC04335977
REMARK                            x       y       z     vdW  Elec       q    Type
REMARK                         _______ _______ _______ _____ _____    ______ ____
ROOT
ATOM      1  C   LIG    1       -0.017   1.386   0.010  0.00  0.00    +0.003 A 
ATOM      2  C   LIG    1        1.117   2.195   0.003  0.00  0.00    +0.012 A 
ATOM      3  C   LIG    1        2.371   1.615  -0.002  0.00  0.00    +0.030 A 
ATOM      4  C   LIG    1        2.381   0.205   0.022  0.00  0.00    +0.040 A 
ATOM      5  C   LIG    1        1.255  -0.634  -0.001  0.00  0.00    +0.096 A 
ATOM      6  N   LIG    1        1.753  -1.866  -0.039  0.00  0.00    -0.149 NA
ATOM      7  N   LIG    1        3.058  -1.883  -0.021  0.00  0.00    -0.148 NA
ATOM      8  C   LIG    1        3.564  -0.657   0.055  0.00  0.00    +0.100 C 
ATOM      9  C   LIG    1        4.809  -0.049   0.208  0.00  0.00    -0.005 C 
ATOM     10  C   LIG    1        5.989  -0.770   0.066  0.00  0.00    +0.007 C 
ATOM     11  C   LIG    1        7.192  -0.131   0.028  0.00  0.00    +0.000 C 
ATOM     12  C   LIG    1        7.264   1.279   0.051  0.00  0.00    -0.003 C 
ATOM     13  C   LIG    1        6.181   2.026   0.275  0.00  0.00    -0.011 C 
ATOM     14  C   LIG    1        4.847   1.421   0.536  0.00  0.00    +0.115 C 
ATOM     15  C   LIG    1        3.707   2.220  -0.035  0.00  0.00    +0.175 C 
ATOM     16  O   LIG    1        3.885   3.325  -0.504  0.00  0.00    -0.291 OA
ATOM     17  C   LIG    1        0.002  -0.004   0.002  0.00  0.00    +0.030 A 
ENDROOT
TORSDOF 0
