REMARK  Name = ZINC04757753
REMARK                            x       y       z     vdW  Elec       q    Type
REMARK                         _______ _______ _______ _____ _____    ______ ____
ROOT
ATOM      1  C   LIG    1       -2.553  -4.149   0.017  0.00  0.00    +0.077 A 
ATOM      2  C   LIG    1       -3.783  -4.805  -0.084  0.00  0.00    +0.060 A 
ATOM      3  C   LIG    1       -3.793  -6.188  -0.080  0.00  0.00    +0.149 A 
ATOM      4  N   LIG    1       -2.648  -6.845   0.018  0.00  0.00    -0.210 NA
ATOM      5  C   LIG    1       -1.496  -6.196   0.113  0.00  0.00    +0.216 A 
ATOM      6  N   LIG    1       -1.441  -4.873   0.108  0.00  0.00    -0.214 NA
ENDROOT
BRANCH   1  11
ATOM      7  C   LIG    1       -1.200  -0.637   0.010  0.00  0.00    +0.121 A 
ATOM      8  C   LIG    1       -2.375   0.103   0.020  0.00  0.00    +0.045 A 
ATOM      9  C   LIG    1       -3.600  -0.537   0.028  0.00  0.00    +0.004 A 
ATOM     10  C   LIG    1       -3.663  -1.916   0.028  0.00  0.00    +0.010 A 
ATOM     11  C   LIG    1       -2.489  -2.667   0.018  0.00  0.00    +0.004 A 
ATOM     12  C   LIG    1       -1.254  -2.021   0.003  0.00  0.00    +0.055 A 
BRANCH   7  14
ATOM     13  C   LIG    1       -0.017   1.425   0.010  0.00  0.00    +0.277 C 
ATOM     14  O   LIG    1        0.002  -0.004   0.002  0.00  0.00    -0.495 OA
ENDBRANCH   7  14
ENDBRANCH   1  11
BRANCH   3  15
ATOM     15  C   LIG    1       -5.095  -6.940  -0.187  0.00  0.00    +0.434 C 
ATOM     16  F   LIG    1       -6.120  -6.181   0.387  0.00  0.00    -0.164 F 
ATOM     17  F   LIG    1       -4.985  -8.161   0.488  0.00  0.00    -0.164 F 
ATOM     18  F   LIG    1       -5.388  -7.177  -1.534  0.00  0.00    -0.164 F 
ENDBRANCH   3  15
BRANCH   5  19
ATOM     19  N   LIG    1       -0.321  -6.920   0.213  0.00  0.00    -0.309 N 
ATOM     20  H   LIG    1        0.529  -6.458   0.283  0.00  0.00    +0.149 HD
BRANCH  19  21
ATOM     21  C   LIG    1       -0.361  -8.385   0.215  0.00  0.00    +0.139 C 
BRANCH  21  22
ATOM     22  C   LIG    1        1.041  -8.925   0.334  0.00  0.00    -0.030 A 
ATOM     23  C   LIG    1        1.786  -9.171  -0.804  0.00  0.00    +0.008 A 
ATOM     24  C   LIG    1        3.071  -9.666  -0.696  0.00  0.00    +0.038 A 
ATOM     25  C   LIG    1        3.614  -9.916   0.553  0.00  0.00    +0.123 A 
ATOM     26  F   LIG    1        4.870 -10.400   0.660  0.00  0.00    -0.205 F 
ATOM     27  C   LIG    1        2.867  -9.669   1.693  0.00  0.00    +0.038 A 
ATOM     28  C   LIG    1        1.583  -9.169   1.582  0.00  0.00    +0.008 A 
ENDBRANCH  21  22
ENDBRANCH  19  21
ENDBRANCH   5  19
TORSDOF 6
