REMARK  Name = ZINC04715147
REMARK                            x       y       z     vdW  Elec       q    Type
REMARK                         _______ _______ _______ _____ _____    ______ ____
ROOT
ATOM      1  C   LIG    1       -4.977   1.166   0.032  0.00  0.00    +0.171 C 
ATOM      2  O   LIG    1       -4.966  -0.046   0.025  0.00  0.00    -0.292 OA
ENDROOT
BRANCH   1   3
ATOM      3  C   LIG    1       -3.709   1.913   0.030  0.00  0.00    +0.020 A 
ATOM      4  C   LIG    1       -3.718   3.312   0.039  0.00  0.00    +0.011 A 
ATOM      5  C   LIG    1       -2.526   4.005   0.037  0.00  0.00    +0.003 A 
ATOM      6  C   LIG    1       -1.323   3.320   0.032  0.00  0.00    +0.032 A 
ATOM      7  C   LIG    1       -1.306   1.936   0.019  0.00  0.00    +0.122 A 
ATOM      8  C   LIG    1       -2.490   1.229   0.021  0.00  0.00    +0.044 A 
BRANCH   7   9
ATOM      9  N   LIG    1       -0.014   1.214   0.009  0.00  0.00    +0.006 N 
ATOM     10  O   LIG    1        0.002  -0.004   0.002  0.00  0.00    -0.130 OA
BRANCH   9  11
ATOM     11  O   LIG    1        1.032   1.837   0.002  0.00  0.00    -0.396 OA
ATOM     12  H   LIG    1        1.019   2.774   0.007  0.00  0.00    +0.329 HD
ENDBRANCH   9  11
ENDBRANCH   7   9
ENDBRANCH   1   3
BRANCH   1  13
ATOM     13  C   LIG    1       -6.289   1.908   0.043  0.00  0.00    +0.159 C 
BRANCH  13  14
ATOM     14  C   LIG    1       -7.425   0.918   0.042  0.00  0.00    +0.171 C 
ATOM     15  O   LIG    1       -7.193  -0.272   0.034  0.00  0.00    -0.292 OA
BRANCH  14  19
ATOM     16  C   LIG    1      -11.431   2.294   0.069  0.00  0.00    +0.120 A 
ATOM     17  C   LIG    1      -11.167   0.928   0.060  0.00  0.00    +0.046 A 
ATOM     18  C   LIG    1       -9.872   0.478   0.051  0.00  0.00    +0.015 A 
ATOM     19  C   LIG    1       -8.814   1.395   0.052  0.00  0.00    +0.018 A 
ATOM     20  C   LIG    1       -9.085   2.769   0.067  0.00  0.00    +0.015 A 
ATOM     21  C   LIG    1      -10.384   3.209   0.070  0.00  0.00    +0.046 A 
BRANCH  16  23
ATOM     22  C   LIG    1      -12.914   4.149   0.087  0.00  0.00    +0.277 C 
ATOM     23  O   LIG    1      -12.714   2.734   0.078  0.00  0.00    -0.495 OA
ENDBRANCH  16  23
ENDBRANCH  14  19
ENDBRANCH  13  14
ENDBRANCH   1  13
TORSDOF 7
