REMARK  Name = ZINC04228242
REMARK                            x       y       z     vdW  Elec       q    Type
REMARK                         _______ _______ _______ _____ _____    ______ ____
ROOT
ATOM      1  C   LIG    1        0.545  -3.135  -0.020  0.00  0.00    +0.253 C 
ATOM      2  C   LIG    1        0.118  -3.484  -1.463  0.00  0.00    +0.195 C 
ATOM      3  C   LIG    1        0.013  -5.026  -1.461  0.00  0.00    +0.178 C 
ATOM      4  C   LIG    1        0.388  -5.426  -0.017  0.00  0.00    +0.178 C 
ATOM      5  O   LIG    1        1.190  -4.329   0.476  0.00  0.00    -0.346 OA
ENDROOT
BRANCH   1  11
ATOM      6  C   LIG    1       -0.016   1.299   0.009  0.00  0.00    +0.201 A 
ATOM      7  N   LIG    1        1.123   2.038   0.002  0.00  0.00    -0.312 N 
ATOM      8  C   LIG    1        2.331   1.431  -0.013  0.00  0.00    +0.279 A 
ATOM      9  C   LIG    1        2.369   0.015  -0.021  0.00  0.00    +0.172 A 
ATOM     10  C   LIG    1        1.157  -0.684  -0.013  0.00  0.00    +0.169 A 
ATOM     11  N   LIG    1        1.484  -2.012  -0.023  0.00  0.00    -0.285 N 
ATOM     12  C   LIG    1        2.845  -2.099  -0.036  0.00  0.00    +0.203 A 
ATOM     13  N   LIG    1        3.362  -0.904  -0.035  0.00  0.00    -0.229 NA
ATOM     14  O   LIG    1        3.360   2.085  -0.018  0.00  0.00    -0.265 OA
ATOM     15  H   LIG    1        1.070   3.006   0.008  0.00  0.00    +0.170 HD
ATOM     16  N   LIG    1        0.002  -0.004   0.002  0.00  0.00    -0.218 NA
ENDBRANCH   1  11
BRANCH   2  17
ATOM     17  O   LIG    1       -1.147  -2.894  -1.768  0.00  0.00    -0.385 OA
ATOM     18  H   LIG    1       -1.462  -3.081  -2.663  0.00  0.00    +0.210 HD
ENDBRANCH   2  17
BRANCH   3  19
ATOM     19  O   LIG    1       -1.321  -5.437  -1.767  0.00  0.00    -0.386 OA
ATOM     20  H   LIG    1       -1.627  -5.159  -2.641  0.00  0.00    +0.210 HD
ENDBRANCH   3  19
BRANCH   4  21
ATOM     21  C   LIG    1        1.199  -6.724  -0.017  0.00  0.00    +0.206 C 
BRANCH  21  22
ATOM     22  O   LIG    1        1.435  -7.138   1.330  0.00  0.00    -0.284 OA
BRANCH  22  23
ATOM     23  P   LIG    1        2.260  -8.468   1.706  0.00  0.00    +0.472 P 
ATOM     24  O   LIG    1        3.649  -8.421   1.031  0.00  0.00    -0.228 OA
BRANCH  23  25
ATOM     25  O   LIG    1        1.488  -9.711   1.210  0.00  0.00    -0.303 OA
ATOM     26  H   LIG    1        1.378  -9.660   0.248  0.00  0.00    +0.222 HD
ENDBRANCH  23  25
BRANCH  23  27
ATOM     27  O   LIG    1        2.442  -8.553   3.304  0.00  0.00    -0.303 OA
ATOM     28  H   LIG    1        2.932  -9.331   3.603  0.00  0.00    +0.222 HD
ENDBRANCH  23  27
ENDBRANCH  22  23
ENDBRANCH  21  22
ENDBRANCH   4  21
TORSDOF 8
