REMARK  Name = ZINC04245692
REMARK                            x       y       z     vdW  Elec       q    Type
REMARK                         _______ _______ _______ _____ _____    ______ ____
ROOT
ATOM      1  C   LIG    1        1.392  -0.359   1.271  0.00  0.00    +0.122 A 
ATOM      2  C   LIG    1        1.934   0.340   2.343  0.00  0.00    +0.046 A 
ATOM      3  C   LIG    1        2.461  -0.300   3.437  0.00  0.00    +0.014 A 
ATOM      4  C   LIG    1        2.429  -1.698   3.431  0.00  0.00    +0.003 A 
ATOM      5  C   LIG    1        1.878  -2.419   2.340  0.00  0.00    +0.050 A 
ATOM      6  N   LIG    1        1.993  -3.749   2.629  0.00  0.00    -0.359 N 
ATOM      7  C   LIG    1        2.589  -3.907   3.851  0.00  0.00    +0.007 A 
ATOM      8  C   LIG    1        2.908  -5.199   4.561  0.00  0.00    -0.020 C 
ATOM      9  C   LIG    1        3.466  -6.221   3.570  0.00  0.00    -0.005 C 
ATOM     10  C   LIG    1        3.767  -7.523   4.323  0.00  0.00    +0.006 C 
ATOM     11  C   LIG    1        4.752  -7.227   5.455  0.00  0.00    -0.021 C 
ATOM     12  C   LIG    1        5.014  -8.495   6.266  0.00  0.00    +0.036 C 
ATOM     13  C   LIG    1        3.699  -9.015   6.849  0.00  0.00    +0.144 C 
ATOM     14  C   LIG    1        2.728  -9.328   5.708  0.00  0.00    +0.160 C 
ATOM     15  C   LIG    1        4.147  -6.152   6.380  0.00  0.00    -0.074 C 
ATOM     16  C   LIG    1        2.460  -8.077   4.896  0.00  0.00    +0.132 C 
ATOM     17  N   LIG    1        3.909  -4.931   5.602  0.00  0.00    +0.386 N 
ATOM     18  H   LIG    1        4.770  -4.654   5.154  0.00  0.00    -0.081 HD
ATOM     19  C   LIG    1        3.458  -3.846   6.478  0.00  0.00    -0.073 C 
ATOM     20  C   LIG    1        3.537  -2.511   5.723  0.00  0.00    +0.019 C 
ATOM     21  H   LIG    1        1.698  -4.472   2.055  0.00  0.00    +0.166 HD
ATOM     22  C   LIG    1        2.875  -2.694   4.380  0.00  0.00    -0.022 A 
ATOM     23  C   LIG    1        1.344  -1.747   1.243  0.00  0.00    +0.071 A 
ENDROOT
BRANCH   1  25
ATOM     24  C   LIG    1        0.957   1.764   0.292  0.00  0.00    +0.277 C 
ATOM     25  O   LIG    1        0.886   0.338   0.219  0.00  0.00    -0.495 OA
ENDBRANCH   1  25
BRANCH  13  26
ATOM     26  O   LIG    1        3.128  -8.020   7.702  0.00  0.00    -0.389 OA
ATOM     27  H   LIG    1        3.692  -7.770   8.447  0.00  0.00    +0.210 HD
ENDBRANCH  13  26
BRANCH  14  28
ATOM     28  O   LIG    1        3.304 -10.315   4.850  0.00  0.00    -0.376 OA
ATOM     29  C   LIG    1        2.995 -11.660   5.222  0.00  0.00    +0.194 C 
ENDBRANCH  14  28
BRANCH  16  30
ATOM     30  C   LIG    1        1.839  -7.053   5.810  0.00  0.00    +0.311 C 
ATOM     31  O   LIG    1        1.042  -6.244   5.367  0.00  0.00    -0.251 OA
BRANCH  30  32
ATOM     32  O   LIG    1        2.135  -7.033   6.993  0.00  0.00    -0.480 OA
ATOM     33  H   LIG    1        2.748  -7.654   7.333  0.00  0.00    +0.295 HD
ENDBRANCH  30  32
ENDBRANCH  16  30
TORSDOF 5
