REMARK  Name = ZINC04280685
REMARK                            x       y       z     vdW  Elec       q    Type
REMARK                         _______ _______ _______ _____ _____    ______ ____
ROOT
ATOM      1  CA  CYS A  1       -0.117   1.113   2.489  0.00  0.00    +0.048 C 
ENDROOT
BRANCH   1   3
ATOM      2  C   ACE A  0       -1.417   0.613   0.508  0.00  0.00    -0.099 C 
ATOM      3  N   CYS A  1       -0.873   1.688   1.360  0.00  0.00    +0.387 N 
ATOM      4  H1  CYS A  1       -0.247   2.279   0.800  0.00  0.00    -0.085 HD
ATOM      5  H2  CYS A  1       -1.647   2.256   1.724  0.00  0.00    -0.085 HD
ENDBRANCH   1   3
BRANCH   1   6
ATOM      6  C   CYS A  1       -1.058   0.834   3.633  0.00  0.00    +0.291 C 
ATOM      7  O   CYS A  1       -2.236   1.079   3.520  0.00  0.00    -0.253 OA
BRANCH   6   8
ATOM      8  OXT CYS A  1       -0.588   0.312   4.777  0.00  0.00    -0.482 OA
ATOM      9  HXT CYS A  1        0.326   0.122   4.864  0.00  0.00    +0.295 HD
ENDBRANCH   6   8
ENDBRANCH   1   6
BRANCH   1  10
ATOM     10  CB  CYS A  1        0.950   2.113   2.939  0.00  0.00    +0.061 C 
BRANCH  10  11
ATOM     11  SG  CYS A  1        2.175   2.326   1.618  0.00  0.00    -0.179 S 
ATOM     12  HG  CYS A  1        3.049   3.214   2.125  0.00  0.00    +0.102 HD
ENDBRANCH  10  11
ENDBRANCH   1  10
TORSDOF 5
