REMARK  Name = ZINC04428529
REMARK                            x       y       z     vdW  Elec       q    Type
REMARK                         _______ _______ _______ _____ _____    ______ ____
ROOT
ATOM      1  C   LIG    1       -1.290  -0.773   0.016  0.00  0.00    +0.061 C 
ATOM      2  C   LIG    1       -1.794  -0.983  -1.434  0.00  0.00    +0.012 C 
ATOM      3  C   LIG    1       -1.931  -2.517  -1.632  0.00  0.00    +0.005 C 
ATOM      4  C   LIG    1       -2.107  -3.034  -0.200  0.00  0.00    -0.001 C 
ATOM      5  C   LIG    1       -1.758  -4.494   0.021  0.00  0.00    -0.003 C 
ATOM      6  C   LIG    1       -2.727  -5.382  -0.766  0.00  0.00    +0.008 C 
ATOM      7  C   LIG    1       -2.319  -6.847  -0.592  0.00  0.00    +0.032 C 
ATOM      8  C   LIG    1       -2.264  -7.166   0.891  0.00  0.00    -0.060 C 
ATOM      9  C   LIG    1       -2.882  -8.270   1.310  0.00  0.00    +0.046 C 
ATOM     10  C   LIG    1       -2.849  -8.636   2.730  0.00  0.00    +0.156 C 
ATOM     11  C   LIG    1       -1.729  -8.037   3.557  0.00  0.00    +0.080 C 
ATOM     12  C   LIG    1       -1.707  -6.535   3.278  0.00  0.00    +0.019 C 
ATOM     13  O   LIG    1       -3.676  -9.380   3.217  0.00  0.00    -0.293 OA
ATOM     14  C   LIG    1       -1.484  -6.227   1.816  0.00  0.00    -0.007 C 
ATOM     15  C   LIG    1        0.012  -6.350   1.520  0.00  0.00    +0.016 C 
ATOM     16  C   LIG    1       -1.905  -4.780   1.529  0.00  0.00    +0.002 C 
ATOM     17  C   LIG    1       -1.064  -3.837   2.385  0.00  0.00    +0.005 C 
ATOM     18  C   LIG    1       -1.349  -2.363   2.055  0.00  0.00    +0.008 C 
ATOM     19  C   LIG    1       -1.071  -2.174   0.576  0.00  0.00    -0.019 C 
ATOM     20  C   LIG    1        0.346  -2.648   0.246  0.00  0.00    +0.012 C 
ENDROOT
BRANCH   1  22
ATOM     21  C   LIG    1        0.428   0.765   1.238  0.00  0.00    +0.086 C 
ATOM     22  C   LIG    1        0.005  -0.003   0.013  0.00  0.00    +0.134 C 
ATOM     23  O   LIG    1        0.704  -0.001  -0.972  0.00  0.00    -0.297 OA
ENDBRANCH   1  22
TORSDOF 1
