REMARK  Name = ZINC04102234
REMARK                            x       y       z     vdW  Elec       q    Type
REMARK                         _______ _______ _______ _____ _____    ______ ____
ROOT
ATOM      1  C   LIG    1        2.962   3.133  -1.501  0.00  0.00    +0.214 C 
ATOM      2  N   LIG    1        1.901   2.317  -1.345  0.00  0.00    -0.302 N 
ATOM      3  H   LIG    1        1.414   2.000  -2.122  0.00  0.00    +0.150 HD
ATOM      4  O   LIG    1        3.570   3.529  -0.529  0.00  0.00    -0.276 OA
ENDROOT
BRANCH   2   5
ATOM      5  C   LIG    1        1.481   1.909  -0.002  0.00  0.00    +0.185 C 
ATOM      6  C   LIG    1       -0.019   1.538   0.011  0.00  0.00    +0.075 C 
ATOM      7  C   LIG    1        0.002  -0.004   0.002  0.00  0.00    +0.234 C 
ATOM      8  O   LIG    1        1.404  -0.395  -0.040  0.00  0.00    -0.463 OA
ATOM      9  C   LIG    1        2.169   0.618   0.404  0.00  0.00    +0.328 C 
ATOM     10  O   LIG    1        3.209   0.520   1.011  0.00  0.00    -0.249 OA
ENDBRANCH   2   5
BRANCH   1  11
ATOM     11  C   LIG    1        3.393   3.553  -2.882  0.00  0.00    +0.096 C 
BRANCH  11  12
ATOM     12  C   LIG    1        4.613   4.471  -2.779  0.00  0.00    +0.009 C 
BRANCH  12  13
ATOM     13  C   LIG    1        5.051   4.897  -4.181  0.00  0.00    +0.000 C 
BRANCH  13  14
ATOM     14  C   LIG    1        6.270   5.816  -4.078  0.00  0.00    -0.000 C 
BRANCH  14  16
ATOM     15  C   LIG    1        7.928   7.160  -5.377  0.00  0.00    +0.004 C 
ATOM     16  C   LIG    1        6.708   6.242  -5.481  0.00  0.00    -0.003 C 
ENDBRANCH  14  16
ENDBRANCH  13  14
ENDBRANCH  12  13
ENDBRANCH  11  12
ENDBRANCH   1  11
TORSDOF 6
