REMARK  Name = ZINC04714474
REMARK                            x       y       z     vdW  Elec       q    Type
REMARK                         _______ _______ _______ _____ _____    ______ ____
ROOT
ATOM      1  C   LIG    1        6.948  -0.186   0.218  0.00  0.00    +0.102 C 
ATOM      2  N   LIG    1        7.185   1.116   0.245  0.00  0.00    -0.168 NA
ATOM      3  C   LIG    1        6.222   2.009   0.171  0.00  0.00    +0.275 C 
ATOM      4  C   LIG    1        4.843   1.482   0.066  0.00  0.00    +0.078 C 
ATOM      5  C   LIG    1        3.660   2.148  -0.022  0.00  0.00    +0.032 C 
ATOM      6  O   LIG    1        6.454   3.208   0.190  0.00  0.00    -0.267 OA
ATOM      7  S   LIG    1        5.170  -0.276   0.080  0.00  0.00    -0.066 S 
ENDROOT
BRANCH   1  12
ATOM      8  C   LIG    1       10.734  -4.510   0.482  0.00  0.00    +0.044 C 
ATOM      9  C   LIG    1        9.742  -3.377   0.413  0.00  0.00    -0.050 A 
ATOM     10  C   LIG    1       10.188  -2.068   0.457  0.00  0.00    +0.004 A 
ATOM     11  C   LIG    1        9.286  -1.027   0.394  0.00  0.00    +0.010 A 
ATOM     12  C   LIG    1        7.920  -1.296   0.286  0.00  0.00    +0.005 A 
ATOM     13  C   LIG    1        7.476  -2.620   0.248  0.00  0.00    +0.010 A 
ATOM     14  C   LIG    1        8.390  -3.652   0.306  0.00  0.00    +0.004 A 
ENDBRANCH   1  12
BRANCH   5  15
ATOM     15  C   LIG    1        2.396   1.407   0.037  0.00  0.00    +0.021 A 
ATOM     16  C   LIG    1        2.365   0.105   0.552  0.00  0.00    +0.057 A 
ATOM     17  C   LIG    1        1.170  -0.585   0.604  0.00  0.00    +0.121 A 
ATOM     18  C   LIG    1       -0.002   0.009   0.147  0.00  0.00    +0.049 A 
ATOM     19  C   LIG    1        0.018   1.292  -0.363  0.00  0.00    +0.050 A 
ATOM     20  C   LIG    1        1.208   2.000  -0.422  0.00  0.00    +0.127 A 
BRANCH  17  21
ATOM     21  O   LIG    1        1.138  -1.850   1.103  0.00  0.00    -0.495 OA
ATOM     22  C   LIG    1       -0.131  -2.506   1.127  0.00  0.00    +0.277 C 
ENDBRANCH  17  21
BRANCH  20  23
ATOM     23  O   LIG    1        1.225   3.261  -0.923  0.00  0.00    -0.495 OA
ATOM     24  C   LIG    1       -0.021   3.799  -1.372  0.00  0.00    +0.277 C 
ENDBRANCH  20  23
ENDBRANCH   5  15
TORSDOF 4
