REMARK  Name = ZINC04715147
REMARK                            x       y       z     vdW  Elec       q    Type
REMARK                         _______ _______ _______ _____ _____    ______ ____
ROOT
ATOM      1  C   LIG    1       -7.425   0.918   0.042  0.00  0.00    +0.128 C 
ATOM      2  C   LIG    1       -6.289   1.908   0.043  0.00  0.00    +0.097 C 
ENDROOT
BRANCH   1   6
ATOM      3  C   LIG    1       -6.614  -3.239   0.013  0.00  0.00    +0.120 A 
ATOM      4  C   LIG    1       -7.930  -2.790   0.022  0.00  0.00    +0.046 A 
ATOM      5  C   LIG    1       -8.198  -1.445   0.032  0.00  0.00    +0.015 A 
ATOM      6  C   LIG    1       -7.144  -0.523   0.032  0.00  0.00    +0.017 A 
ATOM      7  C   LIG    1       -5.821  -0.981   0.017  0.00  0.00    +0.015 A 
ATOM      8  C   LIG    1       -5.563  -2.328   0.014  0.00  0.00    +0.046 A 
BRANCH   3  10
ATOM      9  C   LIG    1       -4.980  -4.963  -0.005  0.00  0.00    +0.277 C 
ATOM     10  O   LIG    1       -6.354  -4.570   0.004  0.00  0.00    -0.495 OA
ENDBRANCH   3  10
ENDBRANCH   1   6
BRANCH   1  11
ATOM     11  O   LIG    1       -8.572   1.312   0.050  0.00  0.00    -0.506 OA
ATOM     12  H   LIG    1       -9.279   0.697   0.050  0.00  0.00    +0.292 HD
ENDBRANCH   1  11
BRANCH   2  13
ATOM     13  C   LIG    1       -4.977   1.166   0.032  0.00  0.00    +0.190 C 
ATOM     14  O   LIG    1       -4.966  -0.046   0.025  0.00  0.00    -0.287 OA
BRANCH  13  15
ATOM     15  C   LIG    1       -3.709   1.913   0.030  0.00  0.00    +0.024 A 
ATOM     16  C   LIG    1       -3.718   3.312   0.039  0.00  0.00    +0.012 A 
ATOM     17  C   LIG    1       -2.526   4.005   0.037  0.00  0.00    +0.003 A 
ATOM     18  C   LIG    1       -1.323   3.320   0.032  0.00  0.00    +0.032 A 
ATOM     19  C   LIG    1       -1.306   1.936   0.019  0.00  0.00    +0.122 A 
ATOM     20  C   LIG    1       -2.490   1.229   0.021  0.00  0.00    +0.044 A 
BRANCH  19  21
ATOM     21  N   LIG    1       -0.014   1.214   0.009  0.00  0.00    +0.006 N 
ATOM     22  O   LIG    1        0.002  -0.004   0.002  0.00  0.00    -0.130 OA
BRANCH  21  23
ATOM     23  O   LIG    1        1.032   1.837   0.002  0.00  0.00    -0.396 OA
ATOM     24  H   LIG    1        1.019   2.774   0.007  0.00  0.00    +0.329 HD
ENDBRANCH  21  23
ENDBRANCH  19  21
ENDBRANCH  13  15
ENDBRANCH   2  13
TORSDOF 7
