REMARK  Name = ZINC04165898
REMARK                            x       y       z     vdW  Elec       q    Type
REMARK                         _______ _______ _______ _____ _____    ______ ____
ROOT
ATOM      1  C   LIG    1        0.071   1.654   0.390  0.00  0.00    +0.015 C 
ATOM      2  C   LIG    1       -0.079   0.132   0.406  0.00  0.00    +0.006 C 
ATOM      3  C   LIG    1       -1.537  -0.230   0.578  0.00  0.00    +0.011 C 
ATOM      4  C   LIG    1       -2.072   0.582   1.768  0.00  0.00    +0.009 C 
ATOM      5  C   LIG    1       -1.291   0.307   3.052  0.00  0.00    +0.025 C 
ATOM      6  C   LIG    1        0.196   0.330   2.822  0.00  0.00    -0.031 C 
ATOM      7  C   LIG    1        1.059   0.957   3.614  0.00  0.00    +0.049 C 
ATOM      8  C   LIG    1        0.578   1.676   4.799  0.00  0.00    +0.160 C 
ATOM      9  C   LIG    1       -0.787   1.284   5.323  0.00  0.00    +0.069 C 
ATOM     10  C   LIG    1       -0.703  -0.099   5.972  0.00  0.00    +0.046 C 
ATOM     11  C   LIG    1       -2.099  -0.504   6.444  0.00  0.00    +0.144 C 
ATOM     12  C   LIG    1       -3.074  -0.522   5.266  0.00  0.00    +0.144 C 
ATOM     13  C   LIG    1       -3.139   0.870   4.633  0.00  0.00    +0.041 C 
ATOM     14  O   LIG    1        1.242   2.540   5.333  0.00  0.00    -0.292 OA
ATOM     15  C   LIG    1       -1.745   1.267   4.137  0.00  0.00    -0.013 C 
ATOM     16  C   LIG    1       -1.834   2.675   3.545  0.00  0.00    +0.012 C 
ATOM     17  C   LIG    1        0.658  -0.464  -0.784  0.00  0.00    +0.032 C 
ATOM     18  C   LIG    1        2.121  -0.644  -0.301  0.00  0.00    +0.010 C 
ATOM     19  C   LIG    1        2.140  -0.234   1.199  0.00  0.00    +0.040 C 
ATOM     20  C   LIG    1        0.686  -0.452   1.626  0.00  0.00    +0.093 C 
ENDROOT
BRANCH  11  21
ATOM     21  O   LIG    1       -2.549   0.438   7.420  0.00  0.00    -0.389 OA
ATOM     22  H   LIG    1       -3.426   0.244   7.778  0.00  0.00    +0.210 HD
ENDBRANCH  11  21
BRANCH  12  23
ATOM     23  O   LIG    1       -4.373  -0.895   5.729  0.00  0.00    -0.389 OA
ATOM     24  H   LIG    1       -4.407  -1.768   6.143  0.00  0.00    +0.210 HD
ENDBRANCH  12  23
BRANCH  17  25
ATOM     25  C   LIG    1        0.605   0.493  -1.976  0.00  0.00    +0.092 C 
ATOM     26  C   LIG    1       -0.853   0.817  -2.306  0.00  0.00    +0.044 C 
BRANCH  25  27
ATOM     27  O   LIG    1        1.299   1.700  -1.649  0.00  0.00    -0.386 OA
ATOM     28  H   LIG    1        2.231   1.570  -1.428  0.00  0.00    +0.210 HD
ENDBRANCH  25  27
BRANCH  25  29
ATOM     29  C   LIG    1        1.269  -0.164  -3.188  0.00  0.00    +0.146 C 
BRANCH  29  30
ATOM     30  O   LIG    1        2.631  -0.466  -2.879  0.00  0.00    -0.389 OA
ATOM     31  H   LIG    1        3.163   0.308  -2.647  0.00  0.00    +0.210 HD
ENDBRANCH  29  30
BRANCH  29  32
ATOM     32  C   LIG    1        1.216   0.794  -4.380  0.00  0.00    +0.037 C 
BRANCH  32  33
ATOM     33  C   LIG    1        1.767   0.092  -5.623  0.00  0.00    +0.037 C 
BRANCH  33  34
ATOM     34  C   LIG    1        1.714   1.049  -6.815  0.00  0.00    +0.061 C 
ATOM     35  C   LIG    1        0.285   1.568  -6.989  0.00  0.00    +0.041 C 
ATOM     36  C   LIG    1        2.147   0.310  -8.082  0.00  0.00    +0.041 C 
BRANCH  34  37
ATOM     37  O   LIG    1        2.595   2.150  -6.581  0.00  0.00    -0.389 OA
ATOM     38  H   LIG    1        3.520   1.894  -6.461  0.00  0.00    +0.210 HD
ENDBRANCH  34  37
ENDBRANCH  33  34
ENDBRANCH  32  33
ENDBRANCH  29  32
ENDBRANCH  25  29
ENDBRANCH  17  25
BRANCH  20  39
ATOM     39  O   LIG    1        0.400  -1.842   1.791  0.00  0.00    -0.384 OA
ATOM     40  H   LIG    1        0.854  -2.252   2.540  0.00  0.00    +0.211 HD
ENDBRANCH  20  39
TORSDOF 11
