REMARK  Name = ZINC04316012
REMARK                            x       y       z     vdW  Elec       q    Type
REMARK                         _______ _______ _______ _____ _____    ______ ____
ROOT
ATOM      1  C   LIG    1        2.193   4.015   0.002  0.00  0.00    +0.137 A 
ATOM      2  C   LIG    1        1.070   3.181   0.008  0.00  0.00    +0.077 A 
ATOM      3  C   LIG    1        1.188   1.788   0.000  0.00  0.00    +0.087 A 
ATOM      4  N   LIG    1        2.498   1.298  -0.015  0.00  0.00    -0.192 N 
ATOM      5  C   LIG    1        3.564   2.151  -0.021  0.00  0.00    +0.204 A 
ATOM      6  C   LIG    1        4.693   1.348  -0.036  0.00  0.00    +0.249 A 
ATOM      7  N   LIG    1        4.305   0.078  -0.038  0.00  0.00    -0.108 NA
ATOM      8  N   LIG    1        3.019   0.000  -0.026  0.00  0.00    -0.057 NA
ATOM      9  C   LIG    1       -0.013   1.076   0.008  0.00  0.00    +0.036 A 
ATOM     10  C   LIG    1       -1.194   1.734   0.017  0.00  0.00    +0.048 A 
ATOM     11  S   LIG    1       -0.684   3.445   0.027  0.00  0.00    -0.092 S 
ATOM     12  N   LIG    1        3.405   3.486  -0.013  0.00  0.00    -0.209 NA
ENDROOT
BRANCH   6  13
ATOM     13  S   LIG    1        6.362   1.915  -0.048  0.00  0.00    +0.047 S 
ATOM     14  O   LIG    1        6.340   3.227  -0.592  0.00  0.00    -0.163 OA
ATOM     15  O   LIG    1        7.141   0.869  -0.612  0.00  0.00    -0.163 OA
BRANCH  13  16
ATOM     16  C   LIG    1        6.870   2.073   1.631  0.00  0.00    +0.095 A 
ATOM     17  C   LIG    1        6.690   3.270   2.298  0.00  0.00    +0.027 A 
ATOM     18  C   LIG    1        7.085   3.393   3.617  0.00  0.00    +0.002 A 
ATOM     19  C   LIG    1        7.670   2.322   4.266  0.00  0.00    +0.000 A 
ATOM     20  C   LIG    1        7.855   1.126   3.598  0.00  0.00    +0.002 A 
ATOM     21  C   LIG    1        7.455   1.002   2.280  0.00  0.00    +0.027 A 
ENDBRANCH  13  16
ENDBRANCH   6  13
BRANCH   1  22
ATOM     22  N   LIG    1        2.037   5.389   0.010  0.00  0.00    -0.325 N 
ATOM     23  H   LIG    1        1.147   5.776   0.020  0.00  0.00    +0.148 HD
BRANCH  22  24
ATOM     24  C   LIG    1        3.214   6.261   0.002  0.00  0.00    +0.068 C 
ATOM     25  C   LIG    1        3.713   6.456   1.435  0.00  0.00    +0.028 C 
BRANCH  24  27
ATOM     26  C   LIG    1        2.461   7.438  -2.069  0.00  0.00    +0.005 C 
ATOM     27  C   LIG    1        2.841   7.618  -0.598  0.00  0.00    +0.018 C 
ENDBRANCH  24  27
ENDBRANCH  22  24
ENDBRANCH   1  22
TORSDOF 5
