REMARK  Name = ZINC04136964
REMARK                            x       y       z     vdW  Elec       q    Type
REMARK                         _______ _______ _______ _____ _____    ______ ____
ROOT
ATOM      1  C   LIG    1       -0.017   1.390   0.010  0.00  0.00    +0.012 A 
ATOM      2  C   LIG    1        1.169   2.094   0.002  0.00  0.00    +0.046 A 
ATOM      3  C   LIG    1        2.380   1.417  -0.013  0.00  0.00    +0.124 A 
ATOM      4  C   LIG    1        2.403   0.029  -0.022  0.00  0.00    +0.046 A 
ATOM      5  C   LIG    1        1.220  -0.682  -0.014  0.00  0.00    +0.012 A 
ATOM      6  C   LIG    1        0.002  -0.004   0.002  0.00  0.00    -0.011 A 
ENDROOT
BRANCH   6   7
ATOM      7  C   LIG    1       -1.271  -0.765   0.011  0.00  0.00    +0.064 A 
ATOM      8  C   LIG    1       -2.131  -0.699  -1.039  0.00  0.00    +0.208 A 
ATOM      9  O   LIG    1       -3.279  -1.379  -1.076  0.00  0.00    -0.462 OA
ATOM     10  C   LIG    1       -3.813  -1.928   0.032  0.00  0.00    +0.145 A 
ATOM     11  C   LIG    1       -5.137  -2.345   0.046  0.00  0.00    +0.092 A 
ATOM     12  C   LIG    1       -5.674  -2.917   1.188  0.00  0.00    +0.124 A 
ATOM     13  C   LIG    1       -4.900  -3.084   2.331  0.00  0.00    +0.091 A 
ATOM     14  C   LIG    1       -3.580  -2.674   2.341  0.00  0.00    +0.135 A 
ATOM     15  C   LIG    1       -3.034  -2.087   1.192  0.00  0.00    +0.106 A 
ATOM     16  C   LIG    1       -1.637  -1.619   1.157  0.00  0.00    +0.204 A 
ATOM     17  O   LIG    1       -0.833  -1.916   2.025  0.00  0.00    -0.286 OA
BRANCH  12  18
ATOM     18  O   LIG    1       -6.971  -3.319   1.190  0.00  0.00    -0.507 OA
ATOM     19  H   LIG    1       -7.099  -4.234   0.907  0.00  0.00    +0.292 HD
ENDBRANCH  12  18
BRANCH  14  20
ATOM     20  O   LIG    1       -2.820  -2.837   3.453  0.00  0.00    -0.506 OA
ATOM     21  H   LIG    1       -2.350  -3.681   3.488  0.00  0.00    +0.292 HD
ENDBRANCH  14  20
ENDBRANCH   6   7
BRANCH   3  22
ATOM     22  O   LIG    1        3.547   2.113  -0.021  0.00  0.00    -0.461 OA
BRANCH  22  23
ATOM     23  C   LIG    1        4.757   1.353  -0.037  0.00  0.00    +0.339 C 
ATOM     24  C   LIG    1        5.953   2.299  -0.170  0.00  0.00    +0.214 C 
ATOM     25  C   LIG    1        7.248   1.482  -0.126  0.00  0.00    +0.180 C 
ATOM     26  C   LIG    1        7.286   0.676   1.176  0.00  0.00    +0.177 C 
ATOM     27  C   LIG    1        6.038  -0.208   1.256  0.00  0.00    +0.179 C 
ATOM     28  O   LIG    1        4.870   0.611   1.179  0.00  0.00    -0.331 OA
BRANCH  24  29
ATOM     29  O   LIG    1        5.872   3.001  -1.412  0.00  0.00    -0.383 OA
ATOM     30  H   LIG    1        5.073   3.537  -1.509  0.00  0.00    +0.210 HD
ENDBRANCH  24  29
BRANCH  25  31
ATOM     31  O   LIG    1        8.371   2.364  -0.176  0.00  0.00    -0.386 OA
ATOM     32  H   LIG    1        8.407   2.910  -0.973  0.00  0.00    +0.210 HD
ENDBRANCH  25  31
BRANCH  26  33
ATOM     33  O   LIG    1        8.456  -0.145   1.196  0.00  0.00    -0.386 OA
ATOM     34  H   LIG    1        9.284   0.350   1.143  0.00  0.00    +0.210 HD
ENDBRANCH  26  33
BRANCH  27  35
ATOM     35  C   LIG    1        6.038  -0.973   2.582  0.00  0.00    +0.190 C 
BRANCH  35  36
ATOM     36  O   LIG    1        4.937  -1.883   2.607  0.00  0.00    -0.392 OA
ATOM     37  H   LIG    1        4.875  -2.403   3.420  0.00  0.00    +0.210 HD
ENDBRANCH  35  36
ENDBRANCH  27  35
ENDBRANCH  22  23
ENDBRANCH   3  22
TORSDOF 10
