REMARK  Name = ZINC04654676
REMARK                            x       y       z     vdW  Elec       q    Type
REMARK                         _______ _______ _______ _____ _____    ______ ____
ROOT
ATOM      1  C   LIG    1        1.225   3.500   0.027  0.00  0.00    +0.006 C 
ATOM      2  C   LIG    1        0.045   4.182   0.049  0.00  0.00    +0.034 C 
ATOM      3  C   LIG    1       -1.176   3.506   0.048  0.00  0.00    +0.143 C 
ATOM      4  C   LIG    1       -1.220   2.125   0.031  0.00  0.00    +0.147 C 
ATOM      5  C   LIG    1       -0.017   1.397   0.010  0.00  0.00    +0.037 C 
ATOM      6  C   LIG    1        0.002  -0.004   0.002  0.00  0.00    +0.091 C 
ATOM      7  N   LIG    1        1.141  -0.665  -0.009  0.00  0.00    -0.295 NA
ATOM      8  C   LIG    1        1.084  -2.129   0.067  0.00  0.00    +0.089 C 
ATOM      9  C   LIG    1        2.148  -2.767  -0.821  0.00  0.00    +0.051 C 
ATOM     10  C   LIG    1        3.495  -2.171  -0.509  0.00  0.00    -0.038 A 
ATOM     11  C   LIG    1        3.572  -0.826  -0.148  0.00  0.00    -0.023 A 
ATOM     12  C   LIG    1        4.810  -0.238   0.092  0.00  0.00    +0.054 A 
ATOM     13  C   LIG    1        5.960  -1.002   0.002  0.00  0.00    +0.159 A 
ATOM     14  C   LIG    1        5.876  -2.351  -0.334  0.00  0.00    +0.158 A 
ATOM     15  C   LIG    1        4.642  -2.930  -0.592  0.00  0.00    +0.053 A 
ATOM     16  C   LIG    1        2.320  -0.035  -0.054  0.00  0.00    +0.087 C 
ATOM     17  C   LIG    1        2.404   1.347  -0.034  0.00  0.00    +0.027 C 
ATOM     18  C   LIG    1        1.219   2.099   0.002  0.00  0.00    -0.002 C 
ENDROOT
BRANCH   3  19
ATOM     19  O   LIG    1       -2.336   4.216   0.068  0.00  0.00    -0.389 OA
ATOM     20  H   LIG    1       -2.679   4.434  -0.810  0.00  0.00    +0.210 HD
ENDBRANCH   3  19
BRANCH   4  21
ATOM     21  O   LIG    1       -2.415   1.477   0.031  0.00  0.00    -0.389 OA
ATOM     22  H   LIG    1       -2.753   1.276   0.914  0.00  0.00    +0.210 HD
ENDBRANCH   4  21
BRANCH  13  23
ATOM     23  O   LIG    1        7.173  -0.436   0.244  0.00  0.00    -0.503 OA
ATOM     24  H   LIG    1        7.451  -0.482   1.169  0.00  0.00    +0.292 HD
ENDBRANCH  13  23
BRANCH  14  25
ATOM     25  O   LIG    1        7.006  -3.103  -0.411  0.00  0.00    -0.503 OA
ATOM     26  H   LIG    1        7.253  -3.528   0.421  0.00  0.00    +0.292 HD
ENDBRANCH  14  25
TORSDOF 4
