REMARK  Name = ZINC04746497
REMARK                            x       y       z     vdW  Elec       q    Type
REMARK                         _______ _______ _______ _____ _____    ______ ____
ROOT
ATOM      1  C   LIG    1        3.711  -0.707  -0.038  0.00  0.00    +0.100 C 
ENDROOT
BRANCH   1   2
ATOM      2  C   LIG    1        3.894  -1.596  -1.240  0.00  0.00    +0.092 A 
ATOM      3  C   LIG    1        4.209  -1.036  -2.496  0.00  0.00    +0.200 A 
ATOM      4  C   LIG    1        4.375  -1.966  -3.632  0.00  0.00    +0.065 A 
ATOM      5  C   LIG    1        4.687  -1.503  -4.909  0.00  0.00    +0.015 A 
ATOM      6  C   LIG    1        4.833  -2.404  -5.941  0.00  0.00    +0.001 A 
ATOM      7  C   LIG    1        4.670  -3.762  -5.713  0.00  0.00    +0.004 A 
ATOM      8  C   LIG    1        4.361  -4.232  -4.454  0.00  0.00    +0.047 A 
ATOM      9  C   LIG    1        4.210  -3.340  -3.399  0.00  0.00    +0.143 A 
ATOM     10  O   LIG    1        3.909  -3.777  -2.159  0.00  0.00    -0.425 OA
ATOM     11  O   LIG    1        4.341   0.169  -2.638  0.00  0.00    -0.287 OA
ATOM     12  C   LIG    1        3.762  -2.943  -1.121  0.00  0.00    +0.292 A 
BRANCH  12  13
ATOM     13  O   LIG    1        3.466  -3.461   0.089  0.00  0.00    -0.480 OA
ATOM     14  H   LIG    1        3.360  -2.894   0.828  0.00  0.00    +0.295 HD
ENDBRANCH  12  13
ENDBRANCH   1   2
BRANCH   1  15
ATOM     15  C   LIG    1        4.095  -1.463   1.209  0.00  0.00    +0.092 A 
ATOM     16  C   LIG    1        3.131  -1.725   2.205  0.00  0.00    +0.200 A 
ATOM     17  C   LIG    1        3.577  -2.470   3.400  0.00  0.00    +0.065 A 
ATOM     18  C   LIG    1        2.695  -2.775   4.435  0.00  0.00    +0.015 A 
ATOM     19  C   LIG    1        3.150  -3.473   5.533  0.00  0.00    +0.001 A 
ATOM     20  C   LIG    1        4.477  -3.869   5.608  0.00  0.00    +0.004 A 
ATOM     21  C   LIG    1        5.359  -3.573   4.591  0.00  0.00    +0.047 A 
ATOM     22  C   LIG    1        4.919  -2.870   3.475  0.00  0.00    +0.143 A 
ATOM     23  O   LIG    1        5.765  -2.571   2.467  0.00  0.00    -0.425 OA
ATOM     24  O   LIG    1        1.976  -1.351   2.084  0.00  0.00    -0.287 OA
ATOM     25  C   LIG    1        5.370  -1.900   1.377  0.00  0.00    +0.292 A 
BRANCH  25  26
ATOM     26  O   LIG    1        6.276  -1.645   0.410  0.00  0.00    -0.480 OA
ATOM     27  H   LIG    1        6.020  -1.177  -0.360  0.00  0.00    +0.295 HD
ENDBRANCH  25  26
ENDBRANCH   1  15
BRANCH   1  31
ATOM     28  C   LIG    1       -0.377   0.501   0.230  0.00  0.00    +0.000 A 
ATOM     29  C   LIG    1        0.629   1.393   0.550  0.00  0.00    +0.000 A 
ATOM     30  C   LIG    1        1.952   1.002   0.464  0.00  0.00    +0.004 A 
ATOM     31  C   LIG    1        2.269  -0.281   0.058  0.00  0.00    -0.035 A 
ATOM     32  C   LIG    1        1.262  -1.173  -0.262  0.00  0.00    +0.004 A 
ATOM     33  C   LIG    1       -0.061  -0.782  -0.177  0.00  0.00    +0.000 A 
ENDBRANCH   1  31
TORSDOF 5
