REMARK  Name = ZINC04639054
REMARK                            x       y       z     vdW  Elec       q    Type
REMARK                         _______ _______ _______ _____ _____    ______ ____
ROOT
ATOM      1  N   LIG    1        2.875  -0.536  -2.409  0.00  0.00    -0.311 N 
ATOM      2  C   LIG    1        3.577  -1.700  -2.391  0.00  0.00    +0.068 A 
ATOM      3  C   LIG    1        3.832  -2.652  -1.401  0.00  0.00    +0.028 A 
ATOM      4  C   LIG    1        4.601  -3.755  -1.696  0.00  0.00    +0.002 A 
ATOM      5  C   LIG    1        5.125  -3.929  -2.968  0.00  0.00    +0.002 A 
ATOM      6  C   LIG    1        4.883  -2.997  -3.957  0.00  0.00    +0.028 A 
ATOM      7  C   LIG    1        4.110  -1.880  -3.678  0.00  0.00    +0.068 A 
ATOM      8  N   LIG    1        3.693  -0.791  -4.425  0.00  0.00    -0.309 N 
ATOM      9  C   LIG    1        2.937  -0.003  -3.604  0.00  0.00    +0.175 A 
ENDROOT
BRANCH   9  10
ATOM     10  N   LIG    1        2.333   1.179  -3.976  0.00  0.00    -0.330 N 
ATOM     11  H   LIG    1        2.427   1.507  -4.884  0.00  0.00    +0.145 HD
ATOM     12  H   LIG    1        1.813   1.682  -3.330  0.00  0.00    +0.145 HD
ENDBRANCH   9  10
BRANCH   1  13
ATOM     13  C   LIG    1        2.154   0.032  -1.268  0.00  0.00    +0.156 C 
BRANCH  13  14
ATOM     14  C   LIG    1        0.718  -0.497  -1.257  0.00  0.00    +0.140 C 
BRANCH  14  16
ATOM     15  C   LIG    1       -0.019   1.526   0.010  0.00  0.00    +0.013 C 
ATOM     16  C   LIG    1        0.002  -0.004   0.002  0.00  0.00    -0.010 C 
ATOM     17  C   LIG    1       -1.433  -0.534   0.013  0.00  0.00    +0.013 C 
ATOM     18  C   LIG    1        0.742  -0.511   1.242  0.00  0.00    +0.013 C 
ENDBRANCH  14  16
BRANCH  14  19
ATOM     19  O   LIG    1        0.027  -0.024  -2.414  0.00  0.00    -0.390 OA
ATOM     20  H   LIG    1       -0.025   0.940  -2.475  0.00  0.00    +0.210 HD
ENDBRANCH  14  19
ENDBRANCH  13  14
ENDBRANCH   1  13
BRANCH   8  21
ATOM     21  C   LIG    1        3.999  -0.534  -5.834  0.00  0.00    +0.160 C 
BRANCH  21  22
ATOM     22  C   LIG    1        2.936  -1.157  -6.701  0.00  0.00    -0.028 A 
ATOM     23  C   LIG    1        3.079  -2.459  -7.141  0.00  0.00    +0.005 A 
ATOM     24  C   LIG    1        2.104  -3.031  -7.937  0.00  0.00    +0.000 A 
ATOM     25  C   LIG    1        0.985  -2.300  -8.292  0.00  0.00    +0.000 A 
ATOM     26  C   LIG    1        0.842  -0.998  -7.851  0.00  0.00    +0.000 A 
ATOM     27  C   LIG    1        1.815  -0.428  -7.052  0.00  0.00    +0.005 A 
ENDBRANCH  21  22
ENDBRANCH   8  21
TORSDOF 7
