REMARK  Name = ZINC04692031
REMARK                            x       y       z     vdW  Elec       q    Type
REMARK                         _______ _______ _______ _____ _____    ______ ____
ROOT
ATOM      1  C   LIG    1       -0.013   1.086   0.008  0.00  0.00    +0.079 C 
ENDROOT
BRANCH   1   4
ATOM      2  C   LIG    1        3.229   0.178   1.722  0.00  0.00    +0.162 A 
ATOM      3  C   LIG    1        1.877   0.294   1.445  0.00  0.00    +0.054 A 
ATOM      4  C   LIG    1        1.459   0.961   0.308  0.00  0.00    -0.032 A 
ATOM      5  C   LIG    1        2.388   1.508  -0.557  0.00  0.00    +0.008 A 
ATOM      6  C   LIG    1        3.739   1.400  -0.283  0.00  0.00    +0.049 A 
ATOM      7  C   LIG    1        4.164   0.734   0.854  0.00  0.00    +0.158 A 
BRANCH   2   9
ATOM      8  C   LIG    1        2.626  -1.022   3.685  0.00  0.00    +0.277 C 
ATOM      9  O   LIG    1        3.642  -0.477   2.840  0.00  0.00    -0.491 OA
ENDBRANCH   2   9
BRANCH   7  10
ATOM     10  O   LIG    1        5.493   0.623   1.123  0.00  0.00    -0.503 OA
ATOM     11  H   LIG    1        5.906  -0.167   0.746  0.00  0.00    +0.292 HD
ENDBRANCH   7  10
ENDBRANCH   1   4
BRANCH   1  12
ATOM     12  C   LIG    1       -0.426   2.531   0.115  0.00  0.00    -0.032 A 
ATOM     13  C   LIG    1        0.058   3.456  -0.792  0.00  0.00    +0.008 A 
ATOM     14  C   LIG    1       -0.323   4.782  -0.702  0.00  0.00    +0.049 A 
ATOM     15  C   LIG    1       -1.182   5.189   0.306  0.00  0.00    +0.158 A 
ATOM     16  C   LIG    1       -1.664   4.259   1.223  0.00  0.00    +0.162 A 
ATOM     17  C   LIG    1       -1.283   2.930   1.123  0.00  0.00    +0.054 A 
BRANCH  15  18
ATOM     18  O   LIG    1       -1.553   6.494   0.400  0.00  0.00    -0.503 OA
ATOM     19  H   LIG    1       -0.969   7.030   0.953  0.00  0.00    +0.292 HD
ENDBRANCH  15  18
BRANCH  16  20
ATOM     20  O   LIG    1       -2.508   4.654   2.214  0.00  0.00    -0.491 OA
ATOM     21  C   LIG    1       -2.963   3.645   3.118  0.00  0.00    +0.277 C 
ENDBRANCH  16  20
ENDBRANCH   1  12
BRANCH   1  22
ATOM     22  C   LIG    1       -0.285   0.588  -1.388  0.00  0.00    -0.032 A 
ATOM     23  C   LIG    1       -1.372   1.070  -2.093  0.00  0.00    +0.008 A 
ATOM     24  C   LIG    1       -1.623   0.620  -3.376  0.00  0.00    +0.049 A 
ATOM     25  C   LIG    1       -0.790  -0.325  -3.954  0.00  0.00    +0.158 A 
ATOM     26  C   LIG    1        0.301  -0.815  -3.242  0.00  0.00    +0.162 A 
ATOM     27  C   LIG    1        0.550  -0.355  -1.959  0.00  0.00    +0.054 A 
BRANCH  25  28
ATOM     28  O   LIG    1       -1.038  -0.772  -5.214  0.00  0.00    -0.503 OA
ATOM     29  H   LIG    1       -1.615  -1.548  -5.249  0.00  0.00    +0.292 HD
ENDBRANCH  25  28
BRANCH  26  30
ATOM     30  O   LIG    1        1.121  -1.742  -3.805  0.00  0.00    -0.491 OA
ATOM     31  C   LIG    1        2.221  -2.199  -3.016  0.00  0.00    +0.277 C 
ENDBRANCH  26  30
ENDBRANCH   1  22
TORSDOF 9
