REMARK  Name = ZINC04413474
REMARK                            x       y       z     vdW  Elec       q    Type
REMARK                         _______ _______ _______ _____ _____    ______ ____
ROOT
ATOM      1  S   LIG    1        5.177   5.543  -0.249  0.00  0.00    -0.075 S 
ENDROOT
BRANCH   1   3
ATOM      2  N   LIG    1        3.588   3.256   0.013  0.00  0.00    -0.187 N 
ATOM      3  C   LIG    1        4.822   3.824  -0.095  0.00  0.00    +0.214 A 
ATOM      4  N   LIG    1        5.699   2.843  -0.062  0.00  0.00    -0.101 NA
ATOM      5  N   LIG    1        5.105   1.711   0.058  0.00  0.00    -0.022 NA
ATOM      6  N   LIG    1        3.828   1.875   0.115  0.00  0.00    -0.038 NA
BRANCH   2  15
ATOM      7  C   LIG    1       -0.766   2.662  -2.473  0.00  0.00    +0.001 A 
ATOM      8  C   LIG    1        0.457   1.996  -2.497  0.00  0.00    +0.001 A 
ATOM      9  C   LIG    1        1.484   2.387  -1.693  0.00  0.00    +0.010 A 
ATOM     10  C   LIG    1        1.309   3.474  -0.822  0.00  0.00    +0.008 A 
ATOM     11  C   LIG    1        0.064   4.149  -0.794  0.00  0.00    -0.016 A 
ATOM     12  C   LIG    1       -0.113   5.238   0.077  0.00  0.00    +0.008 A 
ATOM     13  C   LIG    1        0.910   5.636   0.883  0.00  0.00    +0.003 A 
ATOM     14  C   LIG    1        2.137   4.981   0.863  0.00  0.00    +0.028 A 
ATOM     15  C   LIG    1        2.350   3.909   0.025  0.00  0.00    +0.078 A 
ATOM     16  C   LIG    1       -0.974   3.717  -1.638  0.00  0.00    +0.008 A 
ENDBRANCH   2  15
ENDBRANCH   1   3
BRANCH   1  17
ATOM     17  C   LIG    1        6.984   5.485  -0.336  0.00  0.00    +0.173 C 
BRANCH  17  18
ATOM     18  C   LIG    1        7.525   6.884  -0.475  0.00  0.00    +0.228 C 
ATOM     19  N   LIG    1        8.855   7.087  -0.558  0.00  0.00    -0.283 N 
ATOM     20  H   LIG    1        9.459   6.330  -0.607  0.00  0.00    +0.155 HD
ATOM     21  O   LIG    1        6.764   7.828  -0.511  0.00  0.00    -0.275 OA
BRANCH  19  22
ATOM     22  C   LIG    1        9.364   8.390  -0.575  0.00  0.00    +0.064 A 
ATOM     23  C   LIG    1        8.747   9.388   0.168  0.00  0.00    +0.025 A 
ATOM     24  C   LIG    1        9.255  10.672   0.154  0.00  0.00    +0.002 A 
ATOM     25  C   LIG    1       10.371  10.967  -0.607  0.00  0.00    +0.002 A 
ATOM     26  C   LIG    1       10.985   9.977  -1.352  0.00  0.00    +0.034 A 
ATOM     27  C   LIG    1       10.485   8.690  -1.338  0.00  0.00    +0.143 A 
BRANCH  27  28
ATOM     28  N   LIG    1       11.142   7.631  -2.136  0.00  0.00    +0.008 N 
ATOM     29  O   LIG    1       12.069   7.912  -2.875  0.00  0.00    -0.130 OA
BRANCH  28  30
ATOM     30  O   LIG    1       10.756   6.479  -2.055  0.00  0.00    -0.396 OA
ATOM     31  H   LIG    1       10.043   6.263  -1.486  0.00  0.00    +0.329 HD
ENDBRANCH  28  30
ENDBRANCH  27  28
ENDBRANCH  19  22
ENDBRANCH  17  18
ENDBRANCH   1  17
TORSDOF 7
