REMARK  Name = ZINC04533107
REMARK                            x       y       z     vdW  Elec       q    Type
REMARK                         _______ _______ _______ _____ _____    ______ ____
ROOT
ATOM      1  C   LIG    1       -2.853   0.275   1.158  0.00  0.00    +0.012 C 
ATOM      2  C   LIG    1       -2.250   1.659   0.787  0.00  0.00    -0.016 C 
ATOM      3  C   LIG    1       -3.115   2.670   1.490  0.00  0.00    +0.008 C 
ATOM      4  C   LIG    1       -2.430   4.006   1.755  0.00  0.00    +0.005 C 
ATOM      5  C   LIG    1       -1.151   3.733   2.551  0.00  0.00    +0.002 C 
ATOM      6  C   LIG    1       -0.197   2.961   1.644  0.00  0.00    -0.003 C 
ATOM      7  C   LIG    1        0.172   3.794   0.420  0.00  0.00    +0.008 C 
ATOM      8  C   LIG    1        0.898   5.068   0.868  0.00  0.00    +0.032 C 
ATOM      9  C   LIG    1        0.019   5.803   1.862  0.00  0.00    -0.060 C 
ATOM     10  C   LIG    1       -0.217   7.096   1.642  0.00  0.00    +0.046 C 
ATOM     11  C   LIG    1       -1.022   7.868   2.592  0.00  0.00    +0.156 C 
ATOM     12  C   LIG    1       -1.165   7.299   3.989  0.00  0.00    +0.080 C 
ATOM     13  C   LIG    1       -1.531   5.822   3.863  0.00  0.00    +0.019 C 
ATOM     14  O   LIG    1       -1.553   8.914   2.273  0.00  0.00    -0.293 OA
ATOM     15  C   LIG    1       -0.527   5.044   3.032  0.00  0.00    -0.007 C 
ATOM     16  C   LIG    1        0.646   4.700   3.958  0.00  0.00    +0.016 C 
ATOM     17  C   LIG    1       -2.268   1.721  -0.738  0.00  0.00    +0.104 C 
ATOM     18  C   LIG    1       -0.803   1.617  -1.206  0.00  0.00    +0.015 C 
ATOM     19  C   LIG    1       -0.013   1.090   0.008  0.00  0.00    +0.005 C 
ATOM     20  C   LIG    1       -0.790   1.615   1.244  0.00  0.00    -0.001 C 
ENDROOT
BRANCH  17  21
ATOM     21  C   LIG    1       -2.909   2.964  -1.285  0.00  0.00    +0.310 C 
ATOM     22  O   LIG    1       -3.324   3.812  -0.530  0.00  0.00    -0.251 OA
BRANCH  21  23
ATOM     23  O   LIG    1       -3.021   3.134  -2.611  0.00  0.00    -0.468 OA
ATOM     24  C   LIG    1       -3.651   4.359  -3.068  0.00  0.00    +0.280 C 
ENDBRANCH  21  23
ENDBRANCH  17  21
TORSDOF 2
