REMARK  Name = ZINC04741447
REMARK                            x       y       z     vdW  Elec       q    Type
REMARK                         _______ _______ _______ _____ _____    ______ ____
ROOT
ATOM      1  C   LIG    1       -0.009   1.501   0.096  0.00  0.00    +0.064 C 
ATOM      2  C   LIG    1        0.006  -0.005   0.043  0.00  0.00    +0.034 A 
ATOM      3  C   LIG    1       -1.167  -0.706   0.149  0.00  0.00    +0.085 A 
ATOM      4  C   LIG    1       -1.132  -2.175   0.095  0.00  0.00    +0.075 A 
ATOM      5  N   LIG    1       -2.430  -2.603   0.225  0.00  0.00    -0.289 N 
ATOM      6  N   LIG    1       -3.283  -1.503   0.356  0.00  0.00    -0.219 N 
ATOM      7  H   LIG    1       -2.713  -3.531   0.225  0.00  0.00    +0.187 HD
ATOM      8  C   LIG    1        0.089  -2.793  -0.061  0.00  0.00    +0.098 A 
ATOM      9  C   LIG    1        1.240  -2.001  -0.162  0.00  0.00    +0.254 A 
ATOM     10  O   LIG    1        2.326  -2.541  -0.302  0.00  0.00    -0.268 OA
ATOM     11  C   LIG    1       -2.583  -0.351   0.318  0.00  0.00    +0.281 A 
ATOM     12  O   LIG    1       -3.040   0.772   0.407  0.00  0.00    -0.265 OA
ATOM     13  N   LIG    1        1.174  -0.661  -0.115  0.00  0.00    -0.304 N 
ENDROOT
BRANCH   6  14
ATOM     14  C   LIG    1       -4.671  -1.586   0.507  0.00  0.00    +0.067 A 
ATOM     15  C   LIG    1       -5.429  -0.428   0.624  0.00  0.00    +0.028 A 
ATOM     16  C   LIG    1       -6.799  -0.514   0.772  0.00  0.00    +0.002 A 
ATOM     17  C   LIG    1       -7.417  -1.751   0.803  0.00  0.00    +0.000 A 
ATOM     18  C   LIG    1       -6.665  -2.906   0.687  0.00  0.00    +0.002 A 
ATOM     19  C   LIG    1       -5.295  -2.827   0.534  0.00  0.00    +0.028 A 
ENDBRANCH   6  14
BRANCH  13  20
ATOM     20  C   LIG    1        2.412   0.114  -0.232  0.00  0.00    +0.199 C 
BRANCH  20  21
ATOM     21  C   LIG    1        3.039   0.268   1.130  0.00  0.00    +0.125 A 
ATOM     22  C   LIG    1        3.932  -0.570   1.685  0.00  0.00    +0.046 A 
ATOM     23  C   LIG    1        4.250  -0.046   2.959  0.00  0.00    +0.041 A 
ATOM     24  C   LIG    1        3.531   1.081   3.107  0.00  0.00    +0.195 A 
ATOM     25  O   LIG    1        2.804   1.270   1.994  0.00  0.00    -0.466 OA
ENDBRANCH  20  21
ENDBRANCH  13  20
TORSDOF 3
