REMARK  Name = ZINC04234801
REMARK                            x       y       z     vdW  Elec       q    Type
REMARK                         _______ _______ _______ _____ _____    ______ ____
ROOT
ATOM      1  C   LIG    1        2.051   0.963  -0.928  0.00  0.00    -0.004 C 
ATOM      2  N   LIG    1        1.398   1.906  -0.019  0.00  0.00    +0.386 N 
ATOM      3  H   LIG    1        1.803   1.832   0.921  0.00  0.00    -0.085 HD
ATOM      4  H   LIG    1        1.508   2.867  -0.365  0.00  0.00    -0.085 HD
ATOM      5  C   LIG    1       -0.019   1.540   0.011  0.00  0.00    -0.082 C 
ATOM      6  C   LIG    1        0.002  -0.004   0.002  0.00  0.00    -0.020 C 
ATOM      7  C   LIG    1        1.364  -0.383  -0.615  0.00  0.00    -0.010 C 
ENDROOT
BRANCH   1  12
ATOM      8  C   LIG    1        6.457   0.886   1.528  0.00  0.00    +0.086 C 
ATOM      9  C   LIG    1        5.447   0.840   0.410  0.00  0.00    +0.102 A 
ATOM     10  C   LIG    1        5.725   0.666  -0.895  0.00  0.00    +0.044 A 
ATOM     11  C   LIG    1        4.490   0.687  -1.583  0.00  0.00    +0.043 A 
ATOM     12  C   LIG    1        3.531   0.873  -0.658  0.00  0.00    +0.091 A 
ATOM     13  O   LIG    1        4.117   0.971   0.547  0.00  0.00    -0.467 OA
ENDBRANCH   1  12
TORSDOF 1
