REMARK  Name = ZINC04245650
REMARK                            x       y       z     vdW  Elec       q    Type
REMARK                         _______ _______ _______ _____ _____    ______ ____
ROOT
ATOM      1  C   LIG    1        0.120   0.782  -2.963  0.00  0.00    +0.022 C 
ATOM      2  C   LIG    1        0.186  -0.696  -2.573  0.00  0.00    +0.133 C 
ATOM      3  C   LIG    1       -1.159  -1.364  -2.825  0.00  0.00    +0.313 C 
ATOM      4  O   LIG    1       -1.824  -1.349  -1.648  0.00  0.00    -0.458 OA
ATOM      5  C   LIG    1       -0.863  -1.635  -0.613  0.00  0.00    +0.213 C 
ATOM      6  C   LIG    1       -0.424  -3.119  -0.729  0.00  0.00    +0.062 C 
ATOM      7  C   LIG    1        1.004  -3.085  -0.228  0.00  0.00    +0.068 C 
ATOM      8  C   LIG    1        1.979  -4.146  -0.724  0.00  0.00    +0.085 C 
ATOM      9  C   LIG    1        1.335  -5.374  -1.336  0.00  0.00    +0.236 C 
ATOM     10  C   LIG    1        1.155  -4.957  -2.793  0.00  0.00    +0.339 C 
ATOM     11  O   LIG    1        2.145  -4.107  -3.097  0.00  0.00    -0.433 OA
ATOM     12  O   LIG    1        0.282  -5.326  -3.530  0.00  0.00    -0.248 OA
ATOM     13  C   LIG    1        2.966  -4.360   0.424  0.00  0.00    +0.014 C 
ATOM     14  C   LIG    1        2.064  -4.181   1.678  0.00  0.00    +0.050 C 
ATOM     15  C   LIG    1        2.685  -3.474  -1.930  0.00  0.00    +0.322 C 
ATOM     16  O   LIG    1        2.359  -2.082  -1.916  0.00  0.00    -0.319 OA
ATOM     17  C   LIG    1        1.168  -2.974   1.295  0.00  0.00    +0.187 C 
ATOM     18  O   LIG    1        1.903  -1.763   1.530  0.00  0.00    -0.459 OA
ATOM     19  C   LIG    1        2.420  -1.262   0.398  0.00  0.00    +0.344 C 
ATOM     20  O   LIG    1        3.385  -0.546   0.318  0.00  0.00    -0.247 OA
ATOM     21  C   LIG    1        1.600  -1.752  -0.766  0.00  0.00    +0.212 C 
ATOM     22  O   LIG    1       -1.550  -1.824  -3.872  0.00  0.00    -0.250 OA
ATOM     23  C   LIG    1        0.406  -0.844  -1.054  0.00  0.00    +0.155 C 
ENDROOT
BRANCH  13  24
ATOM     24  C   LIG    1        3.629  -5.725   0.411  0.00  0.00    -0.034 C 
ATOM     25  C   LIG    1        2.588  -6.801   0.727  0.00  0.00    +0.011 C 
ATOM     26  C   LIG    1        4.738  -5.763   1.464  0.00  0.00    +0.011 C 
ATOM     27  C   LIG    1        4.229  -5.987  -0.972  0.00  0.00    +0.011 C 
ENDBRANCH  13  24
BRANCH   9  28
ATOM     28  O   LIG    1        0.080  -5.688  -0.742  0.00  0.00    -0.380 OA
ATOM     29  H   LIG    1       -0.349  -6.469  -1.118  0.00  0.00    +0.211 HD
ENDBRANCH   9  28
BRANCH  23  30
ATOM     30  O   LIG    1        0.522   0.421  -0.400  0.00  0.00    -0.381 OA
ATOM     31  H   LIG    1       -0.246   0.997  -0.517  0.00  0.00    +0.210 HD
ENDBRANCH  23  30
TORSDOF 3
