REMARK  Name = ZINC04474604
REMARK                            x       y       z     vdW  Elec       q    Type
REMARK                         _______ _______ _______ _____ _____    ______ ____
ROOT
ATOM      1  N   LIG    1       -1.718  -1.029  -1.369  0.00  0.00    -0.216 N 
ATOM      2  C   LIG    1       -2.577  -0.140  -2.165  0.00  0.00    +0.222 C 
ATOM      3  C   LIG    1       -2.699  -0.860  -3.522  0.00  0.00    +0.219 C 
ATOM      4  N   LIG    1       -1.895  -2.079  -3.348  0.00  0.00    -0.233 N 
ATOM      5  H   LIG    1       -1.760  -2.764  -4.022  0.00  0.00    +0.245 HD
ATOM      6  C   LIG    1       -1.376  -2.092  -2.112  0.00  0.00    +0.400 C 
ATOM      7  N   LIG    1       -0.586  -3.083  -1.657  0.00  0.00    +0.090 NA
ENDROOT
BRANCH   7   8
ATOM      8  N   LIG    1       -0.377  -4.127  -2.385  0.00  0.00    +0.176 N 
ATOM      9  O   LIG    1        0.689  -4.189  -3.156  0.00  0.00    -0.095 OA
BRANCH   8  10
ATOM     10  O   LIG    1       -1.229  -5.131  -2.358  0.00  0.00    -0.370 OA
ATOM     11  H   LIG    1       -1.988  -5.086  -1.810  0.00  0.00    +0.332 HD
ENDBRANCH   8  10
ENDBRANCH   7   8
BRANCH   1  12
ATOM     12  C   LIG    1       -1.296  -0.789   0.013  0.00  0.00    +0.225 C 
BRANCH  12  19
ATOM     13  C   LIG    1       -0.023   1.376   0.029  0.00  0.00    +0.011 A 
ATOM     14  C   LIG    1        1.187   2.051   0.032  0.00  0.00    +0.040 A 
ATOM     15  C   LIG    1        2.364   1.324   0.023  0.00  0.00    +0.129 A 
ATOM     16 CL   LIG    1        3.888   2.157   0.026  0.00  0.00    -0.062 Cl
ATOM     17  N   LIG    1        2.342   0.005   0.011  0.00  0.00    -0.243 NA
ATOM     18  C   LIG    1        1.208  -0.669   0.008  0.00  0.00    +0.119 A 
ATOM     19  C   LIG    1       -0.006  -0.011   0.017  0.00  0.00    +0.002 A 
ENDBRANCH  12  19
ENDBRANCH   1  12
TORSDOF 4
