REMARK  Name = ZINC04342278
REMARK                            x       y       z     vdW  Elec       q    Type
REMARK                         _______ _______ _______ _____ _____    ______ ____
ROOT
ATOM      1  C   LIG    1       -1.282   3.011   0.192  0.00  0.00    +0.134 A 
ATOM      2  C   LIG    1       -0.071   3.747   0.177  0.00  0.00    +0.043 A 
ATOM      3  C   LIG    1       -0.047   5.136   0.013  0.00  0.00    +0.046 A 
ATOM      4  C   LIG    1        1.149   5.791   0.006  0.00  0.00    +0.122 A 
ATOM      5  C   LIG    1        2.346   5.096   0.159  0.00  0.00    +0.034 A 
ATOM      6  C   LIG    1        2.356   3.742   0.320  0.00  0.00    +0.031 A 
ATOM      7  C   LIG    1        1.145   3.037   0.332  0.00  0.00    +0.076 A 
ATOM      8  N   LIG    1        1.099   1.706   0.487  0.00  0.00    -0.235 NA
ATOM      9  C   LIG    1       -0.052   1.076   0.493  0.00  0.00    +0.223 A 
ATOM     10  N   LIG    1       -1.213   1.695   0.346  0.00  0.00    -0.220 NA
ENDROOT
BRANCH   1  11
ATOM     11  N   LIG    1       -2.498   3.645   0.045  0.00  0.00    -0.299 N 
ATOM     12  H   LIG    1       -2.539   4.613   0.011  0.00  0.00    +0.154 HD
BRANCH  11  18
ATOM     13  C   LIG    1       -3.650   1.647  -0.671  0.00  0.00    +0.027 A 
ATOM     14  C   LIG    1       -4.809   0.902  -0.765  0.00  0.00    +0.047 A 
ATOM     15  C   LIG    1       -5.997   1.399  -0.249  0.00  0.00    +0.117 A 
ATOM     16  C   LIG    1       -6.021   2.642   0.364  0.00  0.00    +0.047 A 
ATOM     17  C   LIG    1       -4.863   3.387   0.462  0.00  0.00    +0.027 A 
ATOM     18  C   LIG    1       -3.673   2.890  -0.053  0.00  0.00    +0.033 A 
BRANCH  15  19
ATOM     19  O   LIG    1       -7.139   0.666  -0.346  0.00  0.00    -0.507 OA
ATOM     20  H   LIG    1       -7.647   0.834  -1.151  0.00  0.00    +0.292 HD
ENDBRANCH  15  19
ENDBRANCH  11  18
ENDBRANCH   1  11
BRANCH   4  21
ATOM     21  N   LIG    1        1.176   7.261  -0.167  0.00  0.00    +0.006 N 
ATOM     22  O   LIG    1        2.240   7.854  -0.175  0.00  0.00    -0.130 OA
BRANCH  21  23
ATOM     23  O   LIG    1        0.135   7.877  -0.302  0.00  0.00    -0.396 OA
ATOM     24  H   LIG    1       -0.684   7.421  -0.296  0.00  0.00    +0.329 HD
ENDBRANCH  21  23
ENDBRANCH   4  21
TORSDOF 5
