REMARK  Name = ZINC04363396
REMARK                            x       y       z     vdW  Elec       q    Type
REMARK                         _______ _______ _______ _____ _____    ______ ____
ROOT
ATOM      1  C   LIG    1       -0.126  -4.849   0.068  0.00  0.00    +0.224 A 
ATOM      2  N   LIG    1        0.732  -4.577   1.035  0.00  0.00    -0.220 NA
ATOM      3  C   LIG    1        1.153  -3.346   1.278  0.00  0.00    +0.128 A 
ATOM      4  C   LIG    1        0.668  -2.278   0.473  0.00  0.00    +0.051 A 
ATOM      5  C   LIG    1        0.993  -0.850   0.558  0.00  0.00    -0.025 A 
ATOM      6  C   LIG    1        0.382  -0.036  -0.326  0.00  0.00    -0.004 A 
ATOM      7  C   LIG    1        0.518   1.450  -0.452  0.00  0.00    +0.043 C 
ATOM      8  C   LIG    1        2.006   1.824  -0.468  0.00  0.00    +0.005 C 
ATOM      9  C   LIG    1        2.458   2.055   0.970  0.00  0.00    +0.001 C 
ATOM     10  C   LIG    1        1.691   1.131   1.914  0.00  0.00    +0.005 C 
ATOM     11  S   LIG    1       -0.630  -1.103  -1.319  0.00  0.00    -0.073 S 
ATOM     12  C   LIG    1        1.988  -0.329   1.591  0.00  0.00    +0.037 C 
ATOM     13  C   LIG    1       -0.242  -2.645  -0.536  0.00  0.00    +0.114 A 
ATOM     14  N   LIG    1       -0.610  -3.900  -0.711  0.00  0.00    -0.228 NA
ENDROOT
BRANCH   3  15
ATOM     15  N   LIG    1        2.054  -3.102   2.299  0.00  0.00    -0.343 N 
ATOM     16  H   LIG    1        2.649  -2.338   2.248  0.00  0.00    +0.144 HD
ATOM     17  H   LIG    1        2.090  -3.695   3.066  0.00  0.00    +0.144 HD
ENDBRANCH   3  15
TORSDOF 1
