REMARK  Name = ZINC04380837
REMARK                            x       y       z     vdW  Elec       q    Type
REMARK                         _______ _______ _______ _____ _____    ______ ____
ROOT
ATOM      1  C   LIG    1        1.198   2.075   0.060  0.00  0.00    +0.078 C 
ATOM      2  C   LIG    1        1.209   3.416  -0.098  0.00  0.00    +0.021 C 
ATOM      3  C   LIG    1       -0.097   4.161  -0.202  0.00  0.00    +0.061 C 
ATOM      4  N   LIG    1        2.384   4.108  -0.159  0.00  0.00    -0.273 N 
ATOM      5  H   LIG    1        2.343   5.071  -0.270  0.00  0.00    +0.156 HD
ATOM      6  C   LIG    1        3.591   3.532  -0.082  0.00  0.00    +0.304 C 
ATOM      7  N   LIG    1        3.741   2.202   0.071  0.00  0.00    -0.288 N 
ATOM      8  H   LIG    1        4.625   1.805   0.126  0.00  0.00    +0.151 HD
ATOM      9  O   LIG    1        4.582   4.232  -0.151  0.00  0.00    -0.252 OA
ATOM     10  C   LIG    1        2.533   1.364   0.154  0.00  0.00    +0.143 C 
ENDROOT
BRANCH  10  11
ATOM     11  C   LIG    1        2.597   0.346  -0.955  0.00  0.00    -0.022 A 
ATOM     12  C   LIG    1        2.910   0.744  -2.241  0.00  0.00    +0.008 A 
ATOM     13  C   LIG    1        2.974  -0.190  -3.257  0.00  0.00    +0.033 A 
ATOM     14  C   LIG    1        2.713  -1.521  -2.990  0.00  0.00    +0.122 A 
ATOM     15  C   LIG    1        2.394  -1.918  -1.705  0.00  0.00    +0.033 A 
ATOM     16  C   LIG    1        2.336  -0.985  -0.687  0.00  0.00    +0.008 A 
BRANCH  14  17
ATOM     17  N   LIG    1        2.775  -2.521  -4.080  0.00  0.00    +0.006 N 
ATOM     18  O   LIG    1        2.545  -3.694  -3.844  0.00  0.00    -0.130 OA
BRANCH  17  19
ATOM     19  O   LIG    1        3.056  -2.171  -5.212  0.00  0.00    -0.396 OA
ATOM     20  H   LIG    1        3.233  -1.269  -5.393  0.00  0.00    +0.329 HD
ENDBRANCH  17  19
ENDBRANCH  14  17
ENDBRANCH  10  11
BRANCH   1  21
ATOM     21  C   LIG    1       -0.019   1.357   0.129  0.00  0.00    +0.339 C 
ATOM     22  O   LIG    1       -1.079   1.955   0.139  0.00  0.00    -0.245 OA
BRANCH  21  23
ATOM     23  O   LIG    1       -0.005   0.008   0.178  0.00  0.00    -0.457 OA
BRANCH  23  24
ATOM     24  C   LIG    1       -1.271  -0.652   0.247  0.00  0.00    +0.260 C 
BRANCH  24  27
ATOM     25  C   LIG    1       -1.518  -4.365   1.195  0.00  0.00    +0.035 C 
ATOM     26  C   LIG    1       -1.731  -2.874   1.147  0.00  0.00    -0.031 C 
ATOM     27  C   LIG    1       -1.058  -2.143   0.294  0.00  0.00    +0.009 C 
ENDBRANCH  24  27
ENDBRANCH  23  24
ENDBRANCH  21  23
ENDBRANCH   1  21
TORSDOF 7
