REMARK  Name = ZINC04474460
REMARK                            x       y       z     vdW  Elec       q    Type
REMARK                         _______ _______ _______ _____ _____    ______ ____
ROOT
ATOM      1  C   LIG    1        0.885  -1.256   0.717  0.00  0.00    -0.002 C 
ATOM      2  C   LIG    1        1.313  -2.733   0.919  0.00  0.00    +0.005 C 
ATOM      3  C   LIG    1        2.835  -2.707   1.238  0.00  0.00    +0.009 C 
ATOM      4  C   LIG    1        3.039  -1.299   1.800  0.00  0.00    +0.021 C 
ATOM      5  C   LIG    1        4.426  -0.734   1.717  0.00  0.00    -0.066 C 
ATOM      6  C   LIG    1        5.479  -1.476   1.374  0.00  0.00    -0.000 C 
ATOM      7  C   LIG    1        4.536   0.756   2.045  0.00  0.00    +0.031 C 
ATOM      8  C   LIG    1        3.501   1.569   1.271  0.00  0.00    +0.005 C 
ATOM      9  C   LIG    1        2.096   0.952   1.377  0.00  0.00    +0.008 C 
ATOM     10  C   LIG    1        2.172  -0.452   0.824  0.00  0.00    -0.022 C 
ATOM     11  C   LIG    1        2.855  -0.407  -0.544  0.00  0.00    +0.012 C 
ENDROOT
BRANCH   6  12
ATOM     12  C   LIG    1        5.370  -2.936   1.352  0.00  0.00    +0.004 C 
ATOM     13  C   LIG    1        6.392  -3.681   0.881  0.00  0.00    -0.042 C 
ATOM     14  C   LIG    1        6.316  -5.194   0.836  0.00  0.00    +0.066 C 
ATOM     15  C   LIG    1        7.622  -5.760   1.403  0.00  0.00    +0.119 C 
ATOM     16  C   LIG    1        8.810  -5.228   0.600  0.00  0.00    +0.036 C 
ATOM     17  C   LIG    1        8.940  -3.715   0.807  0.00  0.00    +0.037 C 
ATOM     18  C   LIG    1        7.636  -3.061   0.380  0.00  0.00    -0.051 C 
ATOM     19  C   LIG    1        7.614  -1.983  -0.403  0.00  0.00    +0.012 C 
BRANCH  15  20
ATOM     20  O   LIG    1        7.597  -7.187   1.321  0.00  0.00    -0.391 OA
ATOM     21  H   LIG    1        6.871  -7.596   1.812  0.00  0.00    +0.210 HD
ENDBRANCH  15  20
ENDBRANCH   6  12
BRANCH   1  23
ATOM     22  C   LIG    1       -0.095   0.405  -0.871  0.00  0.00    +0.008 C 
ATOM     23  C   LIG    1        0.256  -1.070  -0.665  0.00  0.00    -0.010 C 
BRANCH  23  24
ATOM     24  C   LIG    1       -1.016  -1.915  -0.764  0.00  0.00    +0.003 C 
BRANCH  24  25
ATOM     25  C   LIG    1       -1.578  -1.827  -2.184  0.00  0.00    +0.001 C 
BRANCH  25  26
ATOM     26  C   LIG    1       -2.850  -2.671  -2.283  0.00  0.00    +0.003 C 
BRANCH  26  27
ATOM     27  C   LIG    1       -3.412  -2.583  -3.703  0.00  0.00    -0.017 C 
ATOM     28  C   LIG    1       -3.856  -1.147  -3.988  0.00  0.00    +0.007 C 
ATOM     29  C   LIG    1       -4.611  -3.525  -3.837  0.00  0.00    +0.007 C 
ENDBRANCH  26  27
ENDBRANCH  25  26
ENDBRANCH  24  25
ENDBRANCH  23  24
ENDBRANCH   1  23
TORSDOF 7
