REMARK  Name = ZINC04682967
REMARK                            x       y       z     vdW  Elec       q    Type
REMARK                         _______ _______ _______ _____ _____    ______ ____
ROOT
ATOM      1  C   LIG    1       -1.343   0.318  -1.415  0.00  0.00    -0.066 C 
ATOM      2  C   LIG    1       -2.024  -0.107  -2.482  0.00  0.00    -0.019 C 
ATOM      3  C   LIG    1       -3.357  -0.784  -2.085  0.00  0.00    +0.006 C 
ATOM      4  C   LIG    1       -4.005  -1.302  -3.352  0.00  0.00    +0.012 C 
ATOM      5  C   LIG    1       -5.098  -2.322  -3.058  0.00  0.00    +0.006 C 
ATOM      6  C   LIG    1       -4.572  -3.510  -2.260  0.00  0.00    +0.012 C 
ATOM      7  C   LIG    1       -3.815  -3.118  -1.007  0.00  0.00    -0.025 C 
ATOM      8  C   LIG    1       -2.820  -4.279  -0.688  0.00  0.00    +0.012 C 
ATOM      9  C   LIG    1       -4.675  -2.959   0.239  0.00  0.00    +0.007 C 
ATOM     10  C   LIG    1       -5.649  -4.123   0.414  0.00  0.00    +0.002 C 
ATOM     11  C   LIG    1       -6.537  -4.215  -0.824  0.00  0.00    +0.018 C 
ATOM     12  C   LIG    1       -5.683  -4.532  -2.049  0.00  0.00    +0.068 C 
ATOM     13  C   LIG    1       -5.115  -5.955  -1.929  0.00  0.00    +0.023 C 
ATOM     14  C   LIG    1       -4.145   0.335  -1.428  0.00  0.00    +0.122 C 
ATOM     15  C   LIG    1       -3.394   0.888  -0.211  0.00  0.00    +0.119 C 
ATOM     16  C   LIG    1       -2.910  -1.916  -1.192  0.00  0.00    +0.007 C 
ATOM     17  C   LIG    1       -2.357  -1.357   0.120  0.00  0.00    +0.013 C 
ATOM     18  C   LIG    1       -2.062   0.136  -0.082  0.00  0.00    +0.030 C 
ENDROOT
BRANCH   1  20
ATOM     19  C   LIG    1       -0.067   2.405  -0.992  0.00  0.00    +0.012 C 
ATOM     20  C   LIG    1        0.013   0.973  -1.525  0.00  0.00    +0.009 C 
ATOM     21  C   LIG    1        1.031   0.180  -0.703  0.00  0.00    +0.012 C 
ENDBRANCH   1  20
BRANCH  12  22
ATOM     22  C   LIG    1       -6.616  -4.561  -3.248  0.00  0.00    +0.311 C 
ATOM     23  O   LIG    1       -6.207  -4.946  -4.330  0.00  0.00    -0.250 OA
BRANCH  22  24
ATOM     24  O   LIG    1       -7.774  -4.200  -3.127  0.00  0.00    -0.480 OA
ATOM     25  H   LIG    1       -8.089  -3.904  -2.295  0.00  0.00    +0.295 HD
ENDBRANCH  22  24
ENDBRANCH  12  22
BRANCH  14  26
ATOM     26  C   LIG    1       -5.558   0.017  -1.071  0.00  0.00    +0.309 C 
ATOM     27  O   LIG    1       -5.827  -0.373   0.040  0.00  0.00    -0.251 OA
BRANCH  26  28
ATOM     28  O   LIG    1       -6.530   0.165  -1.985  0.00  0.00    -0.480 OA
ATOM     29  H   LIG    1       -7.412  -0.065  -1.662  0.00  0.00    +0.295 HD
ENDBRANCH  26  28
ENDBRANCH  14  26
BRANCH  15  30
ATOM     30  C   LIG    1       -4.218   0.755   1.034  0.00  0.00    +0.309 C 
ATOM     31  O   LIG    1       -5.089   1.572   1.279  0.00  0.00    -0.251 OA
BRANCH  30  32
ATOM     32  O   LIG    1       -4.017  -0.171   1.802  0.00  0.00    -0.480 OA
ATOM     33  H   LIG    1       -3.348  -0.799   1.613  0.00  0.00    +0.295 HD
ENDBRANCH  30  32
ENDBRANCH  15  30
TORSDOF 7
