REMARK  Name = ZINC04163174
REMARK                            x       y       z     vdW  Elec       q    Type
REMARK                         _______ _______ _______ _____ _____    ______ ____
ROOT
ATOM      1  N   LIG    1        5.947  -1.955   2.757  0.00  0.00    -0.309 N 
ATOM      2  H   LIG    1        5.405  -1.651   3.501  0.00  0.00    +0.149 HD
ATOM      3  C   LIG    1        7.106  -2.603   2.988  0.00  0.00    +0.285 C 
ATOM      4  O   LIG    1        7.785  -2.984   2.056  0.00  0.00    -0.267 OA
ENDROOT
BRANCH   3   5
ATOM      5  C   LIG    1        7.555  -2.853   4.388  0.00  0.00    +0.249 C 
ATOM      6  O   LIG    1        6.875  -2.472   5.321  0.00  0.00    -0.282 OA
BRANCH   5   7
ATOM      7  C   LIG    1        8.812  -3.556   4.639  0.00  0.00    +0.052 A 
ATOM      8  C   LIG    1        9.694  -4.043   3.692  0.00  0.00    +0.095 A 
ATOM      9  N   LIG    1       10.738  -4.629   4.307  0.00  0.00    -0.360 N 
ATOM     10  C   LIG    1       10.599  -4.558   5.680  0.00  0.00    +0.047 A 
ATOM     11  C   LIG    1       11.386  -5.003   6.737  0.00  0.00    +0.026 A 
ATOM     12  C   LIG    1       10.988  -4.771   8.036  0.00  0.00    +0.002 A 
ATOM     13  C   LIG    1        9.800  -4.107   8.303  0.00  0.00    +0.001 A 
ATOM     14  C   LIG    1        9.004  -3.662   7.269  0.00  0.00    +0.011 A 
ATOM     15  H   LIG    1       11.486  -5.043   3.849  0.00  0.00    +0.165 HD
ATOM     16  C   LIG    1        9.399  -3.883   5.953  0.00  0.00    +0.011 A 
ENDBRANCH   5   7
ENDBRANCH   3   5
BRANCH   1  17
ATOM     17  C   LIG    1        5.507  -1.710   1.381  0.00  0.00    +0.105 C 
BRANCH  17  18
ATOM     18  C   LIG    1        4.171  -0.963   1.399  0.00  0.00    +0.023 C 
BRANCH  18  19
ATOM     19  C   LIG    1        3.711  -0.707  -0.038  0.00  0.00    +0.036 C 
BRANCH  19  23
ATOM     20  C   LIG    1       -0.017   1.378   0.010  0.00  0.00    +0.000 A 
ATOM     21  C   LIG    1        1.171   2.086   0.002  0.00  0.00    +0.000 A 
ATOM     22  C   LIG    1        2.377   1.411  -0.013  0.00  0.00    +0.003 A 
ATOM     23  C   LIG    1        2.396   0.029  -0.020  0.00  0.00    -0.047 A 
ATOM     24  C   LIG    1        1.208  -0.679  -0.012  0.00  0.00    +0.003 A 
ATOM     25  C   LIG    1        0.002  -0.004   0.002  0.00  0.00    +0.000 A 
ENDBRANCH  19  23
ENDBRANCH  18  19
ENDBRANCH  17  18
ENDBRANCH   1  17
TORSDOF 6
