REMARK  Name = ZINC04654971
REMARK                            x       y       z     vdW  Elec       q    Type
REMARK                         _______ _______ _______ _____ _____    ______ ____
ROOT
ATOM      1  C   LIG    1        5.123  11.879  -0.151  0.00  0.00    -0.027 C 
ATOM      2  C   LIG    1        4.332  11.233   0.669  0.00  0.00    -0.031 C 
ENDROOT
BRANCH   1   3
ATOM      3  C   LIG    1        4.623  12.293  -1.511  0.00  0.00    +0.053 C 
BRANCH   3   5
ATOM      4  C   LIG    1        5.473  14.209  -2.763  0.00  0.00    -0.027 C 
ATOM      5  C   LIG    1        4.846  13.772  -1.699  0.00  0.00    -0.027 C 
BRANCH   4   6
ATOM      6  C   LIG    1        5.827  13.256  -3.875  0.00  0.00    +0.053 C 
BRANCH   6   8
ATOM      7  C   LIG    1        6.093  13.924  -6.208  0.00  0.00    -0.027 C 
ATOM      8  C   LIG    1        5.292  13.786  -5.180  0.00  0.00    -0.027 C 
BRANCH   7   9
ATOM      9  C   LIG    1        7.501  13.391  -6.143  0.00  0.00    +0.053 C 
BRANCH   9  11
ATOM     10  C   LIG    1        8.784  12.710  -8.106  0.00  0.00    -0.031 C 
ATOM     11  C   LIG    1        7.753  12.493  -7.327  0.00  0.00    -0.027 C 
BRANCH  10  12
ATOM     12  C   LIG    1        9.807  13.750  -7.729  0.00  0.00    +0.027 C 
BRANCH  12  13
ATOM     13  C   LIG    1       11.204  13.127  -7.765  0.00  0.00    +0.004 C 
BRANCH  13  14
ATOM     14  C   LIG    1       12.243  14.183  -7.383  0.00  0.00    +0.000 C 
BRANCH  14  16
ATOM     15  C   LIG    1       14.679  14.617  -7.037  0.00  0.00    +0.004 C 
ATOM     16  C   LIG    1       13.640  13.561  -7.419  0.00  0.00    -0.003 C 
ENDBRANCH  14  16
ENDBRANCH  13  14
ENDBRANCH  12  13
ENDBRANCH  10  12
ENDBRANCH   9  11
ENDBRANCH   7   9
ENDBRANCH   6   8
ENDBRANCH   4   6
ENDBRANCH   3   5
ENDBRANCH   1   3
BRANCH   2  17
ATOM     17  C   LIG    1        2.981  10.761   0.198  0.00  0.00    +0.027 C 
BRANCH  17  18
ATOM     18  C   LIG    1        2.828   9.269   0.502  0.00  0.00    +0.015 C 
BRANCH  18  19
ATOM     19  C   LIG    1        1.457   8.789   0.023  0.00  0.00    +0.121 C 
BRANCH  19  20
ATOM     20  C   LIG    1        1.306   7.320   0.322  0.00  0.00    +0.307 C 
ATOM     21  O   LIG    1        2.204   6.718   0.863  0.00  0.00    -0.251 OA
BRANCH  20  22
ATOM     22  O   LIG    1        0.175   6.679  -0.012  0.00  0.00    -0.462 OA
BRANCH  22  23
ATOM     23  C   LIG    1        0.099   5.265   0.306  0.00  0.00    +0.265 C 
BRANCH  23  24
ATOM     24  C   LIG    1       -1.254   4.712  -0.146  0.00  0.00    +0.177 C 
BRANCH  24  25
ATOM     25  O   LIG    1       -1.346   4.784  -1.570  0.00  0.00    -0.386 OA
ATOM     26  H   LIG    1       -0.662   4.282  -2.035  0.00  0.00    +0.210 HD
ENDBRANCH  24  25
BRANCH  24  27
ATOM     27  C   LIG    1       -1.383   3.254   0.300  0.00  0.00    +0.190 C 
BRANCH  27  28
ATOM     28  O   LIG    1       -2.690   2.773  -0.019  0.00  0.00    -0.392 OA
ATOM     29  H   LIG    1       -2.844   1.853   0.236  0.00  0.00    +0.210 HD
ENDBRANCH  27  28
ENDBRANCH  24  27
ENDBRANCH  23  24
ENDBRANCH  22  23
ENDBRANCH  20  22
ENDBRANCH  19  20
ENDBRANCH  18  19
ENDBRANCH  17  18
ENDBRANCH   2  17
TORSDOF 20
