REMARK  Name = ZINC04805849
REMARK                            x       y       z     vdW  Elec       q    Type
REMARK                         _______ _______ _______ _____ _____    ______ ____
ROOT
ATOM      1  C   LIG    1       -0.017   1.391   0.010  0.00  0.00    +0.016 A 
ATOM      2  C   LIG    1        1.149   2.078   0.002  0.00  0.00    +0.046 A 
ATOM      3  S   LIG    1        2.363   0.766  -0.016  0.00  0.00    -0.101 S 
ATOM      4  C   LIG    1        1.244  -0.601  -0.011  0.00  0.00    -0.002 A 
ATOM      5  C   LIG    1        1.486  -2.071  -0.015  0.00  0.00    +0.047 C 
ATOM      6  C   LIG    1        0.332  -2.762   0.718  0.00  0.00    +0.033 C 
ATOM      7  C   LIG    1       -1.000  -2.196   0.328  0.00  0.00    -0.016 C 
ATOM      8  C   LIG    1       -1.196  -0.910   0.003  0.00  0.00    +0.004 C 
ATOM      9  C   LIG    1        0.002  -0.004   0.002  0.00  0.00    -0.006 A 
ENDROOT
BRANCH   8  10
ATOM     10  C   LIG    1       -2.540  -0.403  -0.341  0.00  0.00    +0.066 A 
ATOM     11  C   LIG    1       -2.946   0.077  -1.548  0.00  0.00    +0.138 A 
ATOM     12  N   LIG    1       -4.231   0.432  -1.438  0.00  0.00    -0.244 NA
ATOM     13  C   LIG    1       -4.647   0.198  -0.223  0.00  0.00    +0.196 A 
ATOM     14  N   LIG    1       -3.631  -0.328   0.496  0.00  0.00    -0.344 N 
ATOM     15  H   LIG    1       -3.664  -0.600   1.426  0.00  0.00    +0.167 HD
ENDBRANCH   8  10
TORSDOF 1
