REMARK  Name = ZINC04370978
REMARK                            x       y       z     vdW  Elec       q    Type
REMARK                         _______ _______ _______ _____ _____    ______ ____
ROOT
ATOM      1  C   LIG    1        2.393   4.374  -0.651  0.00  0.00    +0.393 C 
ATOM      2  N   LIG    1        3.498   3.685  -0.646  0.00  0.00    -0.129 NA
ATOM      3  H   LIG    1        4.251   3.980  -0.112  0.00  0.00    +0.306 HD
ENDROOT
BRANCH   1   4
ATOM      4  N   LIG    1        1.290   3.902  -1.327  0.00  0.00    -0.243 N 
ATOM      5  H   LIG    1        0.494   4.451  -1.399  0.00  0.00    +0.265 HD
BRANCH   4   7
ATOM      6  C   LIG    1        0.170   1.849  -1.928  0.00  0.00    +0.062 A 
ATOM      7  C   LIG    1        1.318   2.630  -1.908  0.00  0.00    +0.103 A 
ATOM      8  C   LIG    1        2.493   2.146  -2.467  0.00  0.00    +0.062 A 
ATOM      9  C   LIG    1        2.518   0.889  -3.041  0.00  0.00    +0.046 A 
ATOM     10 CL   LIG    1        3.987   0.284  -3.740  0.00  0.00    -0.083 Cl
ATOM     11  C   LIG    1        1.372   0.113  -3.060  0.00  0.00    +0.040 A 
ATOM     12  C   LIG    1        0.200   0.593  -2.504  0.00  0.00    +0.046 A 
ATOM     13 CL   LIG    1       -1.235  -0.384  -2.529  0.00  0.00    -0.083 Cl
ENDBRANCH   4   7
ENDBRANCH   1   4
BRANCH   1  14
ATOM     14  N   LIG    1        2.327   5.577   0.021  0.00  0.00    -0.186 N 
ATOM     15  H   LIG    1        3.127   5.955   0.418  0.00  0.00    +0.271 HD
BRANCH  14  16
ATOM     16  C   LIG    1        1.123   6.243   0.128  0.00  0.00    +0.385 C 
ATOM     17  N   LIG    1        1.107   7.531   0.320  0.00  0.00    -0.129 NA
ATOM     18  H   LIG    1        1.940   8.022   0.388  0.00  0.00    +0.306 HD
BRANCH  16  19
ATOM     19  N   LIG    1       -0.058   5.546   0.032  0.00  0.00    -0.289 N 
ATOM     20  H   LIG    1       -0.892   6.023  -0.104  0.00  0.00    +0.255 HD
ATOM     21  H   LIG    1       -0.057   4.579   0.099  0.00  0.00    +0.255 HD
ENDBRANCH  16  19
ENDBRANCH  14  16
ENDBRANCH   1  14
TORSDOF 5
