REMARK  Name = ZINC04364519
REMARK                            x       y       z     vdW  Elec       q    Type
REMARK                         _______ _______ _______ _____ _____    ______ ____
ROOT
ATOM      1  N   LIG    1       -1.199  -0.722   0.009  0.00  0.00    -0.331 N 
ATOM      2  C   LIG    1       -1.329  -1.519   1.237  0.00  0.00    +0.086 C 
ATOM      3  C   LIG    1       -2.687  -2.225   1.243  0.00  0.00    -0.060 C 
ATOM      4  N   LIG    1       -2.777  -3.095   0.051  0.00  0.00    +0.382 N 
ATOM      5  H   LIG    1       -2.004  -3.771   0.073  0.00  0.00    -0.082 HD
ATOM      6  C   LIG    1       -2.668  -2.281  -1.177  0.00  0.00    -0.060 C 
ATOM      7  C   LIG    1       -1.310  -1.575  -1.183  0.00  0.00    +0.086 C 
ENDROOT
BRANCH   1  13
ATOM      8  C   LIG    1       -0.017   1.389   0.010  0.00  0.00    +0.141 A 
ATOM      9  C   LIG    1        1.175   2.094   0.002  0.00  0.00    +0.047 A 
ATOM     10  C   LIG    1        2.380   1.416  -0.013  0.00  0.00    +0.004 A 
ATOM     11  C   LIG    1        2.400   0.034  -0.021  0.00  0.00    +0.002 A 
ATOM     12  C   LIG    1        1.215  -0.677  -0.013  0.00  0.00    +0.027 A 
ATOM     13  C   LIG    1        0.002  -0.004   0.002  0.00  0.00    +0.072 A 
BRANCH   8  15
ATOM     14  C   LIG    1       -1.145   3.482   0.026  0.00  0.00    +0.277 C 
ATOM     15  O   LIG    1       -1.203   2.055   0.019  0.00  0.00    -0.493 OA
ENDBRANCH   8  15
ENDBRANCH   1  13
BRANCH   4  16
ATOM     16  C   LIG    1       -4.059  -3.831   0.059  0.00  0.00    -0.079 C 
BRANCH  16  17
ATOM     17  C   LIG    1       -4.278  -4.446   1.442  0.00  0.00    -0.017 C 
BRANCH  17  18
ATOM     18  C   LIG    1       -5.591  -5.231   1.450  0.00  0.00    +0.017 C 
BRANCH  18  19
ATOM     19  C   LIG    1       -5.810  -5.845   2.834  0.00  0.00    +0.104 C 
BRANCH  19  20
ATOM     20  N   LIG    1       -7.067  -6.597   2.842  0.00  0.00    -0.311 N 
ATOM     21  H   LIG    1       -7.611  -6.640   2.040  0.00  0.00    +0.149 HD
ATOM     22  C   LIG    1       -7.468  -7.228   3.963  0.00  0.00    +0.244 C 
ATOM     23  O   LIG    1       -6.787  -7.174   4.968  0.00  0.00    -0.270 OA
BRANCH  22  24
ATOM     24  C   LIG    1       -8.737  -7.986   3.970  0.00  0.00    +0.037 A 
ATOM     25  C   LIG    1       -9.524  -8.046   2.819  0.00  0.00    +0.014 A 
ATOM     26  C   LIG    1      -10.704  -8.760   2.831  0.00  0.00    +0.021 A 
ATOM     27  C   LIG    1      -11.114  -9.408   3.985  0.00  0.00    +0.041 A 
ATOM     28 CL   LIG    1      -12.603 -10.299   3.993  0.00  0.00    -0.084 Cl
ATOM     29  C   LIG    1      -10.339  -9.347   5.131  0.00  0.00    +0.021 A 
ATOM     30  C   LIG    1       -9.155  -8.641   5.130  0.00  0.00    +0.014 A 
ENDBRANCH  22  24
ENDBRANCH  19  20
ENDBRANCH  18  19
ENDBRANCH  17  18
ENDBRANCH  16  17
ENDBRANCH   4  16
TORSDOF 8
