REMARK  Name = ZINC04316015
REMARK                            x       y       z     vdW  Elec       q    Type
REMARK                         _______ _______ _______ _____ _____    ______ ____
ROOT
ATOM      1  C   LIG    1       -4.330   2.657   1.569  0.00  0.00    +0.137 A 
ATOM      2  C   LIG    1       -4.445   3.042   2.908  0.00  0.00    +0.077 A 
ATOM      3  C   LIG    1       -3.327   3.152   3.741  0.00  0.00    +0.087 A 
ATOM      4  N   LIG    1       -2.101   2.853   3.140  0.00  0.00    -0.192 N 
ATOM      5  C   LIG    1       -2.036   2.486   1.826  0.00  0.00    +0.204 A 
ATOM      6  C   LIG    1       -0.695   2.261   1.560  0.00  0.00    +0.249 A 
ATOM      7  N   LIG    1       -0.003   2.494   2.668  0.00  0.00    -0.108 NA
ATOM      8  N   LIG    1       -0.789   2.846   3.626  0.00  0.00    -0.057 NA
ATOM      9  C   LIG    1       -3.585   3.546   5.056  0.00  0.00    +0.036 A 
ATOM     10  C   LIG    1       -4.852   3.795   5.456  0.00  0.00    +0.048 A 
ATOM     11  S   LIG    1       -5.795   3.484   3.972  0.00  0.00    -0.092 S 
ATOM     12  N   LIG    1       -3.138   2.387   1.063  0.00  0.00    -0.209 NA
ENDROOT
BRANCH   6  13
ATOM     13  S   LIG    1       -0.022   1.758   0.012  0.00  0.00    +0.047 S 
ATOM     14  O   LIG    1       -0.953   2.157  -0.985  0.00  0.00    -0.163 OA
ATOM     15  O   LIG    1        1.334   2.182   0.001  0.00  0.00    -0.163 OA
BRANCH  13  16
ATOM     16  C   LIG    1        0.002  -0.004   0.002  0.00  0.00    +0.095 A 
ATOM     17  C   LIG    1        1.113  -0.683   0.467  0.00  0.00    +0.027 A 
ATOM     18  C   LIG    1        1.130  -2.065   0.464  0.00  0.00    +0.002 A 
ATOM     19  C   LIG    1        0.040  -2.768  -0.014  0.00  0.00    +0.000 A 
ATOM     20  C   LIG    1       -1.069  -2.090  -0.484  0.00  0.00    +0.002 A 
ATOM     21  C   LIG    1       -1.088  -0.708  -0.476  0.00  0.00    +0.027 A 
ENDBRANCH  13  16
ENDBRANCH   6  13
BRANCH   1  22
ATOM     22  N   LIG    1       -5.459   2.558   0.775  0.00  0.00    -0.325 N 
ATOM     23  H   LIG    1       -6.332   2.757   1.148  0.00  0.00    +0.148 HD
BRANCH  22  24
ATOM     24  C   LIG    1       -5.335   2.155  -0.627  0.00  0.00    +0.068 C 
ATOM     25  C   LIG    1       -5.317   0.628  -0.719  0.00  0.00    +0.028 C 
BRANCH  24  27
ATOM     26  C   LIG    1       -6.472   4.229  -1.434  0.00  0.00    +0.005 C 
ATOM     27  C   LIG    1       -6.524   2.700  -1.421  0.00  0.00    +0.018 C 
ENDBRANCH  24  27
ENDBRANCH  22  24
ENDBRANCH   1  22
TORSDOF 5
