REMARK  Name = ZINC04103787
REMARK                            x       y       z     vdW  Elec       q    Type
REMARK                         _______ _______ _______ _____ _____    ______ ____
ROOT
ATOM      1  C   LIG    1        8.346   2.281   0.186  0.00  0.00    +0.173 C 
ATOM      2  C   LIG    1        9.633   1.456   0.108  0.00  0.00    +0.172 C 
ATOM      3  C   LIG    1        9.700   0.760  -1.255  0.00  0.00    +0.176 C 
ATOM      4  C   LIG    1        8.446  -0.099  -1.442  0.00  0.00    +0.179 C 
ATOM      5  O   LIG    1        7.284   0.725  -1.328  0.00  0.00    -0.332 OA
ATOM      6  C   LIG    1        7.145   1.363  -0.057  0.00  0.00    +0.331 C 
ENDROOT
BRANCH   1   9
ATOM      7  C   LIG    1        7.393   4.642   3.045  0.00  0.00    +0.109 C 
ATOM      8  C   LIG    1        7.508   4.014   1.680  0.00  0.00    +0.210 C 
ATOM      9  N   LIG    1        8.235   2.892   1.513  0.00  0.00    -0.304 N 
ATOM     10  H   LIG    1        8.684   2.488   2.272  0.00  0.00    +0.149 HD
ATOM     11  O   LIG    1        6.945   4.519   0.731  0.00  0.00    -0.276 OA
ENDBRANCH   1   9
BRANCH   2  12
ATOM     12  O   LIG    1       10.763   2.317   0.261  0.00  0.00    -0.387 OA
ATOM     13  H   LIG    1       11.615   1.860   0.216  0.00  0.00    +0.210 HD
ENDBRANCH   2  12
BRANCH   3  14
ATOM     14  O   LIG    1        9.764   1.744  -2.290  0.00  0.00    -0.387 OA
ATOM     15  H   LIG    1        9.803   1.373  -3.182  0.00  0.00    +0.210 HD
ENDBRANCH   3  14
BRANCH   4  16
ATOM     16  C   LIG    1        8.476  -0.750  -2.827  0.00  0.00    +0.190 C 
BRANCH  16  17
ATOM     17  O   LIG    1        7.367  -1.641  -2.958  0.00  0.00    -0.392 OA
ATOM     18  H   LIG    1        7.322  -2.090  -3.813  0.00  0.00    +0.210 HD
ENDBRANCH  16  17
ENDBRANCH   4  16
BRANCH   6  19
ATOM     19  O   LIG    1        5.943   2.137  -0.042  0.00  0.00    -0.462 OA
BRANCH  19  20
ATOM     20  C   LIG    1        4.769   1.453  -0.035  0.00  0.00    +0.125 A 
ATOM     21  C   LIG    1        4.785   0.054  -0.043  0.00  0.00    +0.046 A 
ATOM     22  C   LIG    1        3.627  -0.658  -0.036  0.00  0.00    +0.012 A 
ATOM     23  C   LIG    1        2.394   0.016  -0.021  0.00  0.00    -0.018 A 
ATOM     24  C   LIG    1        1.178  -0.689  -0.013  0.00  0.00    +0.008 A 
ATOM     25  C   LIG    1        0.002  -0.004   0.002  0.00  0.00    +0.001 A 
ATOM     26  C   LIG    1       -0.017   1.389   0.010  0.00  0.00    +0.001 A 
ATOM     27  C   LIG    1        1.140   2.106   0.003  0.00  0.00    +0.008 A 
ATOM     28  C   LIG    1        2.375   1.433  -0.013  0.00  0.00    -0.014 A 
ATOM     29  C   LIG    1        3.589   2.139  -0.020  0.00  0.00    +0.054 A 
ENDBRANCH  19  20
ENDBRANCH   6  19
TORSDOF 7
