REMARK  Name = ZINC04654957
REMARK                            x       y       z     vdW  Elec       q    Type
REMARK                         _______ _______ _______ _____ _____    ______ ____
ROOT
ATOM      1  C   LIG    1       -4.554  -6.219   7.143  0.00  0.00    +0.027 C 
ENDROOT
BRANCH   1   3
ATOM      2  C   LIG    1       -5.588  -4.450   5.815  0.00  0.00    -0.027 C 
ATOM      3  C   LIG    1       -5.527  -5.083   6.960  0.00  0.00    -0.031 C 
BRANCH   2   4
ATOM      4  C   LIG    1       -4.816  -4.964   4.628  0.00  0.00    +0.053 C 
BRANCH   4   6
ATOM      5  C   LIG    1       -5.465  -4.560   2.309  0.00  0.00    -0.027 C 
ATOM      6  C   LIG    1       -5.748  -5.128   3.455  0.00  0.00    -0.027 C 
BRANCH   5   7
ATOM      7  C   LIG    1       -4.135  -3.879   2.114  0.00  0.00    +0.053 C 
BRANCH   7   9
ATOM      8  C   LIG    1       -3.072  -3.582  -0.064  0.00  0.00    -0.031 C 
ATOM      9  C   LIG    1       -3.478  -4.411   0.866  0.00  0.00    -0.027 C 
BRANCH   8  10
ATOM     10  C   LIG    1       -3.112  -2.096   0.181  0.00  0.00    +0.027 C 
BRANCH  10  11
ATOM     11  C   LIG    1       -1.738  -1.493  -0.115  0.00  0.00    +0.004 C 
BRANCH  11  12
ATOM     12  C   LIG    1       -1.779   0.017   0.134  0.00  0.00    +0.000 C 
BRANCH  12  14
ATOM     13  C   LIG    1       -0.445   2.129   0.086  0.00  0.00    +0.004 C 
ATOM     14  C   LIG    1       -0.404   0.620  -0.163  0.00  0.00    -0.003 C 
ENDBRANCH  12  14
ENDBRANCH  11  12
ENDBRANCH  10  11
ENDBRANCH   8  10
ENDBRANCH   7   9
ENDBRANCH   5   7
ENDBRANCH   4   6
ENDBRANCH   2   4
ENDBRANCH   1   3
BRANCH   1  15
ATOM     15  C   LIG    1       -3.701  -5.964   8.387  0.00  0.00    +0.004 C 
BRANCH  15  16
ATOM     16  C   LIG    1       -2.712  -7.117   8.572  0.00  0.00    +0.000 C 
BRANCH  16  17
ATOM     17  C   LIG    1       -1.859  -6.862   9.816  0.00  0.00    +0.000 C 
BRANCH  17  18
ATOM     18  C   LIG    1       -0.871  -8.016  10.002  0.00  0.00    +0.009 C 
BRANCH  18  19
ATOM     19  C   LIG    1       -0.017  -7.761  11.246  0.00  0.00    +0.096 C 
BRANCH  19  20
ATOM     20  C   LIG    1        0.956  -8.897  11.428  0.00  0.00    +0.213 C 
ATOM     21  N   LIG    1        1.815  -8.888  12.467  0.00  0.00    -0.313 N 
ATOM     22  H   LIG    1        1.807  -8.150  13.097  0.00  0.00    +0.149 HD
ATOM     23  O   LIG    1        0.967  -9.819  10.641  0.00  0.00    -0.276 OA
BRANCH  21  24
ATOM     24  C   LIG    1        2.762  -9.992  12.644  0.00  0.00    +0.132 C 
BRANCH  24  25
ATOM     25  C   LIG    1        3.615  -9.737  13.888  0.00  0.00    +0.174 C 
BRANCH  25  26
ATOM     26  O   LIG    1        2.783  -9.762  15.050  0.00  0.00    -0.393 OA
ATOM     27  H   LIG    1        3.259  -9.608  15.877  0.00  0.00    +0.209 HD
ENDBRANCH  25  26
ENDBRANCH  24  25
ENDBRANCH  21  24
ENDBRANCH  19  20
ENDBRANCH  18  19
ENDBRANCH  17  18
ENDBRANCH  16  17
ENDBRANCH  15  16
ENDBRANCH   1  15
TORSDOF 18
