REMARK  Name = ZINC04765033
REMARK                            x       y       z     vdW  Elec       q    Type
REMARK                         _______ _______ _______ _____ _____    ______ ____
ROOT
ATOM      1  C   LIG    1        3.034   2.999  -2.249  0.00  0.00    +0.040 C 
ATOM      2  C   LIG    1        3.977   2.928  -1.075  0.00  0.00    -0.052 C 
ATOM      3  C   LIG    1        3.660   2.164  -0.021  0.00  0.00    +0.065 C 
ATOM      4  C   LIG    1        4.582   2.068   1.133  0.00  0.00    +0.340 C 
ATOM      5  O   LIG    1        5.663   2.891   1.145  0.00  0.00    -0.457 OA
ATOM      6  C   LIG    1        6.274   3.074  -0.162  0.00  0.00    +0.185 C 
ATOM      7  C   LIG    1        7.543   3.906  -0.056  0.00  0.00    +0.064 C 
ATOM      8  C   LIG    1        7.209   5.322   0.415  0.00  0.00    +0.084 C 
ATOM      9 CL   LIG    1        8.723   6.297   0.517  0.00  0.00    -0.122 Cl
ATOM     10  C   LIG    1        6.248   5.967  -0.588  0.00  0.00    +0.020 C 
ATOM     11  C   LIG    1        4.958   5.150  -0.640  0.00  0.00    +0.013 C 
ATOM     12  O   LIG    1        4.379   1.282   2.037  0.00  0.00    -0.245 OA
ATOM     13  C   LIG    1        5.261   3.722  -1.103  0.00  0.00    +0.056 C 
ENDROOT
BRANCH   3  14
ATOM     14  C   LIG    1        2.384   1.407  -0.013  0.00  0.00    -0.011 A 
ATOM     15  C   LIG    1        1.167   2.088   0.002  0.00  0.00    +0.009 A 
ATOM     16  C   LIG    1       -0.017   1.379   0.010  0.00  0.00    +0.001 A 
ATOM     17  C   LIG    1        0.002  -0.004   0.002  0.00  0.00    +0.000 A 
ATOM     18  C   LIG    1        1.206  -0.684  -0.013  0.00  0.00    +0.001 A 
ATOM     19  C   LIG    1        2.397   0.014  -0.020  0.00  0.00    +0.009 A 
ENDBRANCH   3  14
TORSDOF 1
