REMARK  Name = ZINC04170167
REMARK                            x       y       z     vdW  Elec       q    Type
REMARK                         _______ _______ _______ _____ _____    ______ ____
ROOT
ATOM      1  C   LIG    1       -6.066   2.927   0.745  0.00  0.00    +0.000 A 
ATOM      2  C   LIG    1       -6.053   1.621   0.291  0.00  0.00    +0.002 A 
ATOM      3  C   LIG    1       -4.852   1.001   0.013  0.00  0.00    +0.024 A 
ATOM      4  C   LIG    1       -3.656   1.686   0.196  0.00  0.00    +0.039 A 
ATOM      5  C   LIG    1       -3.670   2.998   0.641  0.00  0.00    -0.026 A 
ATOM      6  C   LIG    1       -2.395   3.776   0.837  0.00  0.00    +0.038 C 
ATOM      7  C   LIG    1       -1.206   2.828   0.980  0.00  0.00    +0.024 C 
ATOM      8  C   LIG    1       -1.218   1.836  -0.190  0.00  0.00    +0.114 C 
ATOM      9  N   LIG    1       -2.447   1.037  -0.089  0.00  0.00    -0.271 N 
ATOM     10  C   LIG    1       -2.412  -0.299  -0.262  0.00  0.00    +0.226 C 
ATOM     11  O   LIG    1       -3.410  -0.961  -0.073  0.00  0.00    -0.275 OA
ATOM     12  C   LIG    1       -4.880   3.613   0.919  0.00  0.00    +0.005 A 
ENDROOT
BRANCH  10  13
ATOM     13  C   LIG    1       -1.132  -0.970  -0.691  0.00  0.00    +0.048 C 
ATOM     14  C   LIG    1       -0.126  -0.933   0.462  0.00  0.00    +0.019 C 
ATOM     15  C   LIG    1        1.173  -1.614   0.026  0.00  0.00    -0.009 C 
ATOM     16  C   LIG    1        0.884  -3.068  -0.352  0.00  0.00    +0.007 C 
ATOM     17  C   LIG    1       -0.122  -3.105  -1.504  0.00  0.00    -0.009 C 
ATOM     18  C   LIG    1        0.460  -2.370  -2.713  0.00  0.00    +0.007 C 
ATOM     19  C   LIG    1        0.749  -0.916  -2.334  0.00  0.00    -0.009 C 
ATOM     20  C   LIG    1        1.755  -0.878  -1.182  0.00  0.00    +0.007 C 
ATOM     21  C   LIG    1       -0.550  -0.234  -1.899  0.00  0.00    +0.019 C 
ATOM     22  C   LIG    1       -1.421  -2.424  -1.069  0.00  0.00    +0.019 C 
ENDBRANCH  10  13
TORSDOF 1
