REMARK  Name = ZINC04385934
REMARK                            x       y       z     vdW  Elec       q    Type
REMARK                         _______ _______ _______ _____ _____    ______ ____
ROOT
ATOM      1  C   LIG    1       -1.219   1.751   0.017  0.00  0.00    +0.007 A 
ATOM      2  C   LIG    1       -0.013   1.076   0.008  0.00  0.00    +0.022 A 
ATOM      3  C   LIG    1        1.176   1.784   0.000  0.00  0.00    +0.059 A 
ATOM      4 CL   LIG    1        2.691   0.937  -0.019  0.00  0.00    -0.082 Cl
ATOM      5  C   LIG    1        1.156   3.168   0.008  0.00  0.00    +0.060 A 
ATOM      6 CL   LIG    1        2.647   4.058  -0.003  0.00  0.00    -0.082 Cl
ATOM      7  C   LIG    1       -0.052   3.842   0.022  0.00  0.00    +0.026 A 
ATOM      8  C   LIG    1       -1.239   3.133   0.030  0.00  0.00    -0.026 A 
ENDROOT
BRANCH   8   9
ATOM      9  C   LIG    1       -2.555   3.867   0.046  0.00  0.00    +0.157 C 
BRANCH   9  10
ATOM     10  N   LIG    1       -2.994   4.112  -1.330  0.00  0.00    -0.332 N 
ATOM     11  C   LIG    1       -2.705   5.213  -2.090  0.00  0.00    +0.107 A 
ATOM     12  C   LIG    1       -3.301   5.029  -3.284  0.00  0.00    +0.130 A 
ATOM     13  N   LIG    1       -3.944   3.852  -3.249  0.00  0.00    -0.244 NA
ATOM     14  C   LIG    1       -3.765   3.298  -2.082  0.00  0.00    +0.199 A 
ENDBRANCH   9  10
ENDBRANCH   8   9
TORSDOF 2
