REMARK  Name = ZINC04618294
REMARK                            x       y       z     vdW  Elec       q    Type
REMARK                         _______ _______ _______ _____ _____    ______ ____
ROOT
ATOM      1  S   LIG    1        0.025   0.171   2.726  0.00  0.00    +0.073 S 
ATOM      2  O   LIG    1        0.076  -0.810   3.753  0.00  0.00    -0.150 OA
ATOM      3  O   LIG    1       -1.014   1.137   2.645  0.00  0.00    -0.150 OA
ENDROOT
BRANCH   1  10
ATOM      4  C   LIG    1       -0.018   1.503   0.010  0.00  0.00    +0.046 C 
ATOM      5  C   LIG    1        0.002  -0.004   0.002  0.00  0.00    -0.024 A 
ATOM      6  C   LIG    1        0.006  -0.689  -1.199  0.00  0.00    +0.007 A 
ATOM      7  C   LIG    1        0.025  -2.071  -1.207  0.00  0.00    +0.033 A 
ATOM      8  C   LIG    1        0.040  -2.768  -0.013  0.00  0.00    +0.123 A 
ATOM      9  C   LIG    1        0.037  -2.084   1.188  0.00  0.00    +0.061 A 
ATOM     10  C   LIG    1        0.023  -0.702   1.195  0.00  0.00    +0.114 A 
BRANCH   8  11
ATOM     11  N   LIG    1        0.059  -4.248  -0.021  0.00  0.00    +0.006 N 
ATOM     12  O   LIG    1        0.061  -4.847  -1.072  0.00  0.00    -0.130 OA
BRANCH  11  13
ATOM     13  O   LIG    1        0.073  -4.859   1.022  0.00  0.00    -0.396 OA
ATOM     14  H   LIG    1        0.071  -4.395   1.836  0.00  0.00    +0.329 HD
ENDBRANCH  11  13
ENDBRANCH   8  11
ENDBRANCH   1  10
BRANCH   1  15
ATOM     15  N   LIG    1        1.449   1.014   2.807  0.00  0.00    -0.214 N 
ATOM     16  H   LIG    1        2.097   0.957   2.068  0.00  0.00    +0.174 HD
BRANCH  15  17
ATOM     17  C   LIG    1        1.729   1.805   3.920  0.00  0.00    +0.074 A 
ATOM     18  C   LIG    1        0.827   1.884   4.960  0.00  0.00    +0.026 A 
ATOM     19  C   LIG    1        1.095   2.669   6.077  0.00  0.00    +0.003 A 
ATOM     20  C   LIG    1        2.253   3.379   6.174  0.00  0.00    +0.010 A 
ATOM     21  C   LIG    1        3.197   3.324   5.136  0.00  0.00    +0.002 A 
ATOM     22  C   LIG    1        4.403   4.047   5.205  0.00  0.00    +0.011 A 
ATOM     23  C   LIG    1        5.283   3.934   4.167  0.00  0.00    +0.020 A 
ATOM     24  C   LIG    1        4.966   3.134   3.071  0.00  0.00    +0.111 A 
ATOM     25  N   LIG    1        3.839   2.467   3.008  0.00  0.00    -0.253 NA
ATOM     26  C   LIG    1        2.941   2.526   3.995  0.00  0.00    +0.093 A 
ENDBRANCH  15  17
ENDBRANCH   1  15
TORSDOF 5
