REMARK  Name = ZINC04217580
REMARK                            x       y       z     vdW  Elec       q    Type
REMARK                         _______ _______ _______ _____ _____    ______ ____
ROOT
ATOM      1  C   LIG    1        1.155   3.170   0.008  0.00  0.00    +0.155 A 
ATOM      2  C   LIG    1        1.175   1.782   0.000  0.00  0.00    +0.057 A 
ATOM      3  I   LIG    1        3.003   0.760  -0.022  0.00  0.00    -0.040 I 
ATOM      4  C   LIG    1       -0.013   1.076   0.008  0.00  0.00    +0.022 A 
ATOM      5  C   LIG    1       -1.220   1.750   0.017  0.00  0.00    -0.035 A 
ATOM      6  C   LIG    1       -1.242   3.133   0.031  0.00  0.00    +0.022 A 
ATOM      7  C   LIG    1       -0.058   3.844   0.023  0.00  0.00    +0.057 A 
ATOM      8  I   LIG    1       -0.093   5.939   0.035  0.00  0.00    -0.040 I 
ENDROOT
BRANCH   1   9
ATOM      9  O   LIG    1        2.322   3.868   0.001  0.00  0.00    -0.454 OA
BRANCH   9  16
ATOM     10  C   LIG    1        2.220   3.826  -2.375  0.00  0.00    +0.050 A 
ATOM     11  C   LIG    1        2.763   4.169  -3.598  0.00  0.00    +0.050 A 
ATOM     12  C   LIG    1        3.952   4.880  -3.654  0.00  0.00    +0.130 A 
ATOM     13  C   LIG    1        4.594   5.252  -2.481  0.00  0.00    +0.058 A 
ATOM     14  I   LIG    1        6.391   6.326  -2.565  0.00  0.00    -0.040 I 
ATOM     15  C   LIG    1        4.048   4.913  -1.258  0.00  0.00    +0.064 A 
ATOM     16  C   LIG    1        2.859   4.202  -1.202  0.00  0.00    +0.130 A 
BRANCH  12  17
ATOM     17  O   LIG    1        4.489   5.214  -4.858  0.00  0.00    -0.506 OA
ATOM     18  H   LIG    1        5.097   4.552  -5.214  0.00  0.00    +0.292 HD
ENDBRANCH  12  17
ENDBRANCH   9  16
ENDBRANCH   1   9
BRANCH   5  19
ATOM     19  C   LIG    1       -2.513   0.977   0.019  0.00  0.00    +0.155 C 
BRANCH  19  20
ATOM     20  C   LIG    1       -2.938   0.711   1.440  0.00  0.00    +0.309 C 
ATOM     21  O   LIG    1       -2.260   1.109   2.358  0.00  0.00    -0.251 OA
BRANCH  20  22
ATOM     22  O   LIG    1       -4.069   0.032   1.687  0.00  0.00    -0.480 OA
ATOM     23  H   LIG    1       -4.595  -0.276   0.975  0.00  0.00    +0.295 HD
ENDBRANCH  20  22
ENDBRANCH  19  20
ENDBRANCH   5  19
TORSDOF 6
