REMARK  Name = ZINC04281482
REMARK                            x       y       z     vdW  Elec       q    Type
REMARK                         _______ _______ _______ _____ _____    ______ ____
ROOT
ATOM      1  C   LIG    1       -1.187   1.624   0.017  0.00  0.00    +0.249 C 
ATOM      2  N   LIG    1       -0.011   0.966   0.007  0.00  0.00    -0.275 N 
ATOM      3  H   LIG    1        0.002  -0.004   0.002  0.00  0.00    +0.156 HD
ATOM      4  O   LIG    1       -1.204   2.839   0.023  0.00  0.00    -0.270 OA
ENDROOT
BRANCH   1   8
ATOM      5  C   LIG    1       -4.836  -0.550   0.021  0.00  0.00    +0.000 A 
ATOM      6  C   LIG    1       -4.859   0.834   0.029  0.00  0.00    +0.001 A 
ATOM      7  C   LIG    1       -3.677   1.546   0.028  0.00  0.00    +0.013 A 
ATOM      8  C   LIG    1       -2.457   0.868   0.018  0.00  0.00    +0.037 A 
ATOM      9  C   LIG    1       -2.442  -0.528   0.005  0.00  0.00    +0.013 A 
ATOM     10  C   LIG    1       -3.631  -1.228   0.012  0.00  0.00    +0.001 A 
ENDBRANCH   1   8
BRANCH   2  11
ATOM     11  C   LIG    1        1.179   1.675  -0.000  0.00  0.00    +0.084 A 
ATOM     12  C   LIG    1        2.479   1.181  -0.010  0.00  0.00    +0.065 A 
ATOM     13  C   LIG    1        3.543   2.155  -0.021  0.00  0.00    +0.022 A 
ATOM     14  C   LIG    1        3.189   3.453  -0.010  0.00  0.00    +0.048 A 
ATOM     15  S   LIG    1        1.409   3.391   0.007  0.00  0.00    -0.081 S 
BRANCH  12  16
ATOM     16  C   LIG    1        2.754  -0.259  -0.012  0.00  0.00    +0.244 C 
ATOM     17  N   LIG    1        4.027  -0.702  -0.022  0.00  0.00    -0.325 N 
ATOM     18  H   LIG    1        4.209  -1.655  -0.023  0.00  0.00    +0.145 HD
ATOM     19  H   LIG    1        4.761  -0.068  -0.026  0.00  0.00    +0.145 HD
ATOM     20  O   LIG    1        1.833  -1.055  -0.006  0.00  0.00    -0.270 OA
ENDBRANCH  12  16
ENDBRANCH   2  11
TORSDOF 3
