REMARK  Name = ZINC04102306
REMARK                            x       y       z     vdW  Elec       q    Type
REMARK                         _______ _______ _______ _____ _____    ______ ____
ROOT
ATOM      1  C   LIG    1        6.330  -4.752   2.282  0.00  0.00    +0.146 A 
ATOM      2  C   LIG    1        5.569  -3.653   2.673  0.00  0.00    +0.048 A 
ATOM      3  C   LIG    1        6.103  -2.699   3.492  0.00  0.00    +0.019 A 
ATOM      4  C   LIG    1        7.420  -2.826   3.941  0.00  0.00    +0.063 A 
ATOM      5  C   LIG    1        8.019  -1.816   4.823  0.00  0.00    +0.156 A 
ATOM      6  C   LIG    1        9.326  -2.004   5.231  0.00  0.00    +0.162 A 
ATOM      7  C   LIG    1       10.031  -3.142   4.793  0.00  0.00    +0.362 A 
ATOM      8  O   LIG    1        9.467  -4.055   3.987  0.00  0.00    -0.419 OA
ATOM      9  O   LIG    1       11.183  -3.302   5.157  0.00  0.00    -0.243 OA
ATOM     10  C   LIG    1        8.194  -3.933   3.552  0.00  0.00    +0.164 A 
ATOM     11  C   LIG    1        7.636  -4.896   2.723  0.00  0.00    +0.126 A 
ATOM     12 CL   LIG    1        8.572  -6.274   2.234  0.00  0.00    -0.076 Cl
ENDROOT
BRANCH   6  13
ATOM     13  N   LIG    1        9.946  -1.068   6.074  0.00  0.00    -0.273 N 
ATOM     14  H   LIG    1       10.042  -0.146   5.788  0.00  0.00    +0.155 HD
ATOM     15  C   LIG    1       10.409  -1.450   7.281  0.00  0.00    +0.249 C 
ATOM     16  O   LIG    1       10.369  -2.622   7.604  0.00  0.00    -0.270 OA
BRANCH  15  17
ATOM     17  C   LIG    1       10.963  -0.447   8.210  0.00  0.00    +0.038 A 
ATOM     18  C   LIG    1       11.005   0.901   7.843  0.00  0.00    +0.016 A 
ATOM     19  C   LIG    1       11.524   1.834   8.713  0.00  0.00    +0.046 A 
ATOM     20  C   LIG    1       12.005   1.437   9.955  0.00  0.00    +0.120 A 
ATOM     21  C   LIG    1       11.966   0.097  10.324  0.00  0.00    -0.002 A 
ATOM     22  C   LIG    1       11.443  -0.841   9.462  0.00  0.00    +0.020 A 
BRANCH  20  23
ATOM     23  O   LIG    1       12.516   2.359  10.809  0.00  0.00    -0.506 OA
ATOM     24  H   LIG    1       11.862   2.747  11.407  0.00  0.00    +0.292 HD
ENDBRANCH  20  23
BRANCH  21  25
ATOM     25  C   LIG    1       12.489  -0.328  11.671  0.00  0.00    +0.066 C 
BRANCH  25  26
ATOM     26  C   LIG    1       13.992  -0.425  11.619  0.00  0.00    -0.023 C 
ATOM     27  C   LIG    1       14.589  -1.538  11.966  0.00  0.00    -0.079 C 
ATOM     28  C   LIG    1       16.078  -1.683  11.784  0.00  0.00    +0.038 C 
ATOM     29  C   LIG    1       13.787  -2.674  12.546  0.00  0.00    +0.038 C 
ENDBRANCH  25  26
ENDBRANCH  21  25
ENDBRANCH  15  17
ENDBRANCH   6  13
BRANCH   5  30
ATOM     30  O   LIG    1        7.312  -0.733   5.225  0.00  0.00    -0.504 OA
ATOM     31  H   LIG    1        6.426  -0.619   4.940  0.00  0.00    +0.292 HD
ENDBRANCH   5  30
BRANCH   1  32
ATOM     32  O   LIG    1        5.786  -5.692   1.467  0.00  0.00    -0.459 OA
BRANCH  32  35
ATOM     33  C   LIG    1        2.574  -6.377  -0.355  0.00  0.00    +0.243 C 
ATOM     34  C   LIG    1        4.040  -6.571   0.044  0.00  0.00    +0.226 C 
ATOM     35  C   LIG    1        4.436  -5.485   1.048  0.00  0.00    +0.341 C 
ATOM     36  O   LIG    1        3.569  -5.548   2.182  0.00  0.00    -0.331 OA
ATOM     37  C   LIG    1        2.191  -5.327   1.877  0.00  0.00    +0.098 C 
ATOM     38  C   LIG    1        2.026  -3.950   1.232  0.00  0.00    +0.044 C 
ATOM     39  C   LIG    1        1.366  -5.389   3.164  0.00  0.00    +0.044 C 
ATOM     40  C   LIG    1        1.703  -6.408   0.905  0.00  0.00    +0.192 C 
BRANCH  34  41
ATOM     41  O   LIG    1        4.867  -6.474  -1.117  0.00  0.00    -0.382 OA
ATOM     42  H   LIG    1        5.811  -6.587  -0.938  0.00  0.00    +0.210 HD
ENDBRANCH  34  41
BRANCH  40  43
ATOM     43  O   LIG    1        1.807  -7.690   1.527  0.00  0.00    -0.373 OA
ATOM     44  C   LIG    1        0.839  -8.637   1.071  0.00  0.00    +0.194 C 
ENDBRANCH  40  43
BRANCH  33  45
ATOM     45  O   LIG    1        2.420  -5.118  -1.012  0.00  0.00    -0.451 OA
BRANCH  45  46
ATOM     46  C   LIG    1        2.568  -5.104  -2.353  0.00  0.00    +0.356 C 
ATOM     47  O   LIG    1        2.822  -6.135  -2.946  0.00  0.00    -0.243 OA
BRANCH  46  52
ATOM     48  C   LIG    1        1.802  -0.237  -3.386  0.00  0.00    +0.063 C 
ATOM     49  C   LIG    1        2.087  -1.707  -3.553  0.00  0.00    +0.013 A 
ATOM     50  C   LIG    1        2.333  -2.333  -4.729  0.00  0.00    +0.023 A 
ATOM     51  C   LIG    1        2.548  -3.687  -4.458  0.00  0.00    +0.034 A 
ATOM     52  C   LIG    1        2.424  -3.849  -3.093  0.00  0.00    +0.125 A 
ATOM     53  N   LIG    1        2.145  -2.613  -2.554  0.00  0.00    -0.353 N 
ATOM     54  H   LIG    1        2.009  -2.424  -1.612  0.00  0.00    +0.166 HD
ENDBRANCH  46  52
ENDBRANCH  45  46
ENDBRANCH  33  45
ENDBRANCH  32  35
ENDBRANCH   1  32
TORSDOF 13
