REMARK  Name = ZINC04632086
REMARK                            x       y       z     vdW  Elec       q    Type
REMARK                         _______ _______ _______ _____ _____    ______ ____
ROOT
ATOM      1  C   LIG    1       -0.894   1.703   3.708  0.00  0.00    +0.169 C 
ATOM      2  N   LIG    1       -0.242   1.246   2.466  0.00  0.00    -0.271 N 
ATOM      3  C   LIG    1       -0.718   1.572   1.248  0.00  0.00    +0.218 C 
ATOM      4  O   LIG    1       -1.714   2.256   1.150  0.00  0.00    -0.276 OA
ATOM      5  C   LIG    1        0.954   0.425   2.634  0.00  0.00    +0.196 C 
ATOM      6  C   LIG    1        0.861  -0.431   3.931  0.00  0.00    +0.105 C 
ATOM      7  S   LIG    1        0.050   0.822   5.024  0.00  0.00    -0.131 S 
ENDROOT
BRANCH   1  12
ATOM      8  C   LIG    1       -0.255   5.340   2.924  0.00  0.00    +0.001 A 
ATOM      9  C   LIG    1       -0.512   5.938   4.144  0.00  0.00    +0.004 A 
ATOM     10  C   LIG    1       -0.894   5.168   5.225  0.00  0.00    +0.046 A 
ATOM     11  C   LIG    1       -1.019   3.793   5.086  0.00  0.00    +0.123 A 
ATOM     12  C   LIG    1       -0.760   3.196   3.862  0.00  0.00    +0.024 A 
ATOM     13  C   LIG    1       -0.373   3.970   2.785  0.00  0.00    +0.010 A 
BRANCH  11  14
ATOM     14  O   LIG    1       -1.395   3.033   6.149  0.00  0.00    -0.506 OA
ATOM     15  H   LIG    1       -0.656   2.713   6.684  0.00  0.00    +0.292 HD
ENDBRANCH  11  14
ENDBRANCH   1  12
BRANCH   5  16
ATOM     16  C   LIG    1        2.163   1.321   2.717  0.00  0.00    +0.326 C 
ATOM     17  O   LIG    1        2.033   2.520   2.644  0.00  0.00    -0.249 OA
BRANCH  16  18
ATOM     18  O   LIG    1        3.385   0.788   2.874  0.00  0.00    -0.479 OA
ATOM     19  H   LIG    1        3.486  -0.142   2.931  0.00  0.00    +0.295 HD
ENDBRANCH  16  18
ENDBRANCH   5  16
BRANCH   3  20
ATOM     20  C   LIG    1       -0.013   1.086   0.008  0.00  0.00    +0.106 C 
BRANCH  20  21
ATOM     21  C   LIG    1       -0.753   1.593  -1.232  0.00  0.00    +0.075 C 
BRANCH  21  22
ATOM     22  S   LIG    1        0.096   1.008  -2.724  0.00  0.00    -0.178 S 
ATOM     23  H   LIG    1       -0.637   1.510  -3.733  0.00  0.00    +0.102 HD
ENDBRANCH  21  22
ENDBRANCH  20  21
ENDBRANCH   3  20
TORSDOF 7
