REMARK  Name = ZINC04245652
REMARK                            x       y       z     vdW  Elec       q    Type
REMARK                         _______ _______ _______ _____ _____    ______ ____
ROOT
ATOM      1  C   LIG    1        6.380  -4.799   0.727  0.00  0.00    +0.199 C 
ENDROOT
BRANCH   1   2
ATOM      2  C   LIG    1        4.928  -4.437   0.406  0.00  0.00    +0.276 C 
BRANCH   2   3
ATOM      3  O   LIG    1        4.770  -3.017   0.452  0.00  0.00    -0.447 OA
BRANCH   3   6
ATOM      4  N   LIG    1        3.325  -1.201   0.217  0.00  0.00    -0.251 N 
ATOM      5  H   LIG    1        4.066  -0.591   0.353  0.00  0.00    +0.158 HD
ATOM      6  C   LIG    1        3.542  -2.530   0.191  0.00  0.00    +0.405 C 
ATOM      7  O   LIG    1        2.629  -3.290  -0.069  0.00  0.00    -0.226 OA
BRANCH   4  11
ATOM      8  C   LIG    1       -0.533   0.291  -0.286  0.00  0.00    +0.000 A 
ATOM      9  C   LIG    1       -0.337  -0.905   0.378  0.00  0.00    +0.002 A 
ATOM     10  C   LIG    1        0.940  -1.403   0.547  0.00  0.00    +0.023 A 
ATOM     11  C   LIG    1        2.029  -0.700   0.047  0.00  0.00    +0.036 A 
ATOM     12  C   LIG    1        1.829   0.501  -0.620  0.00  0.00    +0.023 A 
ATOM     13  C   LIG    1        0.549   0.993  -0.785  0.00  0.00    +0.002 A 
ENDBRANCH   4  11
ENDBRANCH   3   6
ENDBRANCH   2   3
ENDBRANCH   1   2
BRANCH   1  14
ATOM     14  O   LIG    1        7.235  -4.290  -0.298  0.00  0.00    -0.445 OA
BRANCH  14  15
ATOM     15  C   LIG    1        8.262  -5.072  -0.682  0.00  0.00    +0.405 C 
ATOM     16  N   LIG    1        9.154  -4.619  -1.585  0.00  0.00    -0.251 N 
ATOM     17  H   LIG    1        9.102  -3.703  -1.900  0.00  0.00    +0.158 HD
ATOM     18  O   LIG    1        8.384  -6.187  -0.213  0.00  0.00    -0.226 OA
BRANCH  16  19
ATOM     19  C   LIG    1       10.155  -5.470  -2.068  0.00  0.00    +0.036 A 
ATOM     20  C   LIG    1        9.903  -6.827  -2.212  0.00  0.00    +0.023 A 
ATOM     21  C   LIG    1       10.893  -7.665  -2.689  0.00  0.00    +0.002 A 
ATOM     22  C   LIG    1       12.133  -7.151  -3.022  0.00  0.00    +0.000 A 
ATOM     23  C   LIG    1       12.387  -5.800  -2.879  0.00  0.00    +0.002 A 
ATOM     24  C   LIG    1       11.399  -4.956  -2.408  0.00  0.00    +0.023 A 
ENDBRANCH  16  19
ENDBRANCH  14  15
ENDBRANCH   1  14
BRANCH   1  25
ATOM     25  C   LIG    1        6.773  -4.184   2.071  0.00  0.00    -0.030 C 
BRANCH  25  26
ATOM     26  N   LIG    1        8.136  -4.605   2.423  0.00  0.00    +0.382 N 
ATOM     27  H   LIG    1        8.762  -4.380   1.665  0.00  0.00    -0.082 HD
ATOM     28  C   LIG    1        8.153  -6.055   2.654  0.00  0.00    -0.079 C 
ATOM     29  C   LIG    1        9.585  -6.512   2.941  0.00  0.00    -0.019 C 
ATOM     30  C   LIG    1       10.107  -5.789   4.186  0.00  0.00    -0.004 C 
ATOM     31  C   LIG    1       10.014  -4.277   3.962  0.00  0.00    -0.019 C 
ATOM     32  C   LIG    1        8.566  -3.902   3.637  0.00  0.00    -0.079 C 
ENDBRANCH  25  26
ENDBRANCH   1  25
TORSDOF 9
