REMARK  Name = ZINC04782861
REMARK                            x       y       z     vdW  Elec       q    Type
REMARK                         _______ _______ _______ _____ _____    ______ ____
ROOT
ATOM      1  C   LIG    1       -0.836   3.588   1.243  0.00  0.00    -0.001 C 
ATOM      2  C   LIG    1       -2.193   4.060   0.664  0.00  0.00    +0.005 C 
ATOM      3  C   LIG    1       -3.094   2.800   0.556  0.00  0.00    +0.012 C 
ATOM      4  C   LIG    1       -2.417   1.799   1.498  0.00  0.00    +0.003 C 
ATOM      5  C   LIG    1       -2.789   2.163   2.940  0.00  0.00    +0.017 C 
ATOM      6  C   LIG    1       -2.711   0.354   1.274  0.00  0.00    +0.008 C 
ATOM      7  C   LIG    1       -3.998  -0.041   0.679  0.00  0.00    +0.160 C 
ATOM      8  C   LIG    1       -4.287  -1.513   0.454  0.00  0.00    +0.084 C 
ATOM      9  C   LIG    1       -3.584  -2.265   1.588  0.00  0.00    +0.016 C 
ATOM     10  C   LIG    1       -2.085  -2.046   1.498  0.00  0.00    +0.001 C 
ATOM     11  C   LIG    1       -1.539  -2.461   0.129  0.00  0.00    +0.016 C 
ATOM     12  C   LIG    1       -1.353  -2.843   2.571  0.00  0.00    +0.015 C 
ATOM     13  C   LIG    1       -1.738  -4.321   2.490  0.00  0.00    +0.046 C 
ATOM     14  C   LIG    1       -3.233  -4.483   2.728  0.00  0.00    +0.182 C 
ATOM     15  C   LIG    1       -4.048  -3.701   1.696  0.00  0.00    +0.006 C 
ATOM     16  C   LIG    1       -5.513  -3.702   2.193  0.00  0.00    +0.015 C 
ATOM     17  C   LIG    1       -4.024  -4.430   0.353  0.00  0.00    +0.015 C 
ATOM     18  O   LIG    1       -4.826   0.791   0.370  0.00  0.00    -0.292 OA
ATOM     19  C   LIG    1       -1.785  -0.566   1.641  0.00  0.00    +0.008 C 
ATOM     20  C   LIG    1       -0.480  -0.143   2.180  0.00  0.00    +0.161 C 
ATOM     21  O   LIG    1        0.342  -0.956   2.556  0.00  0.00    -0.292 OA
ATOM     22  C   LIG    1       -0.112   1.330   2.282  0.00  0.00    +0.087 C 
ATOM     23  C   LIG    1       -0.919   2.061   1.231  0.00  0.00    -0.013 C 
ATOM     24  C   LIG    1       -0.524   1.561  -0.166  0.00  0.00    +0.013 C 
ENDROOT
BRANCH   1  26
ATOM     25  C   LIG    1        1.647   3.622   0.955  0.00  0.00    +0.008 C 
ATOM     26  C   LIG    1        0.312   4.057   0.346  0.00  0.00    -0.010 C 
BRANCH  26  27
ATOM     27  C   LIG    1        0.278   5.582   0.229  0.00  0.00    +0.014 C 
BRANCH  27  28
ATOM     28  C   LIG    1        1.346   6.042  -0.766  0.00  0.00    +0.121 C 
BRANCH  28  29
ATOM     29  C   LIG    1        1.312   7.544  -0.881  0.00  0.00    +0.305 C 
ATOM     30  O   LIG    1        0.515   8.182  -0.234  0.00  0.00    -0.251 OA
BRANCH  29  31
ATOM     31  O   LIG    1        2.167   8.174  -1.702  0.00  0.00    -0.481 OA
ATOM     32  H   LIG    1        2.785   7.679  -2.204  0.00  0.00    +0.295 HD
ENDBRANCH  29  31
ENDBRANCH  28  29
ENDBRANCH  27  28
ENDBRANCH  26  27
ENDBRANCH   1  26
BRANCH  14  33
ATOM     33  O   LIG    1       -3.586  -5.892   2.646  0.00  0.00    -0.461 OA
BRANCH  33  34
ATOM     34  C   LIG    1       -3.535  -6.601   3.784  0.00  0.00    +0.304 C 
ATOM     35  C   LIG    1       -3.887  -8.066   3.776  0.00  0.00    +0.136 C 
ATOM     36  O   LIG    1       -3.206  -6.064   4.816  0.00  0.00    -0.251 OA
ENDBRANCH  33  34
ENDBRANCH  14  33
TORSDOF 7
