REMARK  Name = ZINC04098786
REMARK                            x       y       z     vdW  Elec       q    Type
REMARK                         _______ _______ _______ _____ _____    ______ ____
ROOT
ATOM      1  C   LIG    1        1.061   1.382  -4.629  0.00  0.00    +0.022 C 
ATOM      2  C   LIG    1        2.483   1.947  -4.653  0.00  0.00    -0.001 C 
ATOM      3  C   LIG    1        3.248   1.409  -3.442  0.00  0.00    +0.004 C 
ATOM      4  C   LIG    1        4.693   1.905  -3.479  0.00  0.00    +0.000 C 
ATOM      5  C   LIG    1        5.365   1.403  -4.760  0.00  0.00    +0.000 C 
ATOM      6  C   LIG    1        4.610   2.011  -5.946  0.00  0.00    +0.004 C 
ATOM      7  C   LIG    1        3.166   1.505  -5.929  0.00  0.00    -0.007 C 
ATOM      8  C   LIG    1        2.415   2.109  -7.115  0.00  0.00    +0.019 C 
ATOM      9  C   LIG    1        0.972   1.607  -7.177  0.00  0.00    +0.105 C 
ATOM     10  C   LIG    1        0.214   2.580  -8.068  0.00  0.00    +0.311 C 
ATOM     11  O   LIG    1        0.102   2.500  -9.268  0.00  0.00    -0.251 OA
ATOM     12  O   LIG    1       -0.298   3.557  -7.301  0.00  0.00    -0.461 OA
ATOM     13  C   LIG    1       -0.002   3.325  -5.886  0.00  0.00    +0.178 C 
ATOM     14  C   LIG    1       -1.202   3.703  -5.014  0.00  0.00    +0.052 C 
ATOM     15  C   LIG    1        0.258   1.808  -5.826  0.00  0.00    +0.050 C 
ENDROOT
BRANCH   1  17
ATOM     16  C   LIG    1       -0.154   0.995  -2.547  0.00  0.00    -0.046 C 
ATOM     17  C   LIG    1        0.367   1.861  -3.380  0.00  0.00    -0.029 C 
BRANCH  16  23
ATOM     18  C   LIG    1       -2.913   3.034  -0.084  0.00  0.00    -0.013 C 
ATOM     19  C   LIG    1       -2.971   1.506  -0.130  0.00  0.00    -0.071 C 
ATOM     20  N   LIG    1       -2.246   0.994  -1.312  0.00  0.00    +0.384 N 
ATOM     21  H   LIG    1       -2.247  -0.032  -1.285  0.00  0.00    -0.081 HD
ATOM     22  C   LIG    1       -2.920   1.441  -2.549  0.00  0.00    -0.095 C 
ATOM     23  C   LIG    1       -0.848   1.473  -1.298  0.00  0.00    -0.045 C 
ATOM     24  C   LIG    1       -0.139   0.900  -0.069  0.00  0.00    -0.011 C 
ATOM     25  C   LIG    1       -0.859   1.372   1.197  0.00  0.00    -0.003 C 
ATOM     26  C   LIG    1       -2.325   0.933   1.134  0.00  0.00    -0.016 C 
ENDBRANCH  16  23
ENDBRANCH   1  17
TORSDOF 2
