REMARK  Name = ZINC04272052
REMARK                            x       y       z     vdW  Elec       q    Type
REMARK                         _______ _______ _______ _____ _____    ______ ____
ROOT
ATOM      1  C   LIG    1        3.694  -0.645  -0.592  0.00  0.00    +0.045 A 
ATOM      2  C   LIG    1        4.819   0.113  -0.935  0.00  0.00    +0.055 A 
ATOM      3  C   LIG    1        4.779   1.475  -0.896  0.00  0.00    +0.140 A 
ATOM      4  C   LIG    1        3.612   2.144  -0.511  0.00  0.00    +0.064 A 
ATOM      5  C   LIG    1        2.475   1.411  -0.163  0.00  0.00    +0.057 A 
ATOM      6  C   LIG    1        1.236   2.093   0.245  0.00  0.00    +0.196 C 
ATOM      7  O   LIG    1        1.248   3.277   0.524  0.00  0.00    -0.287 OA
ATOM      8  C   LIG    1       -0.024   1.322   0.311  0.00  0.00    +0.033 A 
ATOM      9  C   LIG    1       -1.250   1.974   0.408  0.00  0.00    +0.012 A 
ATOM     10  C   LIG    1       -2.418   1.236   0.471  0.00  0.00    +0.001 A 
ATOM     11  C   LIG    1       -2.378  -0.147   0.429  0.00  0.00    +0.001 A 
ATOM     12  C   LIG    1       -1.168  -0.811   0.329  0.00  0.00    +0.012 A 
ATOM     13  C   LIG    1        0.017  -0.084   0.269  0.00  0.00    +0.033 A 
ATOM     14  C   LIG    1        1.319  -0.776   0.161  0.00  0.00    +0.196 C 
ATOM     15  O   LIG    1        1.401  -1.971   0.370  0.00  0.00    -0.287 OA
ATOM     16  C   LIG    1        2.516  -0.000  -0.204  0.00  0.00    +0.056 A 
ENDROOT
BRANCH   3  17
ATOM     17  S   LIG    1        6.212   2.402  -1.334  0.00  0.00    +0.111 S 
ATOM     18  O   LIG    1        6.239   3.536  -0.478  0.00  0.00    -0.142 OA
ATOM     19  O   LIG    1        6.203   2.518  -2.751  0.00  0.00    -0.142 OA
BRANCH  17  20
ATOM     20  O   LIG    1        7.424   1.555  -0.974  0.00  0.00    -0.250 OA
ATOM     21  H   LIG    1        7.445   0.766  -1.537  0.00  0.00    +0.245 HD
ENDBRANCH  17  20
ENDBRANCH   3  17
BRANCH   4  22
ATOM     22  N   LIG    1        3.585   3.530  -0.475  0.00  0.00    -0.356 N 
ATOM     23  H   LIG    1        4.196   4.042  -1.028  0.00  0.00    +0.142 HD
ATOM     24  H   LIG    1        2.955   3.988   0.104  0.00  0.00    +0.142 HD
ENDBRANCH   4  22
BRANCH   1  25
ATOM     25  N   LIG    1        3.748  -2.029  -0.635  0.00  0.00    -0.314 N 
ATOM     26  H   LIG    1        4.191  -2.520   0.074  0.00  0.00    +0.152 HD
BRANCH  25  31
ATOM     27  C   LIG    1        2.516  -4.782  -2.735  0.00  0.00    +0.095 A 
ATOM     28  C   LIG    1        2.005  -4.081  -3.813  0.00  0.00    +0.027 A 
ATOM     29  C   LIG    1        2.072  -2.700  -3.837  0.00  0.00    +0.004 A 
ATOM     30  C   LIG    1        2.646  -2.016  -2.783  0.00  0.00    +0.023 A 
ATOM     31  C   LIG    1        3.164  -2.717  -1.702  0.00  0.00    +0.033 A 
ATOM     32  C   LIG    1        3.094  -4.105  -1.680  0.00  0.00    +0.050 A 
BRANCH  27  33
ATOM     33  S   LIG    1        2.427  -6.542  -2.710  0.00  0.00    +0.018 S 
ATOM     34  O   LIG    1        3.463  -6.988  -1.845  0.00  0.00    -0.165 OA
ATOM     35  O   LIG    1        2.331  -6.963  -4.063  0.00  0.00    -0.165 OA
BRANCH  33  37
ATOM     36  C   LIG    1       -0.026  -7.591  -2.623  0.00  0.00    +0.029 C 
ATOM     37  C   LIG    1        0.904  -6.976  -1.937  0.00  0.00    +0.132 C 
ENDBRANCH  33  37
ENDBRANCH  27  33
ENDBRANCH  25  31
ENDBRANCH   1  25
TORSDOF 7
