REMARK  Name = ZINC04471294
REMARK                            x       y       z     vdW  Elec       q    Type
REMARK                         _______ _______ _______ _____ _____    ______ ____
ROOT
ATOM      1  N   LIG    1        1.124   1.776   0.001  0.00  0.00    -0.184 N 
ATOM      2  C   LIG    1        0.775   3.077   0.011  0.00  0.00    +0.272 C 
ATOM      3  C   LIG    1       -0.696   3.126   0.025  0.00  0.00    +0.105 C 
ATOM      4  C   LIG    1       -1.128   1.718   0.016  0.00  0.00    +0.266 C 
ATOM      5  O   LIG    1       -2.275   1.312   0.019  0.00  0.00    -0.268 OA
ATOM      6  C   LIG    1       -1.503   4.257   0.037  0.00  0.00    +0.064 C 
ATOM      7  O   LIG    1        1.532   4.030   0.009  0.00  0.00    -0.268 OA
ATOM      8  N   LIG    1       -0.011   0.966   0.007  0.00  0.00    -0.223 N 
ATOM      9  H   LIG    1        0.002  -0.004   0.002  0.00  0.00    +0.174 HD
ENDROOT
BRANCH   1  14
ATOM     10  C   LIG    1        6.463  -0.139  -0.058  0.00  0.00    +0.044 C 
ATOM     11  C   LIG    1        5.045   0.370  -0.043  0.00  0.00    -0.047 A 
ATOM     12  C   LIG    1        4.800   1.732  -0.034  0.00  0.00    +0.005 A 
ATOM     13  C   LIG    1        3.501   2.201  -0.020  0.00  0.00    +0.025 A 
ATOM     14  C   LIG    1        2.440   1.304  -0.014  0.00  0.00    +0.057 A 
ATOM     15  C   LIG    1        2.690  -0.062  -0.017  0.00  0.00    +0.028 A 
ATOM     16  C   LIG    1        3.991  -0.525  -0.037  0.00  0.00    -0.046 A 
ATOM     17  C   LIG    1        4.262  -2.007  -0.047  0.00  0.00    +0.044 C 
ENDBRANCH   1  14
BRANCH   6  18
ATOM     18  C   LIG    1       -0.921   5.534   0.038  0.00  0.00    +0.129 A 
ATOM     19  C   LIG    1       -1.607   6.741   0.050  0.00  0.00    +0.050 A 
ATOM     20  C   LIG    1       -0.646   7.750   0.046  0.00  0.00    +0.050 A 
ATOM     21  C   LIG    1        0.588   7.132   0.031  0.00  0.00    +0.136 A 
ATOM     22  O   LIG    1        0.402   5.801   0.033  0.00  0.00    -0.455 OA
BRANCH  21  23
ATOM     23  C   LIG    1        1.894   7.819   0.022  0.00  0.00    +0.019 A 
ATOM     24  C   LIG    1        3.078   7.076   0.007  0.00  0.00    +0.012 A 
ATOM     25  C   LIG    1        4.295   7.724  -0.001  0.00  0.00    +0.005 A 
ATOM     26  C   LIG    1        4.347   9.107   0.005  0.00  0.00    -0.032 A 
ATOM     27  C   LIG    1        5.681   9.808  -0.004  0.00  0.00    +0.045 C 
ATOM     28  C   LIG    1        3.179   9.850   0.020  0.00  0.00    +0.045 A 
ATOM     29 CL   LIG    1        3.255  11.585   0.028  0.00  0.00    -0.083 Cl
ATOM     30  C   LIG    1        1.953   9.215   0.022  0.00  0.00    +0.031 A 
ENDBRANCH  21  23
ENDBRANCH   6  18
TORSDOF 3
