REMARK  Name = ZINC04179475
REMARK                            x       y       z     vdW  Elec       q    Type
REMARK                         _______ _______ _______ _____ _____    ______ ____
ROOT
ATOM      1  C   LIG    1       -4.981  -2.629   0.035  0.00  0.00    +0.100 C 
ENDROOT
BRANCH   1   2
ATOM      2  C   LIG    1       -5.306  -3.286  -1.282  0.00  0.00    +0.091 A 
ATOM      3  C   LIG    1       -6.585  -3.690  -1.550  0.00  0.00    +0.138 A 
ATOM      4  C   LIG    1       -6.850  -4.327  -2.850  0.00  0.00    +0.059 A 
ATOM      5  C   LIG    1       -8.132  -4.763  -3.190  0.00  0.00    +0.015 A 
ATOM      6  C   LIG    1       -8.347  -5.354  -4.415  0.00  0.00    +0.001 A 
ATOM      7  C   LIG    1       -7.297  -5.517  -5.308  0.00  0.00    +0.004 A 
ATOM      8  C   LIG    1       -6.027  -5.091  -4.984  0.00  0.00    +0.047 A 
ATOM      9  C   LIG    1       -5.788  -4.492  -3.754  0.00  0.00    +0.143 A 
ATOM     10  O   LIG    1       -4.550  -4.067  -3.421  0.00  0.00    -0.422 OA
ATOM     11  C   LIG    1       -4.300  -3.481  -2.240  0.00  0.00    +0.345 A 
ATOM     12  O   LIG    1       -3.165  -3.112  -1.990  0.00  0.00    -0.245 OA
BRANCH   3  13
ATOM     13  O   LIG    1       -7.576  -3.511  -0.648  0.00  0.00    -0.506 OA
ATOM     14  H   LIG    1       -7.392  -3.104   0.176  0.00  0.00    +0.292 HD
ENDBRANCH   3  13
ENDBRANCH   1   2
BRANCH   1  15
ATOM     15  C   LIG    1       -5.235  -3.602   1.158  0.00  0.00    +0.091 A 
ATOM     16  C   LIG    1       -5.147  -4.948   0.933  0.00  0.00    +0.138 A 
ATOM     17  C   LIG    1       -5.404  -5.855   2.063  0.00  0.00    +0.059 A 
ATOM     18  C   LIG    1       -5.332  -7.240   1.905  0.00  0.00    +0.015 A 
ATOM     19  C   LIG    1       -5.578  -8.062   2.983  0.00  0.00    +0.001 A 
ATOM     20  C   LIG    1       -5.896  -7.519   4.219  0.00  0.00    +0.004 A 
ATOM     21  C   LIG    1       -5.971  -6.152   4.388  0.00  0.00    +0.047 A 
ATOM     22  C   LIG    1       -5.726  -5.306   3.315  0.00  0.00    +0.143 A 
ATOM     23  O   LIG    1       -5.794  -3.965   3.463  0.00  0.00    -0.422 OA
ATOM     24  C   LIG    1       -5.556  -3.130   2.440  0.00  0.00    +0.345 A 
ATOM     25  O   LIG    1       -5.626  -1.927   2.628  0.00  0.00    -0.245 OA
BRANCH  16  26
ATOM     26  O   LIG    1       -4.835  -5.431  -0.290  0.00  0.00    -0.506 OA
ATOM     27  H   LIG    1       -4.801  -6.396  -0.335  0.00  0.00    +0.292 HD
ENDBRANCH  16  26
ENDBRANCH   1  15
BRANCH   1  31
ATOM     28  C   LIG    1       -0.871  -1.458   0.066  0.00  0.00    +0.120 A 
ATOM     29  C   LIG    1       -1.854  -0.535  -0.259  0.00  0.00    +0.046 A 
ATOM     30  C   LIG    1       -3.182  -0.916  -0.268  0.00  0.00    +0.008 A 
ATOM     31  C   LIG    1       -3.532  -2.216   0.046  0.00  0.00    -0.035 A 
ATOM     32  C   LIG    1       -2.554  -3.138   0.370  0.00  0.00    +0.008 A 
ATOM     33  C   LIG    1       -1.224  -2.764   0.376  0.00  0.00    +0.046 A 
BRANCH  28  35
ATOM     34  C   LIG    1        0.725   0.274  -0.252  0.00  0.00    +0.277 C 
ATOM     35  O   LIG    1        0.436  -1.086   0.076  0.00  0.00    -0.495 OA
ENDBRANCH  28  35
ENDBRANCH   1  31
TORSDOF 6
