REMARK  Name = ZINC04784790
REMARK                            x       y       z     vdW  Elec       q    Type
REMARK                         _______ _______ _______ _____ _____    ______ ____
ROOT
ATOM      1  C   LIG    1       -2.435   2.112   0.155  0.00  0.00    +0.064 C 
ATOM      2  C   LIG    1       -0.980   2.478   0.013  0.00  0.00    +0.034 A 
ATOM      3  C   LIG    1       -0.032   1.491  -0.072  0.00  0.00    +0.085 A 
ATOM      4  C   LIG    1        1.384   1.867  -0.205  0.00  0.00    +0.075 A 
ATOM      5  N   LIG    1        2.097   0.695  -0.262  0.00  0.00    -0.289 N 
ATOM      6  N   LIG    1        1.228  -0.395  -0.175  0.00  0.00    -0.219 N 
ATOM      7  H   LIG    1        3.061   0.634  -0.351  0.00  0.00    +0.187 HD
ATOM      8  C   LIG    1        1.702   3.207  -0.243  0.00  0.00    +0.098 A 
ATOM      9  C   LIG    1        0.671   4.150  -0.154  0.00  0.00    +0.254 A 
ATOM     10  O   LIG    1        0.944   5.339  -0.187  0.00  0.00    -0.268 OA
ATOM     11  C   LIG    1       -0.049   0.022  -0.061  0.00  0.00    +0.281 A 
ATOM     12  O   LIG    1       -1.034  -0.687   0.035  0.00  0.00    -0.265 OA
ATOM     13  N   LIG    1       -0.613   3.775  -0.033  0.00  0.00    -0.307 N 
ENDROOT
BRANCH   6  14
ATOM     14  C   LIG    1        1.627  -1.736  -0.203  0.00  0.00    +0.067 A 
ATOM     15  C   LIG    1        0.680  -2.747  -0.104  0.00  0.00    +0.030 A 
ATOM     16  C   LIG    1        1.076  -4.069  -0.138  0.00  0.00    +0.040 A 
ATOM     17  C   LIG    1        2.418  -4.388  -0.259  0.00  0.00    +0.124 A 
ATOM     18  F   LIG    1        2.804  -5.683  -0.286  0.00  0.00    -0.205 F 
ATOM     19  C   LIG    1        3.365  -3.382  -0.352  0.00  0.00    +0.040 A 
ATOM     20  C   LIG    1        2.973  -2.059  -0.325  0.00  0.00    +0.030 A 
ENDBRANCH   6  14
BRANCH  13  21
ATOM     21  C   LIG    1       -1.648   4.808   0.055  0.00  0.00    +0.160 C 
BRANCH  21  22
ATOM     22  C   LIG    1       -2.038   5.249  -1.332  0.00  0.00    -0.028 A 
ATOM     23  C   LIG    1       -1.301   6.222  -1.980  0.00  0.00    +0.005 A 
ATOM     24  C   LIG    1       -1.655   6.623  -3.255  0.00  0.00    +0.000 A 
ATOM     25  C   LIG    1       -2.753   6.058  -3.877  0.00  0.00    +0.000 A 
ATOM     26  C   LIG    1       -3.493   5.088  -3.227  0.00  0.00    +0.000 A 
ATOM     27  C   LIG    1       -3.135   4.684  -1.954  0.00  0.00    +0.005 A 
ENDBRANCH  21  22
ENDBRANCH  13  21
TORSDOF 3
