REMARK  Name = ZINC04663425
REMARK                            x       y       z     vdW  Elec       q    Type
REMARK                         _______ _______ _______ _____ _____    ______ ____
ROOT
ATOM      1  C   LIG    1        0.089   0.067  -0.301  0.00  0.00    +0.086 C 
ATOM      2  C   LIG    1        1.569  -0.064   0.081  0.00  0.00    +0.031 C 
ATOM      3  C   LIG    1        1.878  -1.518   0.447  0.00  0.00    +0.011 C 
ATOM      4  C   LIG    1        2.426   0.360  -1.111  0.00  0.00    +0.107 C 
ATOM      5  C   LIG    1        1.990   1.708  -1.621  0.00  0.00    -0.006 A 
ATOM      6  C   LIG    1        2.872   2.453  -2.386  0.00  0.00    +0.007 A 
ATOM      7  C   LIG    1        2.500   3.692  -2.871  0.00  0.00    +0.000 A 
ATOM      8  C   LIG    1        1.242   4.197  -2.595  0.00  0.00    +0.002 A 
ATOM      9  C   LIG    1        0.357   3.462  -1.832  0.00  0.00    +0.024 A 
ATOM     10  C   LIG    1        0.730   2.215  -1.343  0.00  0.00    +0.042 A 
ATOM     11  N   LIG    1       -0.182   1.486  -0.568  0.00  0.00    -0.264 N 
ATOM     12  C   LIG    1       -1.292   2.075  -0.081  0.00  0.00    +0.251 C 
ATOM     13  O   LIG    1       -2.222   1.394   0.305  0.00  0.00    -0.270 OA
ENDROOT
BRANCH  12  14
ATOM     14  C   LIG    1       -1.378   3.549  -0.017  0.00  0.00    +0.037 A 
ATOM     15  C   LIG    1       -0.227   4.311   0.187  0.00  0.00    +0.015 A 
ATOM     16  C   LIG    1       -0.313   5.687   0.240  0.00  0.00    +0.033 A 
ATOM     17  C   LIG    1       -1.540   6.311   0.104  0.00  0.00    +0.122 A 
ATOM     18  C   LIG    1       -2.687   5.562  -0.093  0.00  0.00    +0.033 A 
ATOM     19  C   LIG    1       -2.613   4.186  -0.154  0.00  0.00    +0.015 A 
BRANCH  17  20
ATOM     20  N   LIG    1       -1.627   7.787   0.168  0.00  0.00    +0.006 N 
ATOM     21  O   LIG    1       -2.706   8.340   0.048  0.00  0.00    -0.130 OA
BRANCH  20  22
ATOM     22  O   LIG    1       -0.620   8.450   0.342  0.00  0.00    -0.396 OA
ATOM     23  H   LIG    1        0.210   8.024   0.434  0.00  0.00    +0.329 HD
ENDBRANCH  20  22
ENDBRANCH  17  20
ENDBRANCH  12  14
BRANCH   1  25
ATOM     24  C   LIG    1       -0.514   0.429   2.097  0.00  0.00    +0.006 C 
ATOM     25  C   LIG    1       -0.789  -0.420   0.854  0.00  0.00    +0.020 C 
ENDBRANCH   1  25
BRANCH   4  26
ATOM     26  N   LIG    1        3.829   0.431  -0.697  0.00  0.00    -0.337 N 
ATOM     27  H   LIG    1        4.053   0.585   0.234  0.00  0.00    +0.147 HD
BRANCH  26  28
ATOM     28  C   LIG    1        4.845   0.279  -1.643  0.00  0.00    +0.028 A 
ATOM     29  C   LIG    1        4.527   0.053  -2.976  0.00  0.00    +0.023 A 
ATOM     30  C   LIG    1        5.534  -0.093  -3.910  0.00  0.00    +0.002 A 
ATOM     31  C   LIG    1        6.858  -0.025  -3.517  0.00  0.00    +0.000 A 
ATOM     32  C   LIG    1        7.179   0.194  -2.190  0.00  0.00    +0.002 A 
ATOM     33  C   LIG    1        6.177   0.346  -1.252  0.00  0.00    +0.023 A 
ENDBRANCH  26  28
ENDBRANCH   4  26
TORSDOF 6
