REMARK  Name = ZINC04207360
REMARK                            x       y       z     vdW  Elec       q    Type
REMARK                         _______ _______ _______ _____ _____    ______ ____
ROOT
ATOM      1  C   LIG    1        0.002  -0.004   0.002  0.00  0.00    +0.022 A 
ATOM      2  C   LIG    1        1.332  -0.288  -0.012  0.00  0.00    +0.044 A 
ATOM      3  C   LIG    1        2.270   0.755  -0.015  0.00  0.00    +0.083 A 
ATOM      4  C   LIG    1        1.728   2.059  -0.003  0.00  0.00    +0.070 A 
ATOM      5  C   LIG    1        2.549   3.174  -0.006  0.00  0.00    +0.115 A 
ATOM      6  N   LIG    1        3.870   2.987  -0.020  0.00  0.00    -0.228 NA
ATOM      7  C   LIG    1        4.365   1.762  -0.031  0.00  0.00    +0.223 A 
ATOM      8  N   LIG    1        3.625   0.683  -0.029  0.00  0.00    -0.235 NA
ATOM      9  S   LIG    1       -0.022   1.781   0.012  0.00  0.00    -0.084 S 
ENDROOT
BRANCH   1  16
ATOM     10  C   LIG    1       -0.918  -2.319  -0.008  0.00  0.00    +0.010 A 
ATOM     11  C   LIG    1       -1.988  -3.189   0.002  0.00  0.00    +0.016 A 
ATOM     12  C   LIG    1       -3.283  -2.698   0.017  0.00  0.00    +0.018 A 
ATOM     13 BR   LIG    1       -4.745  -3.897   0.024  0.00  0.00    -0.050 Br
ATOM     14  C   LIG    1       -3.511  -1.333   0.028  0.00  0.00    +0.016 A 
ATOM     15  C   LIG    1       -2.448  -0.453   0.023  0.00  0.00    +0.010 A 
ATOM     16  C   LIG    1       -1.141  -0.942   0.007  0.00  0.00    -0.011 A 
ENDBRANCH   1  16
BRANCH   5  17
ATOM     17  S   LIG    1        1.867   4.799   0.009  0.00  0.00    -0.093 S 
BRANCH  17  18
ATOM     18  C   LIG    1        3.389   5.779  -0.000  0.00  0.00    +0.196 C 
BRANCH  18  19
ATOM     19  C   LIG    1        3.042   7.245   0.011  0.00  0.00    +0.315 C 
ATOM     20  O   LIG    1        1.884   7.592   0.024  0.00  0.00    -0.250 OA
BRANCH  19  21
ATOM     21  O   LIG    1        4.018   8.166   0.006  0.00  0.00    -0.480 OA
ATOM     22  H   LIG    1        4.916   7.897  -0.004  0.00  0.00    +0.295 HD
ENDBRANCH  19  21
ENDBRANCH  18  19
ENDBRANCH  17  18
ENDBRANCH   5  17
TORSDOF 5
