REMARK  Name = ZINC04682967
REMARK                            x       y       z     vdW  Elec       q    Type
REMARK                         _______ _______ _______ _____ _____    ______ ____
ROOT
ATOM      1  C   LIG    1       -0.794  -1.262  -0.638  0.00  0.00    -0.066 C 
ATOM      2  C   LIG    1       -1.364  -2.253  -1.327  0.00  0.00    -0.019 C 
ATOM      3  C   LIG    1       -2.703  -2.701  -0.694  0.00  0.00    +0.006 C 
ATOM      4  C   LIG    1       -3.220  -3.876  -1.497  0.00  0.00    +0.012 C 
ATOM      5  C   LIG    1       -4.299  -4.648  -0.748  0.00  0.00    +0.006 C 
ATOM      6  C   LIG    1       -3.805  -5.161   0.600  0.00  0.00    +0.012 C 
ATOM      7  C   LIG    1       -3.173  -4.090   1.467  0.00  0.00    -0.025 C 
ATOM      8  C   LIG    1       -2.170  -4.806   2.427  0.00  0.00    +0.012 C 
ATOM      9  C   LIG    1       -4.143  -3.341   2.370  0.00  0.00    +0.007 C 
ATOM     10  C   LIG    1       -5.089  -4.289   3.106  0.00  0.00    +0.002 C 
ATOM     11  C   LIG    1       -5.861  -5.111   2.078  0.00  0.00    +0.018 C 
ATOM     12  C   LIG    1       -4.894  -5.982   1.280  0.00  0.00    +0.068 C 
ATOM     13  C   LIG    1       -4.291  -7.058   2.196  0.00  0.00    +0.023 C 
ATOM     14  C   LIG    1       -3.583  -1.470  -0.807  0.00  0.00    +0.122 C 
ATOM     15  C   LIG    1       -2.960  -0.284  -0.061  0.00  0.00    +0.119 C 
ATOM     16  C   LIG    1       -2.297  -3.120   0.698  0.00  0.00    +0.007 C 
ATOM     17  C   LIG    1       -1.879  -1.894   1.511  0.00  0.00    +0.013 C 
ATOM     18  C   LIG    1       -1.620  -0.738   0.534  0.00  0.00    +0.030 C 
ENDROOT
BRANCH   1  20
ATOM     19  C   LIG    1        0.368   0.806  -1.369  0.00  0.00    +0.012 C 
ATOM     20  C   LIG    1        0.543  -0.673  -1.018  0.00  0.00    +0.009 C 
ATOM     21  C   LIG    1        1.512  -0.806   0.159  0.00  0.00    +0.012 C 
ENDBRANCH   1  20
BRANCH  12  22
ATOM     22  C   LIG    1       -5.718  -6.734   0.249  0.00  0.00    +0.311 C 
ATOM     23  O   LIG    1       -5.204  -7.619  -0.414  0.00  0.00    -0.250 OA
BRANCH  22  24
ATOM     24  O   LIG    1       -6.892  -6.452   0.084  0.00  0.00    -0.480 OA
ATOM     25  H   LIG    1       -7.287  -5.772   0.594  0.00  0.00    +0.295 HD
ENDBRANCH  22  24
ENDBRANCH  12  22
BRANCH  14  26
ATOM     26  C   LIG    1       -5.010  -1.647  -0.411  0.00  0.00    +0.309 C 
ATOM     27  O   LIG    1       -5.357  -1.418   0.735  0.00  0.00    -0.251 OA
BRANCH  26  28
ATOM     28  O   LIG    1       -5.829  -2.020  -1.234  0.00  0.00    -0.480 OA
ATOM     29  H   LIG    1       -5.562  -2.196  -2.114  0.00  0.00    +0.295 HD
ENDBRANCH  26  28
ENDBRANCH  14  26
BRANCH  15  30
ATOM     30  C   LIG    1       -3.884   0.224   1.005  0.00  0.00    +0.309 C 
ATOM     31  O   LIG    1       -3.700  -0.086   2.170  0.00  0.00    -0.251 OA
BRANCH  30  32
ATOM     32  O   LIG    1       -4.820   0.946   0.707  0.00  0.00    -0.480 OA
ATOM     33  H   LIG    1       -4.962   1.184  -0.188  0.00  0.00    +0.295 HD
ENDBRANCH  30  32
ENDBRANCH  15  30
TORSDOF 7
