REMARK  Name = ZINC04696706
REMARK                            x       y       z     vdW  Elec       q    Type
REMARK                         _______ _______ _______ _____ _____    ______ ____
ROOT
ATOM      1  C   LIG    1       -0.070   5.347   0.030  0.00  0.00    +0.142 C 
ENDROOT
BRANCH   1   2
ATOM      2  C   LIG    1        0.466   5.803   1.362  0.00  0.00    -0.022 A 
ATOM      3  C   LIG    1        0.984   4.880   2.251  0.00  0.00    +0.005 A 
ATOM      4  C   LIG    1        1.480   5.300   3.471  0.00  0.00    +0.000 A 
ATOM      5  C   LIG    1        1.451   6.641   3.806  0.00  0.00    +0.000 A 
ATOM      6  C   LIG    1        0.929   7.563   2.918  0.00  0.00    +0.000 A 
ATOM      7  C   LIG    1        0.437   7.144   1.696  0.00  0.00    +0.005 A 
ENDBRANCH   1   2
BRANCH   1   8
ATOM      8  C   LIG    1       -1.553   5.609  -0.031  0.00  0.00    -0.022 A 
ATOM      9  C   LIG    1       -2.088   6.309  -1.096  0.00  0.00    +0.005 A 
ATOM     10  C   LIG    1       -3.449   6.546  -1.154  0.00  0.00    +0.000 A 
ATOM     11  C   LIG    1       -4.273   6.091  -0.142  0.00  0.00    +0.000 A 
ATOM     12  C   LIG    1       -3.737   5.396   0.926  0.00  0.00    +0.000 A 
ATOM     13  C   LIG    1       -2.377   5.155   0.982  0.00  0.00    +0.005 A 
ENDBRANCH   1   8
BRANCH   1  14
ATOM     14  C   LIG    1        0.186   3.871  -0.136  0.00  0.00    -0.022 A 
ATOM     15  C   LIG    1        1.483   3.397  -0.198  0.00  0.00    +0.005 A 
ATOM     16  C   LIG    1        1.718   2.044  -0.350  0.00  0.00    +0.000 A 
ATOM     17  C   LIG    1        0.656   1.164  -0.442  0.00  0.00    +0.000 A 
ATOM     18  C   LIG    1       -0.642   1.638  -0.386  0.00  0.00    +0.000 A 
ATOM     19  C   LIG    1       -0.877   2.991  -0.228  0.00  0.00    +0.005 A 
ENDBRANCH   1  14
BRANCH   1  20
ATOM     20  C   LIG    1        0.619   6.104  -1.076  0.00  0.00    +0.326 C 
ATOM     21  O   LIG    1        1.254   5.507  -1.913  0.00  0.00    -0.249 OA
BRANCH  20  23
ATOM     22  C   LIG    1        1.218   8.105  -2.223  0.00  0.00    +0.280 C 
ATOM     23  O   LIG    1        0.529   7.442  -1.131  0.00  0.00    -0.467 OA
ENDBRANCH  20  23
ENDBRANCH   1  20
TORSDOF 5
