REMARK  Name = ZINC04529848
REMARK                            x       y       z     vdW  Elec       q    Type
REMARK                         _______ _______ _______ _____ _____    ______ ____
ROOT
ATOM      1  C   LIG    1        5.881   9.879  -0.001  0.00  0.00    +0.044 C 
ATOM      2  C   LIG    1        4.551  10.586   0.016  0.00  0.00    -0.037 A 
ATOM      3  C   LIG    1        4.513  11.957   0.024  0.00  0.00    +0.024 A 
ATOM      4  C   LIG    1        3.305  12.640   0.040  0.00  0.00    +0.042 A 
ATOM      5 CL   LIG    1        3.282  14.376   0.049  0.00  0.00    -0.083 Cl
ATOM      6  C   LIG    1        2.119  11.926   0.048  0.00  0.00    +0.035 A 
ATOM      7  C   LIG    1        2.147  10.547   0.040  0.00  0.00    +0.025 A 
ATOM      8  S   LIG    1        0.862   9.324   0.045  0.00  0.00    -0.084 S 
ATOM      9  C   LIG    1        1.851   7.843   0.027  0.00  0.00    +0.077 C 
ATOM     10  C   LIG    1        1.433   6.529   0.024  0.00  0.00    +0.077 C 
ATOM     11  C   LIG    1        0.055   6.003   0.033  0.00  0.00    +0.202 C 
ATOM     12  C   LIG    1       -0.072   4.543   0.026  0.00  0.00    +0.040 A 
ATOM     13  C   LIG    1       -1.267   3.786   0.033  0.00  0.00    -0.037 A 
ATOM     14  C   LIG    1       -2.598   4.493   0.050  0.00  0.00    +0.044 C 
ATOM     15  C   LIG    1       -1.229   2.415   0.021  0.00  0.00    +0.024 A 
ATOM     16  C   LIG    1       -0.021   1.732   0.012  0.00  0.00    +0.042 A 
ATOM     17 CL   LIG    1        0.002  -0.004   0.002  0.00  0.00    -0.083 Cl
ATOM     18  C   LIG    1        1.164   2.446   0.004  0.00  0.00    +0.035 A 
ATOM     19  C   LIG    1        1.137   3.825   0.011  0.00  0.00    +0.025 A 
ATOM     20  O   LIG    1       -0.916   6.736   0.046  0.00  0.00    -0.286 OA
ATOM     21  S   LIG    1        2.422   5.048   0.006  0.00  0.00    -0.084 S 
ATOM     22  C   LIG    1        3.229   8.369   0.023  0.00  0.00    +0.202 C 
ATOM     23  O   LIG    1        4.200   7.636   0.016  0.00  0.00    -0.286 OA
ATOM     24  C   LIG    1        3.356   9.829   0.024  0.00  0.00    +0.040 A 
ENDROOT
TORSDOF 0
