REMARK  Name = ZINC04654958
REMARK                            x       y       z     vdW  Elec       q    Type
REMARK                         _______ _______ _______ _____ _____    ______ ____
ROOT
ATOM      1  C   LIG    1       -5.296  -5.858  -7.662  0.00  0.00    -0.027 C 
ATOM      2  C   LIG    1       -6.130  -6.847  -7.868  0.00  0.00    -0.031 C 
ENDROOT
BRANCH   1   3
ATOM      3  C   LIG    1       -3.836  -6.021  -7.997  0.00  0.00    +0.053 C 
BRANCH   3   5
ATOM      4  C   LIG    1       -2.360  -4.168  -8.589  0.00  0.00    -0.027 C 
ATOM      5  C   LIG    1       -3.401  -4.899  -8.904  0.00  0.00    -0.027 C 
BRANCH   4   6
ATOM      6  C   LIG    1       -1.495  -4.556  -7.418  0.00  0.00    +0.053 C 
BRANCH   6   8
ATOM      7  C   LIG    1        0.866  -3.965  -7.224  0.00  0.00    -0.027 C 
ATOM      8  C   LIG    1       -0.057  -4.640  -7.862  0.00  0.00    -0.027 C 
BRANCH   7   9
ATOM      9  C   LIG    1        0.522  -3.236  -5.951  0.00  0.00    +0.053 C 
BRANCH   9  11
ATOM     10  C   LIG    1        2.147  -2.719  -4.203  0.00  0.00    -0.031 C 
ATOM     11  C   LIG    1        1.488  -3.637  -4.865  0.00  0.00    -0.027 C 
BRANCH  10  12
ATOM     12  C   LIG    1        1.823  -1.262  -4.410  0.00  0.00    +0.027 C 
BRANCH  12  13
ATOM     13  C   LIG    1        1.563  -0.600  -3.055  0.00  0.00    +0.004 C 
BRANCH  13  14
ATOM     14  C   LIG    1        1.234   0.879  -3.264  0.00  0.00    +0.000 C 
BRANCH  14  16
ATOM     15  C   LIG    1        0.645   3.020  -2.118  0.00  0.00    +0.004 C 
ATOM     16  C   LIG    1        0.975   1.541  -1.909  0.00  0.00    -0.003 C 
ENDBRANCH  14  16
ENDBRANCH  13  14
ENDBRANCH  12  13
ENDBRANCH  10  12
ENDBRANCH   9  11
ENDBRANCH   7   9
ENDBRANCH   6   8
ENDBRANCH   4   6
ENDBRANCH   3   5
ENDBRANCH   1   3
BRANCH   2  17
ATOM     17  C   LIG    1       -5.609  -8.198  -8.285  0.00  0.00    +0.027 C 
BRANCH  17  18
ATOM     18  C   LIG    1       -6.167  -9.271  -7.348  0.00  0.00    +0.004 C 
BRANCH  18  19
ATOM     19  C   LIG    1       -5.637 -10.643  -7.771  0.00  0.00    +0.001 C 
BRANCH  19  20
ATOM     20  C   LIG    1       -6.196 -11.716  -6.835  0.00  0.00    +0.009 C 
BRANCH  20  21
ATOM     21  C   LIG    1       -5.666 -13.088  -7.258  0.00  0.00    +0.096 C 
BRANCH  21  22
ATOM     22  C   LIG    1       -6.216 -14.145  -6.335  0.00  0.00    +0.213 C 
ATOM     23  N   LIG    1       -5.883 -15.438  -6.518  0.00  0.00    -0.313 N 
ATOM     24  H   LIG    1       -5.289 -15.688  -7.243  0.00  0.00    +0.149 HD
ATOM     25  O   LIG    1       -6.958 -13.832  -5.429  0.00  0.00    -0.276 OA
BRANCH  23  26
ATOM     26  C   LIG    1       -6.417 -16.466  -5.621  0.00  0.00    +0.132 C 
BRANCH  26  27
ATOM     27  C   LIG    1       -5.887 -17.838  -6.044  0.00  0.00    +0.174 C 
BRANCH  27  28
ATOM     28  O   LIG    1       -4.470 -17.878  -5.864  0.00  0.00    -0.393 OA
ATOM     29  H   LIG    1       -4.066 -18.720  -6.112  0.00  0.00    +0.209 HD
ENDBRANCH  27  28
ENDBRANCH  26  27
ENDBRANCH  23  26
ENDBRANCH  21  22
ENDBRANCH  20  21
ENDBRANCH  19  20
ENDBRANCH  18  19
ENDBRANCH  17  18
ENDBRANCH   2  17
TORSDOF 19
