REMARK  Name = ZINC04533388
REMARK                            x       y       z     vdW  Elec       q    Type
REMARK                         _______ _______ _______ _____ _____    ______ ____
ROOT
ATOM      1  C   LIG    1        0.447   1.663   0.595  0.00  0.00    +0.001 A 
ATOM      2  C   LIG    1        1.687   2.276   0.557  0.00  0.00    +0.001 A 
ATOM      3  C   LIG    1        2.837   1.521   0.416  0.00  0.00    +0.012 A 
ATOM      4  C   LIG    1        2.750   0.136   0.311  0.00  0.00    +0.033 A 
ATOM      5  C   LIG    1        1.490  -0.488   0.350  0.00  0.00    +0.033 A 
ATOM      6  C   LIG    1        1.388  -1.958   0.240  0.00  0.00    +0.196 C 
ATOM      7  C   LIG    1        2.607  -2.767   0.089  0.00  0.00    +0.056 A 
ATOM      8  C   LIG    1        2.523  -4.160  -0.017  0.00  0.00    +0.041 A 
ATOM      9  C   LIG    1        3.689  -4.918  -0.160  0.00  0.00    +0.055 A 
ATOM     10  C   LIG    1        4.912  -4.313  -0.197  0.00  0.00    +0.140 A 
ATOM     11  C   LIG    1        5.023  -2.923  -0.093  0.00  0.00    +0.064 A 
ATOM     12  C   LIG    1        3.871  -2.142   0.050  0.00  0.00    +0.057 A 
ATOM     13  O   LIG    1        0.299  -2.497   0.273  0.00  0.00    -0.287 OA
ATOM     14  C   LIG    1        3.974  -0.679   0.160  0.00  0.00    +0.196 C 
ATOM     15  O   LIG    1        5.064  -0.140   0.126  0.00  0.00    -0.287 OA
ATOM     16  C   LIG    1        0.342   0.287   0.493  0.00  0.00    +0.012 A 
ENDROOT
BRANCH  10  17
ATOM     17  S   LIG    1        6.365  -5.293  -0.378  0.00  0.00    +0.111 S 
ATOM     18  O   LIG    1        7.404  -4.659   0.419  0.00  0.00    -0.142 OA
ATOM     19  O   LIG    1        6.695  -5.301  -1.794  0.00  0.00    -0.142 OA
BRANCH  17  20
ATOM     20  O   LIG    1        6.040  -6.624   0.112  0.00  0.00    -0.250 OA
ATOM     21  H   LIG    1        5.346  -7.012  -0.443  0.00  0.00    +0.245 HD
ENDBRANCH  17  20
ENDBRANCH  10  17
BRANCH  11  22
ATOM     22  N   LIG    1        6.271  -2.321  -0.131  0.00  0.00    -0.356 N 
ATOM     23  H   LIG    1        6.418  -1.481   0.330  0.00  0.00    +0.142 HD
ATOM     24  H   LIG    1        6.997  -2.740  -0.619  0.00  0.00    +0.142 HD
ENDBRANCH  11  22
BRANCH   8  25
ATOM     25  N   LIG    1        1.287  -4.787   0.020  0.00  0.00    -0.340 N 
ATOM     26  H   LIG    1        0.487  -4.271   0.207  0.00  0.00    +0.146 HD
BRANCH  25  27
ATOM     27  C   LIG    1        1.190  -6.228  -0.223  0.00  0.00    +0.070 C 
ATOM     28  C   LIG    1        1.448  -6.984   1.083  0.00  0.00    +0.022 C 
ATOM     29  C   LIG    1        1.346  -8.489   0.829  0.00  0.00    +0.002 C 
ATOM     30  C   LIG    1       -0.055  -8.826   0.314  0.00  0.00    +0.000 C 
ATOM     31  C   LIG    1       -0.314  -8.070  -0.991  0.00  0.00    +0.002 C 
ATOM     32  C   LIG    1       -0.211  -6.565  -0.738  0.00  0.00    +0.022 C 
ENDBRANCH  25  27
ENDBRANCH   8  25
TORSDOF 5
