REMARK  Name = ZINC04773849
REMARK                            x       y       z     vdW  Elec       q    Type
REMARK                         _______ _______ _______ _____ _____    ______ ____
ROOT
ATOM      1  C   LIG    1       -1.209   2.210   0.020  0.00  0.00    +0.253 C 
ATOM      2  C   LIG    1       -1.623   2.574  -1.428  0.00  0.00    +0.195 C 
ATOM      3  C   LIG    1       -3.136   2.864  -1.238  0.00  0.00    +0.174 C 
ATOM      4  C   LIG    1       -3.527   1.857  -0.135  0.00  0.00    +0.135 C 
ATOM      5  O   LIG    1       -2.329   1.491   0.560  0.00  0.00    -0.350 OA
ENDROOT
BRANCH   1  11
ATOM      6  C   LIG    1        3.197   3.066  -0.013  0.00  0.00    +0.225 A 
ATOM      7  N   LIG    1        3.981   2.003  -0.026  0.00  0.00    -0.219 NA
ATOM      8  C   LIG    1        3.474   0.775  -0.027  0.00  0.00    +0.147 A 
ATOM      9  C   LIG    1        2.077   0.626  -0.014  0.00  0.00    +0.147 A 
ATOM     10  C   LIG    1        1.287   1.788  -0.001  0.00  0.00    +0.167 A 
ATOM     11  N   LIG    1       -0.016   1.359   0.009  0.00  0.00    -0.286 N 
ATOM     12  C   LIG    1        0.002  -0.004   0.002  0.00  0.00    +0.203 A 
ATOM     13  N   LIG    1        1.231  -0.432  -0.012  0.00  0.00    -0.231 NA
ATOM     14  N   LIG    1        1.884   2.975  -0.000  0.00  0.00    -0.216 NA
BRANCH   8  15
ATOM     15  N   LIG    1        4.304  -0.333  -0.041  0.00  0.00    -0.341 N 
ATOM     16  H   LIG    1        5.267  -0.218  -0.050  0.00  0.00    +0.144 HD
ATOM     17  H   LIG    1        4.134  -0.886   0.775  0.00  0.00    +0.144 HD
ENDBRANCH   8  15
ENDBRANCH   1  11
BRANCH   2  18
ATOM     18  O   LIG    1       -0.929   3.737  -1.885  0.00  0.00    -0.385 OA
ATOM     19  H   LIG    1       -1.156   4.002  -2.786  0.00  0.00    +0.210 HD
ENDBRANCH   2  18
BRANCH   3  20
ATOM     20  O   LIG    1       -3.346   4.207  -0.798  0.00  0.00    -0.387 OA
ATOM     21  H   LIG    1       -3.115   4.877  -1.457  0.00  0.00    +0.210 HD
ENDBRANCH   3  20
BRANCH   4  22
ATOM     22  C   LIG    1       -4.513   2.507   0.838  0.00  0.00    -0.052 C 
BRANCH  22  23
ATOM     23  N   LIG    1       -4.883   1.526   1.874  0.00  0.00    +0.380 N 
ATOM     24  H   LIG    1       -5.344   0.724   1.430  0.00  0.00    -0.090 HD
ATOM     25  H   LIG    1       -5.523   1.950   2.543  0.00  0.00    -0.090 HD
ATOM     26  H   LIG    1       -4.048   1.202   2.361  0.00  0.00    -0.090 HD
ENDBRANCH  22  23
ENDBRANCH   4  22
TORSDOF 6
