REMARK  Name = ZINC04734942
REMARK                            x       y       z     vdW  Elec       q    Type
REMARK                         _______ _______ _______ _____ _____    ______ ____
ROOT
ATOM      1  C   LIG    1       -0.009   1.378  -0.202  0.00  0.00    +0.025 A 
ATOM      2  C   LIG    1        1.166   2.091  -0.212  0.00  0.00    +0.025 A 
ATOM      3  C   LIG    1        2.389   1.446  -0.017  0.00  0.00    +0.036 A 
ATOM      4  C   LIG    1        2.422   0.063   0.190  0.00  0.00    +0.056 A 
ATOM      5  C   LIG    1        1.217  -0.669   0.199  0.00  0.00    +0.056 A 
ATOM      6  C   LIG    1        1.240  -2.125   0.416  0.00  0.00    +0.200 C 
ATOM      7  C   LIG    1        2.525  -2.816   0.623  0.00  0.00    +0.078 A 
ATOM      8  C   LIG    1        2.558  -4.197   0.828  0.00  0.00    +0.129 A 
ATOM      9  C   LIG    1        3.778  -4.840   1.022  0.00  0.00    +0.050 A 
ATOM     10  C   LIG    1        4.955  -4.125   1.014  0.00  0.00    +0.050 A 
ATOM     11  C   LIG    1        4.943  -2.747   0.810  0.00  0.00    +0.129 A 
ATOM     12  C   LIG    1        3.729  -2.084   0.613  0.00  0.00    +0.078 A 
ATOM     13  O   LIG    1        0.200  -2.756   0.424  0.00  0.00    -0.286 OA
ATOM     14  C   LIG    1        3.705  -0.627   0.395  0.00  0.00    +0.200 C 
ATOM     15  O   LIG    1        4.745   0.005   0.387  0.00  0.00    -0.286 OA
ATOM     16  C   LIG    1        0.002  -0.004   0.002  0.00  0.00    +0.036 A 
ENDROOT
BRANCH   3  17
ATOM     17  N   LIG    1        3.569   2.175  -0.028  0.00  0.00    -0.357 N 
ATOM     18  H   LIG    1        4.406   1.740  -0.254  0.00  0.00    +0.142 HD
ATOM     19  H   LIG    1        3.558   3.121   0.190  0.00  0.00    +0.142 HD
ENDBRANCH   3  17
BRANCH  16  20
ATOM     20  N   LIG    1       -1.189  -0.715   0.009  0.00  0.00    -0.357 N 
ATOM     21  H   LIG    1       -1.248  -1.558   0.486  0.00  0.00    +0.142 HD
ATOM     22  H   LIG    1       -1.963  -0.370  -0.462  0.00  0.00    +0.142 HD
ENDBRANCH  16  20
BRANCH   8  23
ATOM     23  O   LIG    1        1.404  -4.910   0.840  0.00  0.00    -0.506 OA
ATOM     24  H   LIG    1        1.140  -5.245  -0.028  0.00  0.00    +0.292 HD
ENDBRANCH   8  23
BRANCH  11  25
ATOM     25  O   LIG    1        6.107  -2.051   0.804  0.00  0.00    -0.506 OA
ATOM     26  H   LIG    1        6.516  -1.977  -0.069  0.00  0.00    +0.292 HD
ENDBRANCH  11  25
TORSDOF 4
