REMARK  Name = ZINC04533106
REMARK                            x       y       z     vdW  Elec       q    Type
REMARK                         _______ _______ _______ _____ _____    ______ ____
ROOT
ATOM      1  C   LIG    1        0.348  -1.185  -3.806  0.00  0.00    +0.012 C 
ATOM      2  C   LIG    1        0.958  -0.432  -4.991  0.00  0.00    -0.016 C 
ATOM      3  C   LIG    1        0.770   1.057  -4.823  0.00  0.00    +0.008 C 
ATOM      4  C   LIG    1       -0.407   1.543  -5.693  0.00  0.00    +0.005 C 
ATOM      5  C   LIG    1       -1.503   0.491  -5.643  0.00  0.00    +0.002 C 
ATOM      6  C   LIG    1       -1.075  -0.721  -6.479  0.00  0.00    -0.003 C 
ATOM      7  C   LIG    1       -1.975  -1.898  -6.140  0.00  0.00    +0.008 C 
ATOM      8  C   LIG    1       -3.393  -1.536  -6.615  0.00  0.00    +0.032 C 
ATOM      9  C   LIG    1       -3.812  -0.208  -6.011  0.00  0.00    -0.060 C 
ATOM     10  C   LIG    1       -4.998  -0.161  -5.409  0.00  0.00    +0.046 C 
ATOM     11  C   LIG    1       -5.511   1.087  -4.840  0.00  0.00    +0.156 C 
ATOM     12  C   LIG    1       -4.817   2.369  -5.249  0.00  0.00    +0.080 C 
ATOM     13  C   LIG    1       -3.312   2.131  -5.202  0.00  0.00    +0.019 C 
ATOM     14  O   LIG    1       -6.466   1.097  -4.088  0.00  0.00    -0.293 OA
ATOM     15  C   LIG    1       -2.880   0.974  -6.092  0.00  0.00    -0.007 C 
ATOM     16  C   LIG    1       -2.825   1.478  -7.532  0.00  0.00    +0.016 C 
ATOM     17  C   LIG    1        2.430  -0.882  -5.103  0.00  0.00    +0.104 C 
ATOM     18  C   LIG    1        2.347  -2.261  -5.804  0.00  0.00    +0.015 C 
ATOM     19  C   LIG    1        0.912  -2.376  -6.387  0.00  0.00    +0.005 C 
ATOM     20  C   LIG    1        0.400  -0.929  -6.338  0.00  0.00    -0.001 C 
ENDROOT
BRANCH  17  21
ATOM     21  C   LIG    1        3.028  -1.025  -3.731  0.00  0.00    +0.310 C 
ATOM     22  O   LIG    1        2.680  -0.286  -2.840  0.00  0.00    -0.251 OA
BRANCH  21  23
ATOM     23  O   LIG    1        3.947  -1.974  -3.495  0.00  0.00    -0.468 OA
ATOM     24  C   LIG    1        4.480  -2.055  -2.147  0.00  0.00    +0.280 C 
ENDBRANCH  21  23
ENDBRANCH  17  21
TORSDOF 2
