REMARK  Name = ZINC04097756
REMARK                            x       y       z     vdW  Elec       q    Type
REMARK                         _______ _______ _______ _____ _____    ______ ____
ROOT
ATOM      1  C   LIG    1       -2.521   4.166   0.048  0.00  0.00    +0.190 C 
ATOM      2  O   LIG    1       -3.571   3.550   0.055  0.00  0.00    -0.287 OA
ENDROOT
BRANCH   1   3
ATOM      3  C   LIG    1       -1.239   3.437   0.032  0.00  0.00    +0.067 A 
ATOM      4  C   LIG    1       -0.030   4.142   0.024  0.00  0.00    +0.019 A 
ATOM      5  C   LIG    1        1.164   3.460   0.009  0.00  0.00    +0.050 A 
ATOM      6  C   LIG    1        1.178   2.069   0.002  0.00  0.00    +0.162 A 
ATOM      7  C   LIG    1       -0.016   1.357   0.009  0.00  0.00    +0.201 A 
ATOM      8  C   LIG    1       -1.227   2.035   0.019  0.00  0.00    +0.173 A 
BRANCH   6   9
ATOM      9  O   LIG    1        2.362   1.404  -0.013  0.00  0.00    -0.503 OA
ATOM     10  H   LIG    1        2.697   1.216  -0.900  0.00  0.00    +0.292 HD
ENDBRANCH   6   9
BRANCH   7  11
ATOM     11  O   LIG    1        0.002  -0.004   0.002  0.00  0.00    -0.501 OA
ATOM     12  H   LIG    1        0.016  -0.402   0.883  0.00  0.00    +0.292 HD
ENDBRANCH   7  11
BRANCH   8  13
ATOM     13  O   LIG    1       -2.396   1.343   0.021  0.00  0.00    -0.503 OA
ATOM     14  H   LIG    1       -2.730   1.138   0.905  0.00  0.00    +0.292 HD
ENDBRANCH   8  13
ENDBRANCH   1   3
BRANCH   1  16
ATOM     15  C   LIG    1       -3.704   6.296   0.071  0.00  0.00    +0.012 C 
ATOM     16  C   LIG    1       -2.530   5.628   0.056  0.00  0.00    +0.052 C 
BRANCH  15  22
ATOM     17  C   LIG    1       -2.507   8.475   0.071  0.00  0.00    +0.012 A 
ATOM     18  C   LIG    1       -2.519   9.853   0.078  0.00  0.00    +0.050 A 
ATOM     19  C   LIG    1       -3.725  10.540   0.092  0.00  0.00    +0.158 A 
ATOM     20  C   LIG    1       -4.932   9.840   0.100  0.00  0.00    +0.159 A 
ATOM     21  C   LIG    1       -4.930   8.460   0.088  0.00  0.00    +0.057 A 
ATOM     22  C   LIG    1       -3.714   7.765   0.079  0.00  0.00    -0.021 A 
BRANCH  19  23
ATOM     23  O   LIG    1       -3.730  11.898   0.098  0.00  0.00    -0.503 OA
ATOM     24  H   LIG    1       -3.740  12.295  -0.783  0.00  0.00    +0.292 HD
ENDBRANCH  19  23
BRANCH  20  25
ATOM     25  O   LIG    1       -6.111  10.518   0.114  0.00  0.00    -0.503 OA
ATOM     26  H   LIG    1       -6.460  10.718  -0.766  0.00  0.00    +0.292 HD
ENDBRANCH  20  25
ENDBRANCH  15  22
ENDBRANCH   1  16
TORSDOF 8
