REMARK  Name = ZINC04173961
REMARK                            x       y       z     vdW  Elec       q    Type
REMARK                         _______ _______ _______ _____ _____    ______ ____
ROOT
ATOM      1  N   LIG    1       -1.202  -0.723   0.010  0.00  0.00    -0.210 N 
ATOM      2  C   LIG    1       -2.397  -0.131   0.117  0.00  0.00    +0.231 C 
ATOM      3  C   LIG    1       -3.484  -1.181   0.093  0.00  0.00    +0.095 C 
ATOM      4  C   LIG    1       -4.261  -1.050  -1.255  0.00  0.00    +0.025 C 
ATOM      5  C   LIG    1       -4.605  -2.558  -1.534  0.00  0.00    +0.016 C 
ATOM      6  C   LIG    1       -3.098  -3.005  -1.496  0.00  0.00    +0.025 C 
ATOM      7  C   LIG    1       -2.492  -1.960  -2.442  0.00  0.00    -0.027 C 
ATOM      8  C   LIG    1       -3.163  -0.812  -2.299  0.00  0.00    -0.027 C 
ATOM      9  C   LIG    1       -2.690  -2.513  -0.050  0.00  0.00    +0.095 C 
ATOM     10  O   LIG    1       -2.580   1.063   0.218  0.00  0.00    -0.274 OA
ATOM     11  C   LIG    1       -1.250  -2.055  -0.095  0.00  0.00    +0.231 C 
ATOM     12  O   LIG    1       -0.287  -2.784  -0.206  0.00  0.00    -0.274 OA
ENDROOT
BRANCH   1  20
ATOM     13  C   LIG    1        0.423   0.660   1.146  0.00  0.00    +0.025 A 
ATOM     14  C   LIG    1        1.609   1.367   1.136  0.00  0.00    +0.023 A 
ATOM     15  C   LIG    1        2.379   1.414  -0.012  0.00  0.00    +0.059 A 
ATOM     16 CL   LIG    1        3.870   2.304  -0.021  0.00  0.00    -0.082 Cl
ATOM     17  C   LIG    1        1.962   0.752  -1.155  0.00  0.00    +0.061 A 
ATOM     18 CL   LIG    1        2.930   0.813  -2.595  0.00  0.00    -0.082 Cl
ATOM     19  C   LIG    1        0.775   0.044  -1.150  0.00  0.00    +0.045 A 
ATOM     20  C   LIG    1        0.002  -0.004   0.002  0.00  0.00    +0.045 A 
ENDBRANCH   1  20
TORSDOF 1
