REMARK  Name = ZINC04555661
REMARK                            x       y       z     vdW  Elec       q    Type
REMARK                         _______ _______ _______ _____ _____    ______ ____
ROOT
ATOM      1  C   LIG    1       -0.019   1.526   0.010  0.00  0.00    +0.011 C 
ATOM      2  C   LIG    1        0.002  -0.004   0.002  0.00  0.00    -0.024 C 
ATOM      3  C   LIG    1       -1.435  -0.530   0.022  0.00  0.00    +0.011 C 
ATOM      4  C   LIG    1        0.699  -0.494  -1.271  0.00  0.00    +0.044 C 
ATOM      5  C   LIG    1        2.137   0.006  -1.233  0.00  0.00    -0.019 A 
ATOM      6  C   LIG    1        2.814   0.272   0.039  0.00  0.00    +0.042 A 
ATOM      7  C   LIG    1        2.143   0.049   1.281  0.00  0.00    +0.166 C 
ATOM      8  O   LIG    1        2.686   0.300   2.339  0.00  0.00    -0.292 OA
ATOM      9  C   LIG    1        4.128   0.737  -0.056  0.00  0.00    +0.056 A 
ATOM     10  S   LIG    1        4.439   0.806  -1.700  0.00  0.00    -0.079 S 
ATOM     11  C   LIG    1        2.882   0.240  -2.343  0.00  0.00    +0.044 A 
ATOM     12  C   LIG    1        0.741  -0.506   1.240  0.00  0.00    +0.086 C 
ENDROOT
BRANCH  11  13
ATOM     13  C   LIG    1        2.489   0.065  -3.758  0.00  0.00    +0.099 A 
ATOM     14  C   LIG    1        3.302   0.317  -4.883  0.00  0.00    +0.049 A 
ATOM     15  C   LIG    1        2.579   0.035  -5.987  0.00  0.00    +0.105 A 
ATOM     16  N   LIG    1        1.355  -0.380  -5.592  0.00  0.00    -0.284 N 
ATOM     17  H   LIG    1        0.629  -0.649  -6.176  0.00  0.00    +0.188 HD
ATOM     18  N   LIG    1        1.319  -0.359  -4.192  0.00  0.00    -0.173 NA
ENDBRANCH  11  13
BRANCH   9  19
ATOM     19  S   LIG    1        5.218   1.157   1.264  0.00  0.00    -0.121 S 
ATOM     20  C   LIG    1        6.740   1.677   0.427  0.00  0.00    +0.090 C 
ENDBRANCH   9  19
TORSDOF 2
