REMARK  Name = ZINC04456013
REMARK                            x       y       z     vdW  Elec       q    Type
REMARK                         _______ _______ _______ _____ _____    ______ ____
ROOT
ATOM      1  C   LIG    1        4.960   0.161  -0.046  0.00  0.00    +0.105 C 
ATOM      2  C   LIG    1        5.384   0.491   1.374  0.00  0.00    +0.029 C 
ATOM      3  C   LIG    1        4.365   1.226   2.256  0.00  0.00    +0.033 C 
ATOM      4  C   LIG    1        4.753   0.731   3.651  0.00  0.00    -0.030 C 
ATOM      5  C   LIG    1        5.344  -0.455   3.564  0.00  0.00    -0.023 C 
ATOM      6  C   LIG    1        5.402  -0.871   2.130  0.00  0.00    +0.049 C 
ATOM      7  C   LIG    1        6.504  -1.685   1.571  0.00  0.00    -0.018 A 
ATOM      8  C   LIG    1        7.256  -2.542   2.345  0.00  0.00    +0.034 A 
ATOM      9  C   LIG    1        8.268  -3.291   1.773  0.00  0.00    +0.105 A 
ATOM     10  C   LIG    1        8.527  -3.183   0.419  0.00  0.00    +0.030 A 
ATOM     11  C   LIG    1        7.783  -2.324  -0.363  0.00  0.00    +0.025 A 
ATOM     12  C   LIG    1        6.768  -1.561   0.203  0.00  0.00    +0.031 A 
ATOM     13  N   LIG    1        6.050  -0.668  -0.607  0.00  0.00    -0.336 N 
ATOM     14  H   LIG    1        6.269  -0.592  -1.548  0.00  0.00    +0.147 HD
ENDROOT
BRANCH   1  23
ATOM     15  C   LIG    1       -0.016   1.357   0.009  0.00  0.00    +0.001 A 
ATOM     16  C   LIG    1        1.169   2.091   0.002  0.00  0.00    +0.001 A 
ATOM     17  C   LIG    1        2.378   1.468  -0.013  0.00  0.00    +0.009 A 
ATOM     18  C   LIG    1        2.438   0.064  -0.021  0.00  0.00    -0.013 A 
ATOM     19  C   LIG    1        1.233  -0.683  -0.013  0.00  0.00    -0.018 A 
ATOM     20  C   LIG    1        1.292  -2.087  -0.021  0.00  0.00    +0.008 A 
ATOM     21  C   LIG    1        2.502  -2.709  -0.036  0.00  0.00    +0.001 A 
ATOM     22  C   LIG    1        3.687  -1.976  -0.043  0.00  0.00    +0.006 A 
ATOM     23  C   LIG    1        3.668  -0.615  -0.037  0.00  0.00    -0.019 A 
ATOM     24  C   LIG    1        0.002  -0.004   0.002  0.00  0.00    +0.008 A 
ENDBRANCH   1  23
BRANCH   9  25
ATOM     25  S   LIG    1        9.227  -4.383   2.769  0.00  0.00    +0.056 S 
ATOM     26  O   LIG    1        9.145  -3.895   4.101  0.00  0.00    -0.153 OA
ATOM     27  O   LIG    1       10.466  -4.562   2.098  0.00  0.00    -0.153 OA
BRANCH  25  28
ATOM     28  N   LIG    1        8.465  -5.854   2.757  0.00  0.00    -0.204 NA
ATOM     29  H   LIG    1        8.840  -6.598   3.253  0.00  0.00    +0.144 HD
ATOM     30  H   LIG    1        7.644  -5.970   2.254  0.00  0.00    +0.144 HD
ENDBRANCH  25  28
ENDBRANCH   9  25
TORSDOF 3
