REMARK  Name = ZINC04265684
REMARK                            x       y       z     vdW  Elec       q    Type
REMARK                         _______ _______ _______ _____ _____    ______ ____
ROOT
ATOM      1  C   LIG    1       -0.742   1.585  -1.213  0.00  0.00    +0.217 C 
ATOM      2  O   LIG    1       -0.383   2.602  -1.757  0.00  0.00    -0.287 OA
ENDROOT
BRANCH   1   3
ATOM      3  C   LIG    1       -0.013   1.086   0.008  0.00  0.00    +0.160 C 
ATOM      4 BR   LIG    1        1.832   1.766  -0.006  0.00  0.00    -0.074 Br
BRANCH   3   8
ATOM      5  C   LIG    1       -2.011   2.463   3.523  0.00  0.00    +0.000 A 
ATOM      6  C   LIG    1       -1.960   1.111   3.243  0.00  0.00    +0.000 A 
ATOM      7  C   LIG    1       -1.313   0.665   2.105  0.00  0.00    +0.005 A 
ATOM      8  C   LIG    1       -0.718   1.572   1.248  0.00  0.00    -0.026 A 
ATOM      9  C   LIG    1       -0.766   2.924   1.531  0.00  0.00    +0.005 A 
ATOM     10  C   LIG    1       -1.417   3.370   2.666  0.00  0.00    +0.000 A 
ENDBRANCH   3   8
ENDBRANCH   1   3
BRANCH   1  11
ATOM     11  C   LIG    1       -1.902   0.826  -1.748  0.00  0.00    +0.217 C 
ATOM     12  O   LIG    1       -2.261  -0.191  -1.204  0.00  0.00    -0.287 OA
BRANCH  11  13
ATOM     13  C   LIG    1       -2.631   1.325  -2.969  0.00  0.00    +0.160 C 
ATOM     14 BR   LIG    1       -3.511  -0.185  -3.870  0.00  0.00    -0.074 Br
BRANCH  13  15
ATOM     15  C   LIG    1       -3.668   2.337  -2.556  0.00  0.00    -0.026 A 
ATOM     16  C   LIG    1       -4.741   1.948  -1.776  0.00  0.00    +0.005 A 
ATOM     17  C   LIG    1       -5.690   2.878  -1.393  0.00  0.00    +0.000 A 
ATOM     18  C   LIG    1       -5.571   4.194  -1.799  0.00  0.00    +0.000 A 
ATOM     19  C   LIG    1       -4.501   4.582  -2.583  0.00  0.00    +0.000 A 
ATOM     20  C   LIG    1       -3.550   3.653  -2.962  0.00  0.00    +0.005 A 
ENDBRANCH  13  15
ENDBRANCH  11  13
ENDBRANCH   1  11
TORSDOF 5
