REMARK  Name = ZINC04244898
REMARK                            x       y       z     vdW  Elec       q    Type
REMARK                         _______ _______ _______ _____ _____    ______ ____
ROOT
ATOM      1  C   LIG    1       -1.172  -2.094   0.002  0.00  0.00    +0.004 A 
ATOM      2  C   LIG    1        0.030  -2.773  -0.013  0.00  0.00    +0.023 A 
ATOM      3  C   LIG    1        1.226  -2.067  -0.021  0.00  0.00    +0.032 A 
ATOM      4  C   LIG    1        1.208  -0.677  -0.013  0.00  0.00    +0.055 A 
ATOM      5  C   LIG    1        0.002  -0.004   0.002  0.00  0.00    +0.123 A 
ATOM      6  C   LIG    1       -1.187  -0.711   0.015  0.00  0.00    +0.033 A 
ENDROOT
BRANCH   3   7
ATOM      7  N   LIG    1        2.443  -2.751  -0.036  0.00  0.00    -0.333 N 
ATOM      8  C   LIG    1        3.287  -2.349   1.099  0.00  0.00    +0.086 C 
ATOM      9  C   LIG    1        4.639  -3.060   1.002  0.00  0.00    -0.063 C 
ATOM     10  N   LIG    1        4.429  -4.520   1.003  0.00  0.00    +0.381 N 
ATOM     11  H   LIG    1        5.338  -4.993   0.931  0.00  0.00    -0.086 HD
ATOM     12  H   LIG    1        3.969  -4.796   1.879  0.00  0.00    -0.086 HD
ATOM     13  C   LIG    1        3.582  -4.915  -0.138  0.00  0.00    -0.063 C 
ATOM     14  C   LIG    1        2.230  -4.205  -0.041  0.00  0.00    +0.086 C 
ENDBRANCH   3   7
BRANCH   5  15
ATOM     15  N   LIG    1       -0.018   1.476   0.010  0.00  0.00    +0.006 N 
ATOM     16  O   LIG    1        1.028   2.099   0.004  0.00  0.00    -0.130 OA
BRANCH  15  17
ATOM     17  O   LIG    1       -1.081   2.070   0.018  0.00  0.00    -0.396 OA
ATOM     18  H   LIG    1       -1.886   1.591   0.024  0.00  0.00    +0.329 HD
ENDBRANCH  15  17
ENDBRANCH   5  15
TORSDOF 3
