REMARK  Name = ZINC04202377
REMARK                            x       y       z     vdW  Elec       q    Type
REMARK                         _______ _______ _______ _____ _____    ______ ____
ROOT
ATOM      1  CA  LIG    1        1.229  -2.186  -0.021  0.00  0.00    +0.067 C 
ENDROOT
BRANCH   1   8
ATOM      2  C   LIG    1       -1.293  -0.775   0.011  0.00  0.00    +0.044 C 
ATOM      3  C   LIG    1        0.002  -0.004   0.002  0.00  0.00    -0.048 A 
ATOM      4  C   LIG    1       -0.017   1.378   0.010  0.00  0.00    +0.003 A 
ATOM      5  C   LIG    1        1.171   2.086   0.002  0.00  0.00    +0.000 A 
ATOM      6  C   LIG    1        2.377   1.411  -0.015  0.00  0.00    +0.000 A 
ATOM      7  C   LIG    1        2.396   0.029  -0.022  0.00  0.00    +0.003 A 
ATOM      8  C   LIG    1        1.208  -0.679  -0.013  0.00  0.00    -0.048 A 
ENDBRANCH   1   8
BRANCH   1   9
ATOM      9  N   LIG    1        2.495  -2.650   0.573  0.00  0.00    +0.390 N 
ATOM     10  H1  LIG    1        2.580  -2.274   1.524  0.00  0.00    -0.088 HD
ATOM     11  H2  LIG    1        3.282  -2.324   0.015  0.00  0.00    -0.088 HD
ATOM     12  H3  LIG    1        2.508  -3.668   0.615  0.00  0.00    -0.088 HD
ENDBRANCH   1   9
BRANCH   1  13
ATOM     13  C   LIG    1        1.098  -2.682  -1.438  0.00  0.00    +0.294 C 
ATOM     14  O   LIG    1        2.079  -3.039  -2.046  0.00  0.00    -0.253 OA
BRANCH  13  15
ATOM     15  OXT LIG    1       -0.109  -2.729  -2.024  0.00  0.00    -0.482 OA
ATOM     16  HXT LIG    1       -0.870  -2.453  -1.552  0.00  0.00    +0.295 HD
ENDBRANCH  13  15
ENDBRANCH   1  13
TORSDOF 4
