REMARK  Name = ZINC04539367
REMARK                            x       y       z     vdW  Elec       q    Type
REMARK                         _______ _______ _______ _____ _____    ______ ____
ROOT
ATOM      1  C   LIG    1       -0.017   1.377   0.010  0.00  0.00    +0.052 A 
ATOM      2  C   LIG    1        1.171   2.087   0.002  0.00  0.00    +0.044 A 
ATOM      3 CL   LIG    1        1.145   3.822   0.011  0.00  0.00    -0.083 Cl
ATOM      4  C   LIG    1        2.381   1.415  -0.013  0.00  0.00    +0.043 A 
ATOM      5  C   LIG    1        2.404   0.032  -0.021  0.00  0.00    +0.086 A 
ATOM      6 CL   LIG    1        3.921  -0.811  -0.040  0.00  0.00    -0.080 Cl
ATOM      7  C   LIG    1        1.213  -0.680  -0.013  0.00  0.00    +0.162 A 
ATOM      8  C   LIG    1        0.002  -0.004   0.002  0.00  0.00    +0.149 A 
ENDROOT
BRANCH   8   9
ATOM      9  S   LIG    1       -1.512  -0.906   0.012  0.00  0.00    +0.064 S 
ATOM     10  O   LIG    1       -2.558   0.056   0.001  0.00  0.00    -0.153 OA
ATOM     11  O   LIG    1       -1.391  -1.889   1.031  0.00  0.00    -0.153 OA
BRANCH   9  12
ATOM     12  N   LIG    1       -1.604  -1.723  -1.425  0.00  0.00    -0.176 NA
ATOM     13  C   LIG    1       -2.206  -1.211  -2.665  0.00  0.00    +0.109 C 
ATOM     14  C   LIG    1       -2.085  -2.324  -3.727  0.00  0.00    +0.018 C 
ATOM     15  C   LIG    1       -1.932  -3.608  -2.869  0.00  0.00    +0.018 C 
ATOM     16  C   LIG    1       -1.091  -3.083  -1.675  0.00  0.00    +0.109 C 
ENDBRANCH   9  12
ENDBRANCH   8   9
BRANCH   7  17
ATOM     17  O   LIG    1        1.233  -2.040  -0.021  0.00  0.00    -0.503 OA
ATOM     18  H   LIG    1        2.051  -2.496  -0.031  0.00  0.00    +0.292 HD
ENDBRANCH   7  17
TORSDOF 3
