REMARK  Name = ZINC04216929
REMARK                            x       y       z     vdW  Elec       q    Type
REMARK                         _______ _______ _______ _____ _____    ______ ____
ROOT
ATOM      1  C   LIG    1        1.148  -0.677  -0.013  0.00  0.00    +0.150 A 
ATOM      2  C   LIG    1        2.351   0.050  -0.020  0.00  0.00    +0.147 A 
ATOM      3  C   LIG    1        2.278   1.453  -0.012  0.00  0.00    +0.167 A 
ATOM      4  N   LIG    1        3.576   1.899  -0.022  0.00  0.00    -0.286 N 
ATOM      5  C   LIG    1        4.385   0.802  -0.036  0.00  0.00    +0.203 A 
ATOM      6  N   LIG    1        1.085   2.038   0.003  0.00  0.00    -0.216 NA
ATOM      7  C   LIG    1       -0.016   1.317   0.009  0.00  0.00    +0.225 A 
ATOM      8  N   LIG    1        3.664  -0.282  -0.035  0.00  0.00    -0.231 NA
ATOM      9  N   LIG    1        0.002  -0.004   0.002  0.00  0.00    -0.219 NA
ENDROOT
BRANCH   4  10
ATOM     10  C1* LIG    1        4.012   3.298  -0.019  0.00  0.00    +0.253 C 
ATOM     11  C2* LIG    1        4.120   3.832   1.432  0.00  0.00    +0.195 C 
ATOM     12  C3* LIG    1        5.143   4.984   1.278  0.00  0.00    +0.178 C 
ATOM     13  C4* LIG    1        5.888   4.655  -0.030  0.00  0.00    +0.177 C 
ATOM     14  O4* LIG    1        5.359   3.412  -0.525  0.00  0.00    -0.346 OA
BRANCH  11  15
ATOM     15  O2* LIG    1        2.860   4.327   1.889  0.00  0.00    -0.385 OA
ATOM     16  H2* LIG    1        2.877   4.672   2.792  0.00  0.00    +0.210 HD
ENDBRANCH  11  15
BRANCH  12  17
ATOM     17  O3* LIG    1        4.470   6.239   1.171  0.00  0.00    -0.386 OA
ATOM     18  H3* LIG    1        5.063   6.997   1.072  0.00  0.00    +0.210 HD
ENDBRANCH  12  17
BRANCH  13  19
ATOM     19  C5* LIG    1        7.387   4.515   0.245  0.00  0.00    +0.190 C 
BRANCH  19  20
ATOM     20  O5* LIG    1        8.082   4.326  -0.989  0.00  0.00    -0.392 OA
ATOM     21  H5* LIG    1        9.039   4.230  -0.890  0.00  0.00    +0.210 HD
ENDBRANCH  19  20
ENDBRANCH  13  19
ENDBRANCH   4  10
BRANCH   1  22
ATOM     22  N   LIG    1        1.157  -2.061  -0.021  0.00  0.00    -0.323 N 
ATOM     23  H   LIG    1        1.690  -2.303   0.790  0.00  0.00    +0.148 HD
BRANCH  22  24
ATOM     24  C   LIG    1       -0.107  -2.801  -0.013  0.00  0.00    +0.138 C 
BRANCH  24  31
ATOM     25  C   LIG    1        0.615  -4.152   2.437  0.00  0.00    +0.044 C 
ATOM     26  C   LIG    1        0.523  -4.927   1.148  0.00  0.00    -0.046 A 
ATOM     27  C   LIG    1        0.784  -6.285   1.138  0.00  0.00    +0.003 A 
ATOM     28  C   LIG    1        0.699  -6.996  -0.044  0.00  0.00    +0.000 A 
ATOM     29  C   LIG    1        0.353  -6.350  -1.216  0.00  0.00    +0.000 A 
ATOM     30  C   LIG    1        0.087  -4.993  -1.205  0.00  0.00    +0.005 A 
ATOM     31  C   LIG    1        0.177  -4.281  -0.024  0.00  0.00    -0.027 A 
ENDBRANCH  24  31
ENDBRANCH  22  24
ENDBRANCH   1  22
TORSDOF 8
