REMARK  Name = ZINC04228231
REMARK                            x       y       z     vdW  Elec       q    Type
REMARK                         _______ _______ _______ _____ _____    ______ ____
ROOT
ATOM      1  C   LIG    1        2.315  -0.075   1.461  0.00  0.00    +0.161 C 
ATOM      2  C   LIG    1        3.103  -0.674   2.642  0.00  0.00    +0.177 C 
ATOM      3  C   LIG    1        3.576   0.560   3.447  0.00  0.00    +0.195 C 
ATOM      4  C   LIG    1        3.491   1.690   2.389  0.00  0.00    +0.253 C 
ATOM      5  O   LIG    1        2.310   1.353   1.626  0.00  0.00    -0.347 OA
ENDROOT
BRANCH   4   6
ATOM      6  N   LIG    1        3.335   2.994   3.039  0.00  0.00    -0.286 N 
ATOM      7  C   LIG    1        2.158   3.638   3.282  0.00  0.00    +0.203 A 
ATOM      8  N   LIG    1        2.387   4.774   3.874  0.00  0.00    -0.231 NA
ATOM      9  C   LIG    1        3.722   4.931   4.048  0.00  0.00    +0.147 A 
ATOM     10  C   LIG    1        4.534   5.929   4.611  0.00  0.00    +0.147 A 
ATOM     11  N   LIG    1        5.850   5.742   4.625  0.00  0.00    -0.219 NA
ATOM     12  C   LIG    1        6.391   4.651   4.113  0.00  0.00    +0.225 A 
ATOM     13  N   LIG    1        5.670   3.692   3.571  0.00  0.00    -0.216 NA
ATOM     14  C   LIG    1        4.345   3.788   3.519  0.00  0.00    +0.167 A 
BRANCH  10  15
ATOM     15  N   LIG    1        3.977   7.075   5.152  0.00  0.00    -0.341 N 
ATOM     16  H   LIG    1        4.548   7.757   5.537  0.00  0.00    +0.144 HD
ATOM     17  H   LIG    1        3.014   7.195   5.145  0.00  0.00    +0.144 HD
ENDBRANCH  10  15
ENDBRANCH   4   6
BRANCH   2  18
ATOM     18  O   LIG    1        4.223  -1.424   2.166  0.00  0.00    -0.386 OA
ATOM     19  H   LIG    1        4.755  -1.824   2.868  0.00  0.00    +0.210 HD
ENDBRANCH   2  18
BRANCH   3  20
ATOM     20  O   LIG    1        4.920   0.388   3.902  0.00  0.00    -0.385 OA
ATOM     21  H   LIG    1        5.040  -0.365   4.497  0.00  0.00    +0.210 HD
ENDBRANCH   3  20
BRANCH   1  22
ATOM     22  C   LIG    1        0.879  -0.605   1.472  0.00  0.00    +0.093 C 
BRANCH  22  24
ATOM     23  C   LIG    1       -0.022   1.810   0.012  0.00  0.00    +0.073 C 
ATOM     24  S   LIG    1        0.002  -0.004   0.002  0.00  0.00    -0.209 S 
BRANCH  24  25
ATOM     25  C   LIG    1       -1.700  -0.632   0.015  0.00  0.00    +0.057 C 
BRANCH  25  26
ATOM     26  C   LIG    1       -2.440  -0.125  -1.225  0.00  0.00    +0.005 C 
BRANCH  26  27
ATOM     27  CA  LIG    1       -3.875  -0.655  -1.214  0.00  0.00    +0.036 C 
BRANCH  27  28
ATOM     28  N   LIG    1       -3.858  -2.118  -1.343  0.00  0.00    +0.387 N 
ATOM     29  H1  LIG    1       -4.805  -2.467  -1.335  0.00  0.00    -0.089 HD
ATOM     30  H2  LIG    1       -3.346  -2.518  -0.570  0.00  0.00    -0.089 HD
ATOM     31  H3  LIG    1       -3.412  -2.374  -2.210  0.00  0.00    -0.089 HD
ENDBRANCH  27  28
BRANCH  27  32
ATOM     32  C   LIG    1       -4.639  -0.058  -2.367  0.00  0.00    +0.290 C 
ATOM     33  O   LIG    1       -4.655  -0.625  -3.447  0.00  0.00    -0.253 OA
BRANCH  32  34
ATOM     34  OXT LIG    1       -5.242   0.992  -2.221  0.00  0.00    -0.482 OA
ATOM     35  HXT LIG    1       -5.230   1.427  -1.391  0.00  0.00    +0.295 HD
ENDBRANCH  32  34
ENDBRANCH  27  32
ENDBRANCH  26  27
ENDBRANCH  25  26
ENDBRANCH  24  25
ENDBRANCH  22  24
ENDBRANCH   1  22
TORSDOF 12
