REMARK  Name = ZINC04487712
REMARK                            x       y       z     vdW  Elec       q    Type
REMARK                         _______ _______ _______ _____ _____    ______ ____
ROOT
ATOM      1  N   LIG    1        0.002  -0.004   0.002  0.00  0.00    -0.285 N 
ATOM      2  H   LIG    1        0.845  -0.477  -0.076  0.00  0.00    +0.155 HD
ATOM      3  C   LIG    1       -1.150  -0.694   0.111  0.00  0.00    +0.222 C 
ATOM      4  O   LIG    1       -2.211  -0.106   0.124  0.00  0.00    -0.275 OA
ENDROOT
BRANCH   1   6
ATOM      5  C   LIG    1        1.016   2.105   0.598  0.00  0.00    +0.061 A 
ATOM      6  C   LIG    1       -0.018   1.395   0.002  0.00  0.00    +0.039 A 
ATOM      7  C   LIG    1       -1.068   2.075  -0.599  0.00  0.00    +0.061 A 
ATOM      8  C   LIG    1       -1.088   3.459  -0.594  0.00  0.00    +0.128 A 
ATOM      9  F   LIG    1       -2.113   4.121  -1.174  0.00  0.00    -0.205 F 
ATOM     10  C   LIG    1       -0.057   4.165   0.001  0.00  0.00    +0.076 A 
ATOM     11  C   LIG    1        0.995   3.488   0.596  0.00  0.00    +0.128 A 
ATOM     12  F   LIG    1        2.001   4.179   1.176  0.00  0.00    -0.205 F 
ENDBRANCH   1   6
BRANCH   3  13
ATOM     13  C   LIG    1       -1.121  -2.197   0.216  0.00  0.00    +0.101 C 
ATOM     14  C   LIG    1       -0.488  -2.828  -1.045  0.00  0.00    +0.110 C 
ATOM     15  C   LIG    1       -1.668  -3.126  -1.944  0.00  0.00    +0.217 C 
ATOM     16  N   LIG    1       -2.809  -3.089  -1.235  0.00  0.00    -0.298 N 
ATOM     17  O   LIG    1       -1.595  -3.364  -3.131  0.00  0.00    -0.276 OA
ATOM     18  C   LIG    1       -2.551  -2.782   0.177  0.00  0.00    +0.121 C 
BRANCH  16  19
ATOM     19  C   LIG    1       -4.141  -3.323  -1.800  0.00  0.00    +0.076 C 
ATOM     20  C   LIG    1       -4.199  -4.728  -2.403  0.00  0.00    +0.022 C 
ATOM     21  C   LIG    1       -5.590  -4.972  -2.993  0.00  0.00    +0.002 C 
ATOM     22  C   LIG    1       -5.870  -3.937  -4.083  0.00  0.00    +0.000 C 
ATOM     23  C   LIG    1       -5.812  -2.532  -3.480  0.00  0.00    +0.002 C 
ATOM     24  C   LIG    1       -4.422  -2.287  -2.890  0.00  0.00    +0.022 C 
ENDBRANCH  16  19
ENDBRANCH   3  13
TORSDOF 3
