REMARK  Name = ZINC04098424
REMARK                            x       y       z     vdW  Elec       q    Type
REMARK                         _______ _______ _______ _____ _____    ______ ____
ROOT
ATOM      1  C   LIG    1       -2.512   6.823  -0.985  0.00  0.00    +0.001 C 
ATOM      2  C   LIG    1       -3.944   6.958  -1.510  0.00  0.00    +0.026 C 
ATOM      3  C   LIG    1       -4.876   6.158  -0.579  0.00  0.00    +0.088 C 
ATOM      4  C   LIG    1       -4.643   6.663   0.826  0.00  0.00    +0.122 C 
ATOM      5  C   LIG    1       -3.709   6.097   1.656  0.00  0.00    +0.104 C 
ATOM      6  C   LIG    1       -2.905   4.944   1.250  0.00  0.00    +0.184 C 
ATOM      7  C   LIG    1       -2.969   4.486  -0.193  0.00  0.00    +0.101 C 
ATOM      8  O   LIG    1       -2.202   4.365   2.052  0.00  0.00    -0.291 OA
ATOM      9  C   LIG    1       -4.407   4.712  -0.643  0.00  0.00    +0.161 C 
ATOM     10  O   LIG    1       -5.119   3.813  -1.022  0.00  0.00    -0.295 OA
ATOM     11  C   LIG    1       -2.045   5.356  -1.047  0.00  0.00    -0.012 C 
ATOM     12  C   LIG    1       -2.080   4.863  -2.495  0.00  0.00    +0.012 C 
ATOM     13  C   LIG    1       -0.614   5.248  -0.515  0.00  0.00    +0.012 C 
ENDROOT
BRANCH   4  14
ATOM     14  O   LIG    1       -5.372   7.695   1.275  0.00  0.00    -0.509 OA
ATOM     15  H   LIG    1       -5.102   7.910   2.214  0.00  0.00    +0.292 HD
ENDBRANCH   4  14
BRANCH   5  16
ATOM     16  C   LIG    1       -3.508   6.668   2.997  0.00  0.00    +0.200 C 
ATOM     17  O   LIG    1       -3.050   7.789   3.118  0.00  0.00    -0.286 OA
BRANCH  16  18
ATOM     18  C   LIG    1       -3.862   5.881   4.194  0.00  0.00    +0.026 A 
ATOM     19  C   LIG    1       -4.279   4.554   4.062  0.00  0.00    +0.015 A 
ATOM     20  C   LIG    1       -4.609   3.821   5.181  0.00  0.00    +0.050 A 
ATOM     21  C   LIG    1       -4.529   4.398   6.442  0.00  0.00    +0.158 A 
ATOM     22  C   LIG    1       -4.114   5.722   6.581  0.00  0.00    +0.159 A 
ATOM     23  C   LIG    1       -3.777   6.461   5.463  0.00  0.00    +0.061 A 
BRANCH  21  24
ATOM     24  O   LIG    1       -4.855   3.672   7.542  0.00  0.00    -0.503 OA
ATOM     25  H   LIG    1       -4.111   3.192   7.931  0.00  0.00    +0.292 HD
ENDBRANCH  21  24
BRANCH  22  26
ATOM     26  O   LIG    1       -4.037   6.285   7.816  0.00  0.00    -0.503 OA
ATOM     27  H   LIG    1       -3.176   6.177   8.244  0.00  0.00    +0.292 HD
ENDBRANCH  22  26
ENDBRANCH  16  18
ENDBRANCH   5  16
BRANCH   1  28
ATOM     28  C   LIG    1       -2.458   7.302   0.468  0.00  0.00    +0.031 C 
BRANCH  28  32
ATOM     29  C   LIG    1       -2.976  10.047   0.874  0.00  0.00    +0.038 C 
ATOM     30  C   LIG    1       -1.560   9.530   0.905  0.00  0.00    -0.080 C 
ATOM     31  C   LIG    1       -0.426  10.461   1.246  0.00  0.00    +0.038 C 
ATOM     32  C   LIG    1       -1.317   8.272   0.635  0.00  0.00    -0.028 C 
ENDBRANCH  28  32
ENDBRANCH   1  28
BRANCH   3  33
ATOM     33  C   LIG    1       -6.346   6.286  -0.981  0.00  0.00    +0.030 C 
BRANCH  33  34
ATOM     34  C   LIG    1       -7.199   5.375  -0.095  0.00  0.00    +0.019 C 
BRANCH  34  35
ATOM     35  C   LIG    1       -7.213   5.914   1.312  0.00  0.00    -0.076 C 
ATOM     36  C   LIG    1       -7.885   7.229   1.609  0.00  0.00    +0.039 C 
ATOM     37  C   LIG    1       -6.641   5.238   2.278  0.00  0.00    +0.007 C 
ENDBRANCH  34  35
BRANCH  34  38
ATOM     38  C   LIG    1       -8.629   5.329  -0.637  0.00  0.00    +0.035 C 
BRANCH  38  39
ATOM     39  C   LIG    1       -9.437   4.338   0.160  0.00  0.00    -0.028 C 
ATOM     40  C   LIG    1      -10.534   4.723   0.763  0.00  0.00    -0.080 C 
ATOM     41  C   LIG    1      -11.263   3.773   1.679  0.00  0.00    +0.038 C 
ATOM     42  C   LIG    1      -11.068   6.114   0.542  0.00  0.00    +0.038 C 
ENDBRANCH  38  39
ENDBRANCH  34  38
ENDBRANCH  33  34
ENDBRANCH   3  33
BRANCH   7  43
ATOM     43  C   LIG    1       -2.587   3.009  -0.312  0.00  0.00    +0.050 C 
BRANCH  43  44
ATOM     44  C   LIG    1       -3.542   2.176   0.504  0.00  0.00    -0.027 C 
ATOM     45  C   LIG    1       -4.197   1.190  -0.057  0.00  0.00    -0.080 C 
ATOM     46  C   LIG    1       -5.151   0.358   0.759  0.00  0.00    +0.038 C 
ATOM     47  C   LIG    1       -3.996   0.889  -1.520  0.00  0.00    +0.038 C 
ENDBRANCH  43  44
ENDBRANCH   7  43
TORSDOF 14
