REMARK  Name = ZINC04262049
REMARK                            x       y       z     vdW  Elec       q    Type
REMARK                         _______ _______ _______ _____ _____    ______ ____
ROOT
ATOM      1  N   UNK A  1       -3.849   6.505  -2.143  0.00  0.00    -0.268 N 
ATOM      2  H   UNK A  1       -4.327   6.118  -1.392  0.00  0.00    +0.153 HD
ATOM      3  C   UNK A  0       -2.501   6.498  -2.159  0.00  0.00    +0.401 C 
ATOM      4  O   UNK A  0       -1.902   6.982  -3.099  0.00  0.00    -0.226 OA
ENDROOT
BRANCH   1   5
ATOM      5  C   UNK A  1       -4.592   7.097  -3.258  0.00  0.00    +0.185 C 
BRANCH   5   6
ATOM      6  C   UNK A  1       -4.725   8.582  -3.041  0.00  0.00    +0.325 C 
ATOM      7  O   UNK A  1       -4.249   9.094  -2.055  0.00  0.00    -0.249 OA
BRANCH   6   8
ATOM      8  O   UNK A  1       -5.374   9.336  -3.942  0.00  0.00    -0.479 OA
ATOM      9  H   UNK A  1       -5.743   8.940  -4.706  0.00  0.00    +0.295 HD
ENDBRANCH   6   8
ENDBRANCH   5   6
BRANCH   5  10
ATOM     10  C   UNK A  1       -5.983   6.465  -3.336  0.00  0.00    +0.034 C 
BRANCH  10  11
ATOM     11  C   UNK A  1       -5.851   4.981  -3.680  0.00  0.00    +0.004 C 
BRANCH  11  12
ATOM     12  C   UNK A  1       -7.243   4.349  -3.758  0.00  0.00    +0.019 C 
BRANCH  12  13
ATOM     13  C   UNK A  1       -7.111   2.864  -4.102  0.00  0.00    +0.107 C 
BRANCH  13  15
ATOM     14  C   UNK A  1       -8.574   0.951  -4.469  0.00  0.00    +0.401 C 
ATOM     15  N   UNK A  1       -8.443   2.260  -4.177  0.00  0.00    -0.281 N 
ATOM     16  H   UNK A  1       -9.231   2.802  -4.016  0.00  0.00    +0.152 HD
ATOM     17  O   UNK A  1       -7.586   0.272  -4.670  0.00  0.00    -0.226 OA
BRANCH  14  18
ATOM     18  O   UNK A  1       -9.798   0.395  -4.537  0.00  0.00    -0.445 OA
BRANCH  18  20
ATOM     19  C   UNK A  1       -9.109  -1.818  -3.791  0.00  0.00    +0.055 C 
ATOM     20  C   UNK A  1       -9.863  -1.020  -4.856  0.00  0.00    +0.107 C 
ATOM     21  C   UNK A  1       -9.224  -1.264  -6.225  0.00  0.00    +0.055 C 
ATOM     22  C   UNK A  1      -11.326  -1.468  -4.889  0.00  0.00    +0.055 C 
ENDBRANCH  18  20
ENDBRANCH  14  18
ENDBRANCH  13  15
ENDBRANCH  12  13
ENDBRANCH  11  12
ENDBRANCH  10  11
ENDBRANCH   5  10
ENDBRANCH   1   5
BRANCH   3  23
ATOM     23  O   UNK A  0       -1.818   5.954  -1.134  0.00  0.00    -0.449 OA
BRANCH  23  24
ATOM     24  C   UNK A  0       -0.369   5.982  -1.218  0.00  0.00    +0.246 C 
BRANCH  24  25
ATOM     25  C   UNK A  0        0.227   5.323   0.027  0.00  0.00    +0.088 C 
ATOM     26  C   UNK A  0       -0.064   3.843   0.022  0.00  0.00    -0.029 A 
ATOM     27  C   UNK A  0       -1.245   3.132   0.029  0.00  0.00    +0.005 A 
ATOM     28  C   UNK A  0       -1.221   1.748   0.017  0.00  0.00    +0.000 A 
ATOM     29  C   UNK A  0       -0.013   1.076   0.008  0.00  0.00    +0.001 A 
ATOM     30  C   UNK A  0        1.174   1.779   0.000  0.00  0.00    +0.009 A 
ATOM     31  C   UNK A  0        1.157   3.175   0.008  0.00  0.00    -0.014 A 
ATOM     32  C   UNK A  0        2.262   4.166   0.002  0.00  0.00    -0.014 A 
ATOM     33  C   UNK A  0        3.648   3.998  -0.012  0.00  0.00    +0.009 A 
ATOM     34  C   UNK A  0        4.476   5.101  -0.015  0.00  0.00    +0.001 A 
ATOM     35  C   UNK A  0        3.938   6.376  -0.003  0.00  0.00    +0.000 A 
ATOM     36  C   UNK A  0        2.566   6.550   0.011  0.00  0.00    +0.005 A 
ATOM     37  C   UNK A  0        1.731   5.452   0.014  0.00  0.00    -0.029 A 
ENDBRANCH  24  25
ENDBRANCH  23  24
ENDBRANCH   3  23
TORSDOF 13
