REMARK  Name = ZINC04099031
REMARK                            x       y       z     vdW  Elec       q    Type
REMARK                         _______ _______ _______ _____ _____    ______ ____
ROOT
ATOM      1  C   LIG    1        1.229  -2.186  -0.022  0.00  0.00    +0.145 C 
ENDROOT
BRANCH   1   7
ATOM      2  C   LIG    1        2.710  -5.436  -1.244  0.00  0.00    +0.000 A 
ATOM      3  C   LIG    1        1.602  -6.056  -1.792  0.00  0.00    +0.001 A 
ATOM      4  C   LIG    1        0.373  -5.424  -1.768  0.00  0.00    +0.020 A 
ATOM      5  C   LIG    1        0.252  -4.171  -1.195  0.00  0.00    +0.048 A 
ATOM      6 CL   LIG    1       -1.291  -3.376  -1.165  0.00  0.00    -0.083 Cl
ATOM      7  C   LIG    1        1.360  -3.551  -0.646  0.00  0.00    +0.011 A 
ATOM      8  C   LIG    1        2.589  -4.184  -0.671  0.00  0.00    +0.008 A 
ENDBRANCH   1   7
BRANCH   1   9
ATOM      9  C   LIG    1        2.597  -1.581   0.157  0.00  0.00    -0.007 A 
ATOM     10  C   LIG    1        2.979  -0.498  -0.613  0.00  0.00    +0.008 A 
ATOM     11  C   LIG    1        4.235   0.057  -0.450  0.00  0.00    +0.020 A 
ATOM     12  C   LIG    1        5.109  -0.471   0.484  0.00  0.00    +0.041 A 
ATOM     13 CL   LIG    1        6.686   0.225   0.689  0.00  0.00    -0.084 Cl
ATOM     14  C   LIG    1        4.726  -1.555   1.253  0.00  0.00    +0.020 A 
ATOM     15  C   LIG    1        3.468  -2.106   1.093  0.00  0.00    +0.008 A 
ENDBRANCH   1   9
BRANCH   1  16
ATOM     16  C   LIG    1        0.555  -2.310   1.321  0.00  0.00    +0.029 A 
ATOM     17  C   LIG    1        0.849  -3.368   2.167  0.00  0.00    +0.121 A 
ATOM     18  N   LIG    1        0.238  -3.444   3.338  0.00  0.00    -0.243 NA
ATOM     19  C   LIG    1       -0.639  -2.531   3.703  0.00  0.00    +0.221 A 
ATOM     20  N   LIG    1       -0.943  -1.511   2.925  0.00  0.00    -0.243 NA
ATOM     21  C   LIG    1       -0.368  -1.366   1.742  0.00  0.00    +0.121 A 
ENDBRANCH   1  16
BRANCH   1  22
ATOM     22  O   LIG    1        0.444  -1.347  -0.872  0.00  0.00    -0.375 OA
ATOM     23  H   LIG    1        0.875  -1.121  -1.707  0.00  0.00    +0.211 HD
ENDBRANCH   1  22
TORSDOF 4
