REMARK  Name = ZINC04425506
REMARK                            x       y       z     vdW  Elec       q    Type
REMARK                         _______ _______ _______ _____ _____    ______ ____
ROOT
ATOM      1  C   LIG    1       -2.800  -2.431   0.231  0.00  0.00    +0.078 C 
ATOM      2  C   LIG    1       -2.984  -3.731  -0.085  0.00  0.00    +0.019 C 
ATOM      3  C   LIG    1       -1.789  -4.641  -0.209  0.00  0.00    +0.061 C 
ATOM      4  N   LIG    1       -4.236  -4.235  -0.292  0.00  0.00    -0.300 N 
ATOM      5  H   LIG    1       -4.319  -5.175  -0.517  0.00  0.00    +0.154 HD
ATOM      6  C   LIG    1       -5.354  -3.504  -0.204  0.00  0.00    +0.135 C 
ATOM      7  S   LIG    1       -6.862  -4.262  -0.489  0.00  0.00    -0.019 S 
ATOM      8  N   LIG    1       -5.332  -2.192   0.102  0.00  0.00    -0.315 N 
ATOM      9  H   LIG    1       -6.155  -1.682   0.161  0.00  0.00    +0.149 HD
ATOM     10  C   LIG    1       -4.029  -1.553   0.352  0.00  0.00    +0.141 C 
ENDROOT
BRANCH  10  11
ATOM     11  C   LIG    1       -4.050  -0.971   1.742  0.00  0.00    -0.019 A 
ATOM     12  C   LIG    1       -4.502  -1.734   2.803  0.00  0.00    +0.006 A 
ATOM     13  C   LIG    1       -4.522  -1.203   4.080  0.00  0.00    +0.004 A 
ATOM     14  C   LIG    1       -4.090   0.091   4.298  0.00  0.00    +0.045 A 
ATOM     15  C   LIG    1       -3.636   0.858   3.235  0.00  0.00    +0.117 A 
ATOM     16  C   LIG    1       -3.611   0.321   1.956  0.00  0.00    +0.051 A 
BRANCH  15  17
ATOM     17  O   LIG    1       -3.212   2.132   3.447  0.00  0.00    -0.507 OA
ATOM     18  H   LIG    1       -2.268   2.204   3.645  0.00  0.00    +0.292 HD
ENDBRANCH  15  17
ENDBRANCH  10  11
BRANCH   1  19
ATOM     19  C   LIG    1       -1.504  -1.907   0.447  0.00  0.00    +0.339 C 
ATOM     20  O   LIG    1       -0.543  -2.654   0.474  0.00  0.00    -0.245 OA
BRANCH  19  21
ATOM     21  O   LIG    1       -1.332  -0.581   0.622  0.00  0.00    -0.462 OA
BRANCH  21  23
ATOM     22  C   LIG    1       -0.000   1.398   1.013  0.00  0.00    +0.048 C 
ATOM     23  C   LIG    1        0.004  -0.122   0.835  0.00  0.00    +0.229 C 
ENDBRANCH  21  23
ENDBRANCH  19  21
ENDBRANCH   1  19
TORSDOF 5
