REMARK  Name = ZINC04216004
REMARK                            x       y       z     vdW  Elec       q    Type
REMARK                         _______ _______ _______ _____ _____    ______ ____
ROOT
ATOM      1  C   LIG    1        0.002  -0.004   0.002  0.00  0.00    -0.096 C 
ATOM      2  N   LIG    1       -0.032   1.473  -0.015  0.00  0.00    +0.378 N 
ATOM      3  H   LIG    1       -0.501   1.786  -0.873  0.00  0.00    -0.082 HD
ATOM      4  C   LIG    1        1.346   2.010   0.000  0.00  0.00    -0.072 C 
ATOM      5  C   LIG    1        1.287   3.533  -0.138  0.00  0.00    +0.017 C 
ATOM      6  C   LIG    1        0.493   4.116   1.034  0.00  0.00    +0.022 C 
ATOM      7  C   LIG    1       -0.907   3.496   1.050  0.00  0.00    -0.010 C 
ATOM      8  C   LIG    1       -0.785   1.974   1.154  0.00  0.00    -0.079 C 
ENDROOT
BRANCH   6   9
ATOM      9  C   LIG    1        0.380   5.610   0.872  0.00  0.00    -0.044 A 
ATOM     10  C   LIG    1       -0.233   6.140  -0.249  0.00  0.00    +0.004 A 
ATOM     11  C   LIG    1       -0.340   7.510  -0.395  0.00  0.00    +0.000 A 
ATOM     12  C   LIG    1        0.174   8.351   0.574  0.00  0.00    +0.000 A 
ATOM     13  C   LIG    1        0.792   7.822   1.692  0.00  0.00    +0.000 A 
ATOM     14  C   LIG    1        0.895   6.451   1.841  0.00  0.00    +0.004 A 
ENDBRANCH   6   9
BRANCH   5  15
ATOM     15  C   LIG    1        2.707   4.102  -0.126  0.00  0.00    +0.231 C 
BRANCH  15  16
ATOM     16  O   LIG    1        3.413   3.645  -1.282  0.00  0.00    -0.492 OA
BRANCH  16  17
ATOM     17  C   LIG    1        4.699   4.062  -1.425  0.00  0.00    +0.121 A 
ATOM     18  C   LIG    1        5.266   4.899  -0.475  0.00  0.00    +0.049 A 
ATOM     19  C   LIG    1        6.574   5.320  -0.619  0.00  0.00    +0.049 A 
ATOM     20  C   LIG    1        7.317   4.913  -1.716  0.00  0.00    +0.120 A 
ATOM     21  C   LIG    1        6.748   4.081  -2.669  0.00  0.00    +0.049 A 
ATOM     22  C   LIG    1        5.442   3.656  -2.524  0.00  0.00    +0.049 A 
BRANCH  20  23
ATOM     23  O   LIG    1        8.604   5.330  -1.859  0.00  0.00    -0.495 OA
ATOM     24  C   LIG    1        9.125   6.186  -0.841  0.00  0.00    +0.277 C 
ENDBRANCH  20  23
ENDBRANCH  16  17
ENDBRANCH  15  16
ENDBRANCH   5  15
TORSDOF 5
