REMARK  Name = ZINC04429621
REMARK                            x       y       z     vdW  Elec       q    Type
REMARK                         _______ _______ _______ _____ _____    ______ ____
ROOT
ATOM      1  C   LIG    1        0.680  -0.850   3.776  0.00  0.00    +0.059 C 
ATOM      2  C   LIG    1        2.083  -0.253   3.921  0.00  0.00    +0.009 C 
ATOM      3  C   LIG    1        1.987   1.275   3.862  0.00  0.00    -0.018 C 
ATOM      4  C   LIG    1        1.331   1.689   2.543  0.00  0.00    -0.079 C 
ATOM      5  N   LIG    1       -0.024   1.103   2.476  0.00  0.00    +0.380 N 
ATOM      6  H   LIG    1       -0.555   1.396   3.304  0.00  0.00    -0.082 HD
ATOM      7  C   LIG    1        0.062  -0.373   2.459  0.00  0.00    -0.066 C 
ENDROOT
BRANCH   1  10
ATOM      8  N   LIG    1        1.291  -2.999   4.837  0.00  0.00    -0.285 N 
ATOM      9  H   LIG    1        1.667  -2.494   5.575  0.00  0.00    +0.155 HD
ATOM     10  C   LIG    1        0.771  -2.354   3.774  0.00  0.00    +0.218 C 
ATOM     11  O   LIG    1        0.378  -2.984   2.815  0.00  0.00    -0.275 OA
BRANCH   8  15
ATOM     12  C   LIG    1        1.282  -7.167   4.956  0.00  0.00    +0.121 A 
ATOM     13  C   LIG    1        1.463  -6.508   3.748  0.00  0.00    +0.047 A 
ATOM     14  C   LIG    1        1.465  -5.128   3.708  0.00  0.00    +0.027 A 
ATOM     15  C   LIG    1        1.288  -4.399   4.877  0.00  0.00    +0.034 A 
ATOM     16  C   LIG    1        1.113  -5.060   6.086  0.00  0.00    +0.027 A 
ATOM     17  C   LIG    1        1.104  -6.440   6.123  0.00  0.00    +0.047 A 
BRANCH  12  18
ATOM     18  O   LIG    1        1.279  -8.526   4.994  0.00  0.00    -0.492 OA
BRANCH  18  20
ATOM     19  C   LIG    1        1.115 -10.660   6.116  0.00  0.00    +0.048 C 
ATOM     20  C   LIG    1        1.088  -9.139   6.271  0.00  0.00    +0.225 C 
ENDBRANCH  18  20
ENDBRANCH  12  18
ENDBRANCH   8  15
ENDBRANCH   1  10
BRANCH   5  21
ATOM     21  C   LIG    1       -0.721   1.581   1.264  0.00  0.00    -0.074 C 
BRANCH  21  22
ATOM     22  C   LIG    1       -0.014   1.080   0.004  0.00  0.00    +0.016 C 
BRANCH  22  23
ATOM     23  C   LIG    1       -0.746   1.580  -1.215  0.00  0.00    -0.049 A 
ATOM     24  C   LIG    1       -1.761   0.824  -1.770  0.00  0.00    +0.003 A 
ATOM     25  C   LIG    1       -2.436   1.285  -2.885  0.00  0.00    +0.000 A 
ATOM     26  C   LIG    1       -2.088   2.497  -3.451  0.00  0.00    +0.000 A 
ATOM     27  C   LIG    1       -1.070   3.251  -2.899  0.00  0.00    +0.000 A 
ATOM     28  C   LIG    1       -0.398   2.793  -1.781  0.00  0.00    +0.003 A 
ENDBRANCH  22  23
ENDBRANCH  21  22
ENDBRANCH   5  21
TORSDOF 7
