REMARK  Name = ZINC04377527
REMARK                            x       y       z     vdW  Elec       q    Type
REMARK                         _______ _______ _______ _____ _____    ______ ____
ROOT
ATOM      1  N   LIG    1        1.160   3.489   0.009  0.00  0.00    -0.210 N 
ATOM      2  C   LIG    1        0.029   4.200  -0.069  0.00  0.00    +0.231 C 
ATOM      3  C   LIG    1        0.358   5.675  -0.035  0.00  0.00    +0.095 C 
ATOM      4  C   LIG    1       -0.134   6.254   1.329  0.00  0.00    +0.025 C 
ATOM      5  C   LIG    1        0.977   7.333   1.599  0.00  0.00    +0.016 C 
ATOM      6  C   LIG    1        2.144   6.282   1.527  0.00  0.00    +0.025 C 
ATOM      7  C   LIG    1        1.589   5.209   2.472  0.00  0.00    -0.027 C 
ATOM      8  C   LIG    1        0.256   5.183   2.354  0.00  0.00    -0.027 C 
ATOM      9  C   LIG    1        1.911   5.693   0.078  0.00  0.00    +0.095 C 
ATOM     10  O   LIG    1       -1.086   3.733  -0.154  0.00  0.00    -0.274 OA
ATOM     11  C   LIG    1        2.273   4.225   0.101  0.00  0.00    +0.231 C 
ATOM     12  O   LIG    1        3.399   3.784   0.186  0.00  0.00    -0.274 OA
ENDROOT
BRANCH   1  14
ATOM     13  C   LIG    1        1.561   1.391   1.139  0.00  0.00    +0.044 A 
ATOM     14  C   LIG    1        1.177   2.087   0.002  0.00  0.00    +0.047 A 
ATOM     15  C   LIG    1        0.808   1.394  -1.142  0.00  0.00    +0.044 A 
ATOM     16  C   LIG    1        0.824   0.011  -1.147  0.00  0.00    +0.044 A 
ATOM     17 CL   LIG    1        0.363  -0.857  -2.578  0.00  0.00    -0.083 Cl
ATOM     18  C   LIG    1        1.208  -0.681  -0.012  0.00  0.00    +0.040 A 
ATOM     19  C   LIG    1        1.576   0.009   1.130  0.00  0.00    +0.044 A 
ATOM     20 CL   LIG    1        2.057  -0.863   2.552  0.00  0.00    -0.083 Cl
ENDBRANCH   1  14
TORSDOF 1
