REMARK  Name = ZINC04394094
REMARK                            x       y       z     vdW  Elec       q    Type
REMARK                         _______ _______ _______ _____ _____    ______ ____
ROOT
ATOM      1  C   LIG    1        0.138   1.330  -1.013  0.00  0.00    +0.020 A 
ATOM      2  C   LIG    1        1.272   2.053  -0.712  0.00  0.00    +0.049 A 
ATOM      3  C   LIG    1        2.431   1.398  -0.316  0.00  0.00    +0.158 A 
ATOM      4  C   LIG    1        2.451   0.012  -0.222  0.00  0.00    +0.164 A 
ATOM      5  C   LIG    1        1.321  -0.718  -0.521  0.00  0.00    +0.052 A 
ATOM      6  C   LIG    1        0.154  -0.062  -0.919  0.00  0.00    +0.072 A 
ENDROOT
BRANCH   4   7
ATOM      7  N   LIG    1        3.688  -0.682   0.200  0.00  0.00    +0.010 N 
ATOM      8  O   LIG    1        3.707  -1.889   0.282  0.00  0.00    -0.130 OA
BRANCH   7   9
ATOM      9  O   LIG    1        4.681  -0.043   0.463  0.00  0.00    -0.396 OA
ATOM     10  H   LIG    1        4.666   0.891   0.399  0.00  0.00    +0.329 HD
ENDBRANCH   7   9
ENDBRANCH   4   7
BRANCH   6  11
ATOM     11  C   LIG    1       -1.061  -0.842  -1.240  0.00  0.00    +0.362 C 
ATOM     12  N   LIG    1       -1.044  -2.140  -1.153  0.00  0.00    +0.151 NA
BRANCH  11  13
ATOM     13  N   LIG    1       -2.217  -0.190  -1.635  0.00  0.00    -0.243 N 
ATOM     14  H   LIG    1       -3.014  -0.701  -1.846  0.00  0.00    +0.289 HD
ATOM     15  H   LIG    1       -2.230   0.777  -1.701  0.00  0.00    +0.289 HD
ENDBRANCH  11  13
BRANCH  12  16
ATOM     16  O   LIG    1       -2.207  -2.886  -1.460  0.00  0.00    -0.311 OA
ATOM     17  H   LIG    1       -2.097  -3.842  -1.366  0.00  0.00    +0.361 HD
ENDBRANCH  12  16
ENDBRANCH   6  11
BRANCH   3  18
ATOM     18  O   LIG    1        3.546   2.113  -0.021  0.00  0.00    -0.454 OA
BRANCH  18  19
ATOM     19  C   LIG    1        3.480   3.467  -0.117  0.00  0.00    +0.131 A 
ATOM     20  C   LIG    1        3.100   4.224   0.982  0.00  0.00    +0.066 A 
ATOM     21  C   LIG    1        3.034   5.601   0.881  0.00  0.00    +0.046 A 
ATOM     22 CL   LIG    1        2.558   6.549   2.256  0.00  0.00    -0.083 Cl
ATOM     23  C   LIG    1        3.345   6.225  -0.314  0.00  0.00    +0.040 A 
ATOM     24  C   LIG    1        3.723   5.472  -1.411  0.00  0.00    +0.046 A 
ATOM     25 CL   LIG    1        4.113   6.257  -2.910  0.00  0.00    -0.083 Cl
ATOM     26  C   LIG    1        3.797   4.094  -1.313  0.00  0.00    +0.066 A 
ENDBRANCH  18  19
ENDBRANCH   3  18
TORSDOF 7
