REMARK  Name = ZINC04654927
REMARK                            x       y       z     vdW  Elec       q    Type
REMARK                         _______ _______ _______ _____ _____    ______ ____
ROOT
ATOM      1  C   LIG    1        1.401   1.607  -0.003  0.00  0.00    +0.234 C 
ATOM      2  N   LIG    1        2.336   1.006  -0.765  0.00  0.00    -0.314 N 
ATOM      3  H   LIG    1        2.098   0.237  -1.307  0.00  0.00    +0.149 HD
ATOM      4  O   LIG    1        1.698   2.569   0.675  0.00  0.00    -0.274 OA
ENDROOT
BRANCH   2   5
ATOM      5  C   LIG    1        3.710   1.513  -0.775  0.00  0.00    +0.102 C 
BRANCH   5   6
ATOM      6  C   LIG    1        4.562   0.658  -1.716  0.00  0.00    -0.000 C 
BRANCH   6   7
ATOM      7  C   LIG    1        5.997   1.187  -1.726  0.00  0.00    -0.081 C 
BRANCH   7   8
ATOM      8  N   LIG    1        6.812   0.358  -2.635  0.00  0.00    +0.379 N 
ATOM      9  H   LIG    1        6.801  -0.615  -2.305  0.00  0.00    -0.086 HD
ATOM     10  H   LIG    1        6.416   0.403  -3.581  0.00  0.00    -0.086 HD
BRANCH   8  11
ATOM     11  C   LIG    1        8.203   0.847  -2.665  0.00  0.00    -0.083 C 
BRANCH  11  12
ATOM     12  C   LIG    1        9.022  -0.031  -3.613  0.00  0.00    -0.021 C 
BRANCH  12  13
ATOM     13  C   LIG    1       10.468   0.469  -3.650  0.00  0.00    -0.021 C 
BRANCH  13  14
ATOM     14  C   LIG    1       11.287  -0.409  -4.599  0.00  0.00    -0.083 C 
BRANCH  14  15
ATOM     15  N   LIG    1       12.678   0.080  -4.629  0.00  0.00    +0.379 N 
ATOM     16  H   LIG    1       12.689   1.052  -4.958  0.00  0.00    -0.086 HD
ATOM     17  H   LIG    1       13.074   0.034  -3.683  0.00  0.00    -0.086 HD
BRANCH  15  18
ATOM     18  C   LIG    1       13.493  -0.750  -5.537  0.00  0.00    -0.084 C 
BRANCH  18  19
ATOM     19  C   LIG    1       14.928  -0.220  -5.548  0.00  0.00    -0.039 C 
BRANCH  19  20
ATOM     20  C   LIG    1       15.780  -1.076  -6.488  0.00  0.00    -0.088 C 
BRANCH  20  21
ATOM     21  N   LIG    1       17.165  -0.571  -6.474  0.00  0.00    +0.378 N 
ATOM     22  H   LIG    1       17.545  -0.654  -5.524  0.00  0.00    -0.090 HD
ATOM     23  H   LIG    1       17.182   0.409  -6.754  0.00  0.00    -0.090 HD
ATOM     24  H   LIG    1       17.742  -1.116  -7.112  0.00  0.00    -0.090 HD
ENDBRANCH  20  21
ENDBRANCH  19  20
ENDBRANCH  18  19
ENDBRANCH  15  18
ENDBRANCH  14  15
ENDBRANCH  13  14
ENDBRANCH  12  13
ENDBRANCH  11  12
ENDBRANCH   8  11
ENDBRANCH   7   8
ENDBRANCH   6   7
ENDBRANCH   5   6
ENDBRANCH   2   5
BRANCH   1  25
ATOM     25  C   LIG    1       -0.013   1.086   0.008  0.00  0.00    +0.163 C 
BRANCH  25  27
ATOM     26  C   LIG    1       -0.838   2.880   1.435  0.00  0.00    +0.214 C 
ATOM     27  N   LIG    1       -0.698   1.558   1.213  0.00  0.00    -0.304 N 
ATOM     28  H   LIG    1       -1.052   0.920   1.852  0.00  0.00    +0.149 HD
ATOM     29  O   LIG    1       -0.395   3.679   0.637  0.00  0.00    -0.276 OA
BRANCH  26  30
ATOM     30  C   LIG    1       -1.543   3.366   2.675  0.00  0.00    +0.095 C 
BRANCH  30  32
ATOM     31  C   LIG    1       -2.280   5.390   3.942  0.00  0.00    +0.004 C 
ATOM     32  C   LIG    1       -1.564   4.896   2.683  0.00  0.00    +0.006 C 
ENDBRANCH  30  32
ENDBRANCH  26  30
ENDBRANCH  25  27
BRANCH  25  33
ATOM     33  C   LIG    1       -0.753   1.593  -1.232  0.00  0.00    +0.067 C 
BRANCH  33  34
ATOM     34  C   LIG    1       -2.126   0.973  -1.285  0.00  0.00    -0.045 A 
ATOM     35  C   LIG    1       -2.317  -0.223  -1.951  0.00  0.00    +0.007 A 
ATOM     36  C   LIG    1       -3.574  -0.796  -1.996  0.00  0.00    +0.045 A 
ATOM     37  C   LIG    1       -4.646  -0.164  -1.383  0.00  0.00    +0.117 A 
ATOM     38  C   LIG    1       -4.452   1.040  -0.721  0.00  0.00    +0.045 A 
ATOM     39  C   LIG    1       -3.192   1.606  -0.674  0.00  0.00    +0.007 A 
BRANCH  37  40
ATOM     40  O   LIG    1       -5.884  -0.722  -1.432  0.00  0.00    -0.507 OA
ATOM     41  H   LIG    1       -6.410  -0.445  -2.194  0.00  0.00    +0.292 HD
ENDBRANCH  37  40
ENDBRANCH  33  34
ENDBRANCH  25  33
ENDBRANCH   1  25
TORSDOF 20
