REMARK  Name = ZINC04313037
REMARK                            x       y       z     vdW  Elec       q    Type
REMARK                         _______ _______ _______ _____ _____    ______ ____
ROOT
ATOM      1  C   LIG    1       -5.100   3.835   1.560  0.00  0.00    +0.278 A 
ATOM      2  N   LIG    1       -4.388   4.903   1.291  0.00  0.00    -0.101 NA
ATOM      3  N   LIG    1       -3.146   4.577   1.212  0.00  0.00    -0.113 NA
ATOM      4  C   LIG    1       -3.017   3.298   1.415  0.00  0.00    +0.204 A 
ATOM      5  O   LIG    1       -4.247   2.797   1.644  0.00  0.00    -0.417 OA
ENDROOT
BRANCH   1   6
ATOM      6  S   LIG    1       -6.848   3.771   1.772  0.00  0.00    -0.056 S 
BRANCH   6   7
ATOM      7  C   LIG    1       -7.260   5.515   1.513  0.00  0.00    +0.175 C 
BRANCH   7  10
ATOM      8  N   LIG    1       -9.289   6.930   1.497  0.00  0.00    -0.285 N 
ATOM      9  H   LIG    1       -8.713   7.702   1.378  0.00  0.00    +0.155 HD
ATOM     10  C   LIG    1       -8.749   5.705   1.650  0.00  0.00    +0.228 C 
ATOM     11  O   LIG    1       -9.461   4.755   1.899  0.00  0.00    -0.275 OA
BRANCH   8  17
ATOM     12  C   LIG    1      -11.236   8.311   1.861  0.00  0.00    -0.026 A 
ATOM     13  C   LIG    1      -12.609   8.465   1.873  0.00  0.00    +0.005 A 
ATOM     14  C   LIG    1      -13.428   7.403   1.534  0.00  0.00    +0.000 A 
ATOM     15  C   LIG    1      -12.875   6.185   1.183  0.00  0.00    +0.002 A 
ATOM     16  C   LIG    1      -11.504   6.026   1.165  0.00  0.00    +0.023 A 
ATOM     17  C   LIG    1      -10.679   7.089   1.510  0.00  0.00    +0.037 A 
BRANCH  12  19
ATOM     18  C   LIG    1       -9.908  10.200   0.959  0.00  0.00    +0.009 C 
ATOM     19  C   LIG    1      -10.345   9.469   2.229  0.00  0.00    +0.033 C 
ENDBRANCH  12  19
ENDBRANCH   8  17
ENDBRANCH   7  10
ENDBRANCH   6   7
ENDBRANCH   1   6
BRANCH   4  20
ATOM     20  C   LIG    1       -1.727   2.520   1.404  0.00  0.00    +0.019 C 
BRANCH  20  21
ATOM     21  N   LIG    1       -0.684   3.242   2.155  0.00  0.00    +0.386 N 
ATOM     22  H   LIG    1        0.194   2.712   2.107  0.00  0.00    -0.089 HD
ATOM     23  H   LIG    1       -0.961   3.339   3.131  0.00  0.00    -0.089 HD
ATOM     24  H   LIG    1       -0.538   4.165   1.750  0.00  0.00    -0.089 HD
ENDBRANCH  20  21
BRANCH  20  25
ATOM     25  C   LIG    1       -1.258   2.331  -0.040  0.00  0.00    +0.030 C 
BRANCH  25  26
ATOM     26  C   LIG    1       -0.036   1.450  -0.060  0.00  0.00    -0.023 A 
ATOM     27  C   LIG    1        1.243   1.858  -0.080  0.00  0.00    +0.087 A 
ATOM     28  N   LIG    1        2.078   0.775  -0.100  0.00  0.00    -0.360 N 
ATOM     29  C   LIG    1        1.339  -0.387  -0.092  0.00  0.00    +0.047 A 
ATOM     30  C   LIG    1        1.676  -1.736  -0.104  0.00  0.00    +0.026 A 
ATOM     31  C   LIG    1        0.681  -2.690  -0.091  0.00  0.00    +0.002 A 
ATOM     32  C   LIG    1       -0.656  -2.318  -0.065  0.00  0.00    +0.001 A 
ATOM     33  C   LIG    1       -1.009  -0.998  -0.053  0.00  0.00    +0.010 A 
ATOM     34  H   LIG    1        3.047   0.819  -0.117  0.00  0.00    +0.165 HD
ATOM     35  C   LIG    1       -0.018  -0.015  -0.067  0.00  0.00    +0.003 A 
ENDBRANCH  25  26
ENDBRANCH  20  25
ENDBRANCH   4  20
TORSDOF 9
