REMARK  Name = ZINC04343325
REMARK                            x       y       z     vdW  Elec       q    Type
REMARK                         _______ _______ _______ _____ _____    ______ ____
ROOT
ATOM      1  N   LIG    1       -1.824  -0.799  -1.365  0.00  0.00    -0.186 NA
ATOM      2  H   LIG    1       -1.381  -1.345  -2.033  0.00  0.00    +0.148 HD
ENDROOT
BRANCH   1  11
ATOM      3  C   LIG    1        0.445   1.209  -0.133  0.00  0.00    +0.013 C 
ATOM      4  C   LIG    1        0.197  -0.296  -0.011  0.00  0.00    -0.014 C 
ATOM      5  C   LIG    1        0.882  -1.189  -1.091  0.00  0.00    +0.008 C 
ATOM      6  C   LIG    1        0.912  -2.603  -0.466  0.00  0.00    +0.005 C 
ATOM      7  C   LIG    1        0.243  -2.430   0.932  0.00  0.00    -0.003 C 
ATOM      8  C   LIG    1       -1.266  -2.193   0.616  0.00  0.00    -0.015 C 
ATOM      9  C   LIG    1       -2.092  -2.228   1.903  0.00  0.00    +0.013 C 
ATOM     10  C   LIG    1       -1.774  -3.241  -0.376  0.00  0.00    +0.013 C 
ATOM     11  C   LIG    1       -1.297  -0.741   0.001  0.00  0.00    +0.088 C 
ATOM     12  C   LIG    1        0.714  -0.980   1.303  0.00  0.00    +0.012 C 
ENDBRANCH   1  11
BRANCH   1  13
ATOM     13  S   LIG    1       -3.177   0.067  -1.768  0.00  0.00    +0.059 S 
ATOM     14  O   LIG    1       -4.148  -0.206  -0.767  0.00  0.00    -0.153 OA
ATOM     15  O   LIG    1       -3.416  -0.173  -3.148  0.00  0.00    -0.153 OA
BRANCH  13  16
ATOM     16  C   LIG    1       -2.766   1.774  -1.618  0.00  0.00    +0.105 A 
ATOM     17  C   LIG    1       -2.951   2.425  -0.412  0.00  0.00    +0.031 A 
ATOM     18  C   LIG    1       -2.629   3.764  -0.293  0.00  0.00    +0.040 A 
ATOM     19  C   LIG    1       -2.120   4.453  -1.381  0.00  0.00    +0.124 A 
ATOM     20  F   LIG    1       -1.805   5.761  -1.266  0.00  0.00    -0.205 F 
ATOM     21  C   LIG    1       -1.935   3.799  -2.588  0.00  0.00    +0.040 A 
ATOM     22  C   LIG    1       -2.253   2.459  -2.703  0.00  0.00    +0.031 A 
ENDBRANCH  13  16
ENDBRANCH   1  13
TORSDOF 3
