REMARK  Name = ZINC04214700
REMARK                            x       y       z     vdW  Elec       q    Type
REMARK                         _______ _______ _______ _____ _____    ______ ____
ROOT
ATOM      1  N   LIG    1       -4.303   0.829  -1.425  0.00  0.00    +0.380 N 
ATOM      2  H   LIG    1       -4.941   0.342  -0.815  0.00  0.00    -0.082 HD
ATOM      3  C   LIG    1       -4.120   2.203  -0.942  0.00  0.00    -0.078 C 
ATOM      4  C   LIG    1       -5.478   2.903  -0.860  0.00  0.00    -0.009 C 
ATOM      5  C   LIG    1       -6.117   2.930  -2.251  0.00  0.00    +0.038 C 
ATOM      6  C   LIG    1       -6.235   1.496  -2.776  0.00  0.00    -0.009 C 
ATOM      7  C   LIG    1       -4.849   0.848  -2.788  0.00  0.00    -0.078 C 
ENDROOT
BRANCH   5   8
ATOM      8  C   LIG    1       -7.489   3.548  -2.163  0.00  0.00    +0.094 A 
ATOM      9  C   LIG    1       -7.945   4.750  -2.868  0.00  0.00    +0.045 A 
ATOM     10  C   LIG    1       -7.336   5.635  -3.760  0.00  0.00    +0.016 A 
ATOM     11  C   LIG    1       -8.044   6.692  -4.258  0.00  0.00    +0.039 A 
ATOM     12  C   LIG    1       -9.367   6.894  -3.882  0.00  0.00    +0.127 A 
ATOM     13  F   LIG    1      -10.053   7.945  -4.383  0.00  0.00    -0.205 F 
ATOM     14  C   LIG    1       -9.986   6.030  -3.002  0.00  0.00    +0.088 A 
ATOM     15  C   LIG    1       -9.282   4.950  -2.485  0.00  0.00    +0.170 A 
ATOM     16  O   LIG    1       -9.602   3.959  -1.629  0.00  0.00    -0.354 OA
ATOM     17  N   LIG    1       -8.485   3.111  -1.455  0.00  0.00    -0.082 NA
ENDBRANCH   5   8
BRANCH   1  18
ATOM     18  C   LIG    1       -3.007   0.136  -1.429  0.00  0.00    -0.074 C 
BRANCH  18  19
ATOM     19  C   LIG    1       -2.495   0.005   0.007  0.00  0.00    +0.024 C 
BRANCH  19  22
ATOM     20  C   LIG    1       -0.018   1.503   0.010  0.00  0.00    +0.066 C 
ATOM     21  C   LIG    1        0.002  -0.004   0.002  0.00  0.00    +0.049 A 
ATOM     22  C   LIG    1       -1.166  -0.705   0.004  0.00  0.00    +0.036 A 
ATOM     23  C   LIG    1       -1.098  -2.110   0.003  0.00  0.00    +0.257 A 
ATOM     24  N   LIG    1        0.117  -2.718   0.008  0.00  0.00    -0.294 N 
ATOM     25  C   LIG    1        1.232  -1.972  -0.013  0.00  0.00    +0.141 A 
ATOM     26  C   LIG    1        2.615  -2.575  -0.054  0.00  0.00    +0.180 C 
ATOM     27  C   LIG    1        2.576  -4.040   0.375  0.00  0.00    +0.041 C 
ATOM     28  C   LIG    1        1.465  -4.738  -0.421  0.00  0.00    +0.025 C 
ATOM     29  C   LIG    1        0.123  -4.181   0.044  0.00  0.00    +0.127 C 
ATOM     30  O   LIG    1       -2.119  -2.776  -0.004  0.00  0.00    -0.267 OA
ATOM     31  N   LIG    1        1.161  -0.658  -0.013  0.00  0.00    -0.236 NA
BRANCH  26  32
ATOM     32  O   LIG    1        3.472  -1.849   0.829  0.00  0.00    -0.384 OA
ATOM     33  H   LIG    1        3.561  -0.911   0.609  0.00  0.00    +0.210 HD
ENDBRANCH  26  32
ENDBRANCH  19  22
ENDBRANCH  18  19
ENDBRANCH   1  18
TORSDOF 5
