REMARK  Name = ZINC04474460
REMARK                            x       y       z     vdW  Elec       q    Type
REMARK                         _______ _______ _______ _____ _____    ______ ____
ROOT
ATOM      1  C   LIG    1        0.883  -0.812   1.272  0.00  0.00    -0.002 C 
ATOM      2  C   LIG    1        1.313  -2.300   1.365  0.00  0.00    +0.005 C 
ATOM      3  C   LIG    1        2.864  -2.299   1.478  0.00  0.00    +0.009 C 
ATOM      4  C   LIG    1        3.160  -0.913   2.055  0.00  0.00    +0.021 C 
ATOM      5  C   LIG    1        4.532  -0.360   1.806  0.00  0.00    -0.066 C 
ATOM      6  C   LIG    1        5.519  -1.099   1.300  0.00  0.00    -0.000 C 
ATOM      7  C   LIG    1        4.706   1.117   2.166  0.00  0.00    +0.031 C 
ATOM      8  C   LIG    1        3.588   1.966   1.565  0.00  0.00    +0.005 C 
ATOM      9  C   LIG    1        2.201   1.360   1.837  0.00  0.00    +0.008 C 
ATOM     10  C   LIG    1        2.183  -0.024   1.232  0.00  0.00    -0.022 C 
ATOM     11  C   LIG    1        2.678   0.062  -0.213  0.00  0.00    +0.012 C 
ENDROOT
BRANCH   6  12
ATOM     12  C   LIG    1        6.839  -0.504   1.078  0.00  0.00    +0.004 C 
ATOM     13  C   LIG    1        7.838  -1.252   0.566  0.00  0.00    -0.042 C 
ATOM     14  C   LIG    1        9.220  -0.676   0.328  0.00  0.00    +0.066 C 
ATOM     15  C   LIG    1        9.681  -1.093  -1.073  0.00  0.00    +0.119 C 
ATOM     16  C   LIG    1        9.675  -2.617  -1.188  0.00  0.00    +0.036 C 
ATOM     17  C   LIG    1        8.237  -3.139  -1.101  0.00  0.00    +0.037 C 
ATOM     18  C   LIG    1        7.641  -2.674   0.217  0.00  0.00    -0.051 C 
ATOM     19  C   LIG    1        6.971  -3.504   1.017  0.00  0.00    +0.012 C 
BRANCH  15  20
ATOM     20  O   LIG    1       11.005  -0.605  -1.301  0.00  0.00    -0.391 OA
ATOM     21  H   LIG    1       11.085   0.357  -1.248  0.00  0.00    +0.210 HD
ENDBRANCH  15  20
ENDBRANCH   6  12
BRANCH   1  23
ATOM     22  C   LIG    1       -0.277   0.913  -0.114  0.00  0.00    +0.008 C 
ATOM     23  C   LIG    1        0.077  -0.572  -0.006  0.00  0.00    -0.010 C 
BRANCH  23  24
ATOM     24  C   LIG    1       -1.209  -1.400   0.038  0.00  0.00    +0.003 C 
BRANCH  24  25
ATOM     25  C   LIG    1       -1.954  -1.257  -1.291  0.00  0.00    +0.001 C 
BRANCH  25  26
ATOM     26  C   LIG    1       -3.240  -2.085  -1.246  0.00  0.00    +0.003 C 
BRANCH  26  27
ATOM     27  C   LIG    1       -3.985  -1.942  -2.575  0.00  0.00    -0.017 C 
ATOM     28  C   LIG    1       -4.443  -0.493  -2.749  0.00  0.00    +0.007 C 
ATOM     29  C   LIG    1       -5.204  -2.867  -2.578  0.00  0.00    +0.007 C 
ENDBRANCH  26  27
ENDBRANCH  25  26
ENDBRANCH  24  25
ENDBRANCH  23  24
ENDBRANCH   1  23
TORSDOF 7
