REMARK  Name = ZINC04164578
REMARK                            x       y       z     vdW  Elec       q    Type
REMARK                         _______ _______ _______ _____ _____    ______ ____
ROOT
ATOM      1  C   LIG    1        2.170  -4.535   3.998  0.00  0.00    +0.182 C 
ATOM      2  C   LIG    1        1.384  -5.252   5.126  0.00  0.00    +0.038 C 
ATOM      3  C   LIG    1       -0.121  -5.145   4.887  0.00  0.00    +0.012 C 
ATOM      4  C   LIG    1        1.835  -6.742   5.096  0.00  0.00    +0.012 C 
ATOM      5  C   LIG    1        3.210  -6.623   4.427  0.00  0.00    +0.006 C 
ATOM      6  C   LIG    1        3.933  -7.861   4.025  0.00  0.00    +0.034 C 
ATOM      7  C   LIG    1        3.143  -8.876   3.211  0.00  0.00    +0.011 C 
ATOM      8  C   LIG    1        3.876 -10.217   3.339  0.00  0.00    +0.032 C 
ATOM      9  C   LIG    1        5.365 -10.026   3.205  0.00  0.00    -0.053 C 
ATOM     10  C   LIG    1        6.111 -11.146   3.279  0.00  0.00    +0.051 C 
ATOM     11  C   LIG    1        7.584 -11.028   3.241  0.00  0.00    +0.179 C 
ATOM     12  C   LIG    1        8.156  -9.733   3.681  0.00  0.00    +0.047 C 
ATOM     13  C   LIG    1        7.400  -8.633   3.584  0.00  0.00    -0.009 C 
ATOM     14  O   LIG    1        8.302 -11.958   2.901  0.00  0.00    -0.288 OA
ATOM     15  C   LIG    1        6.031  -8.715   2.962  0.00  0.00    +0.044 C 
ATOM     16  C   LIG    1        6.347  -8.728   1.466  0.00  0.00    +0.023 C 
ATOM     17  C   LIG    1        5.213  -7.489   3.259  0.00  0.00    +0.153 C 
ATOM     18  F   LIG    1        5.984  -6.739   4.186  0.00  0.00    -0.238 F 
ATOM     19  C   LIG    1        4.942  -6.551   2.103  0.00  0.00    +0.154 C 
ATOM     20  C   LIG    1        4.186  -5.288   2.564  0.00  0.00    +0.045 C 
ATOM     21  C   LIG    1        2.902  -5.670   3.255  0.00  0.00    +0.021 C 
ATOM     22  C   LIG    1        1.900  -6.259   2.260  0.00  0.00    +0.016 C 
ENDROOT
BRANCH   1  23
ATOM     23  C   LIG    1        1.225  -3.837   3.059  0.00  0.00    +0.214 C 
ATOM     24  O   LIG    1        0.281  -4.433   2.599  0.00  0.00    -0.289 OA
BRANCH  23  25
ATOM     25  C   LIG    1        1.456  -2.393   2.693  0.00  0.00    +0.310 C 
BRANCH  25  26
ATOM     26  O   LIG    1        0.511  -1.997   1.697  0.00  0.00    -0.457 OA
BRANCH  26  27
ATOM     27  C   LIG    1        0.583  -0.730   1.259  0.00  0.00    +0.307 C 
ATOM     28  O   LIG    1        1.420   0.017   1.706  0.00  0.00    -0.251 OA
BRANCH  27  30
ATOM     29  C   LIG    1       -0.087   1.226  -0.110  0.00  0.00    +0.015 C 
ATOM     30  C   LIG    1       -0.382  -0.241   0.209  0.00  0.00    +0.117 C 
ENDBRANCH  27  30
ENDBRANCH  26  27
ENDBRANCH  25  26
ENDBRANCH  23  25
ENDBRANCH   1  23
BRANCH  19  31
ATOM     31  O   LIG    1        4.220  -7.154   1.037  0.00  0.00    -0.389 OA
ATOM     32  H   LIG    1        4.110  -6.583   0.265  0.00  0.00    +0.210 HD
ENDBRANCH  19  31
BRANCH   1  33
ATOM     33  O   LIG    1        3.113  -3.618   4.546  0.00  0.00    -0.449 OA
BRANCH  33  34
ATOM     34  C   LIG    1        2.632  -2.658   5.351  0.00  0.00    +0.308 C 
ATOM     35  O   LIG    1        1.462  -2.652   5.652  0.00  0.00    -0.251 OA
BRANCH  34  36
ATOM     36  C   LIG    1        3.552  -1.587   5.879  0.00  0.00    +0.117 C 
ATOM     37  C   LIG    1        2.758  -0.625   6.765  0.00  0.00    +0.015 C 
ENDBRANCH  34  36
ENDBRANCH  33  34
ENDBRANCH   1  33
TORSDOF 9
