REMARK  Name = ZINC04098166
REMARK                            x       y       z     vdW  Elec       q    Type
REMARK                         _______ _______ _______ _____ _____    ______ ____
ROOT
ATOM      1  C   LIG    1        0.915  -0.161  -2.247  0.00  0.00    +0.075 C 
ATOM      2  C   LIG    1        1.924   0.033  -1.084  0.00  0.00    +0.225 C 
ATOM      3  C   LIG    1        1.580   1.354  -0.393  0.00  0.00    +0.230 C 
ATOM      4  C   LIG    1        1.471   2.527  -1.362  0.00  0.00    +0.080 C 
ATOM      5  C   LIG    1        0.488   3.562  -0.811  0.00  0.00    +0.021 C 
ATOM      6  C   LIG    1        1.123   2.230  -2.809  0.00  0.00    +0.094 C 
ATOM      7  C   LIG    1        1.951   3.257  -3.623  0.00  0.00    +0.071 C 
ATOM      8  C   LIG    1        3.256   3.424  -2.813  0.00  0.00    +0.166 C 
ATOM      9  O   LIG    1        3.281   4.428  -1.792  0.00  0.00    -0.352 OA
ATOM     10  C   LIG    1        2.900   3.113  -1.354  0.00  0.00    +0.203 C 
ATOM     11  C   LIG    1        3.656   2.216  -0.403  0.00  0.00    +0.343 C 
ATOM     12  O   LIG    1        4.844   1.997  -0.393  0.00  0.00    -0.247 OA
ATOM     13  O   LIG    1        2.711   1.701   0.453  0.00  0.00    -0.455 OA
ATOM     14  O   LIG    1        3.201   0.167  -1.730  0.00  0.00    -0.457 OA
ATOM     15  C   LIG    1        3.054   0.651  -2.975  0.00  0.00    +0.314 C 
ATOM     16  O   LIG    1        3.952   0.908  -3.740  0.00  0.00    -0.250 OA
ATOM     17  C   LIG    1        1.570   0.821  -3.261  0.00  0.00    +0.141 C 
ENDROOT
BRANCH   1  19
ATOM     18  C   LIG    1       -1.669  -0.527  -2.295  0.00  0.00    +0.039 C 
ATOM     19  C   LIG    1       -0.473   0.280  -1.861  0.00  0.00    -0.072 C 
ATOM     20  C   LIG    1       -0.640   1.366  -1.147  0.00  0.00    +0.008 C 
ENDBRANCH   1  19
BRANCH   6  21
ATOM     21  O   LIG    1       -0.277   2.416  -3.024  0.00  0.00    -0.387 OA
ATOM     22  H   LIG    1       -0.562   2.241  -3.931  0.00  0.00    +0.210 HD
ENDBRANCH   6  21
TORSDOF 2
