REMARK  Name = ZINC04283529
REMARK                            x       y       z     vdW  Elec       q    Type
REMARK                         _______ _______ _______ _____ _____    ______ ____
ROOT
ATOM      1  C   LIG    1        3.711  -0.707  -0.038  0.00  0.00    +0.007 C 
ENDROOT
BRANCH   1   5
ATOM      2  C   LIG    1        0.200   1.657   0.536  0.00  0.00    +0.000 A 
ATOM      3  C   LIG    1        1.439   2.265   0.466  0.00  0.00    +0.000 A 
ATOM      4  C   LIG    1        2.575   1.500   0.280  0.00  0.00    +0.003 A 
ATOM      5  C   LIG    1        2.472   0.127   0.164  0.00  0.00    -0.050 A 
ATOM      6  C   LIG    1        1.233  -0.482   0.234  0.00  0.00    +0.003 A 
ATOM      7  C   LIG    1        0.097   0.283   0.420  0.00  0.00    +0.000 A 
ENDBRANCH   1   5
BRANCH   1   8
ATOM      8  C   LIG    1        4.314  -1.044   1.302  0.00  0.00    -0.050 A 
ATOM      9  C   LIG    1        4.170  -0.170   2.364  0.00  0.00    +0.003 A 
ATOM     10  C   LIG    1        4.719  -0.481   3.594  0.00  0.00    +0.000 A 
ATOM     11  C   LIG    1        5.421  -1.660   3.759  0.00  0.00    +0.000 A 
ATOM     12  C   LIG    1        5.571  -2.531   2.695  0.00  0.00    +0.000 A 
ATOM     13  C   LIG    1        5.017  -2.222   1.467  0.00  0.00    +0.003 A 
ENDBRANCH   1   8
BRANCH   1  14
ATOM     14  C   LIG    1        4.710   0.068  -0.858  0.00  0.00    -0.050 A 
ATOM     15  C   LIG    1        5.580   0.946  -0.239  0.00  0.00    +0.003 A 
ATOM     16  C   LIG    1        6.499   1.653  -0.991  0.00  0.00    +0.000 A 
ATOM     17  C   LIG    1        6.542   1.490  -2.363  0.00  0.00    +0.000 A 
ATOM     18  C   LIG    1        5.668   0.616  -2.983  0.00  0.00    +0.000 A 
ATOM     19  C   LIG    1        4.753  -0.096  -2.230  0.00  0.00    +0.003 A 
ENDBRANCH   1  14
BRANCH   1  20
ATOM     20  N   LIG    1        3.380  -1.959  -0.741  0.00  0.00    +0.390 N 
ATOM     21  H   LIG    1        4.230  -2.526  -0.839  0.00  0.00    -0.088 HD
ATOM     22  H   LIG    1        3.010  -1.751  -1.668  0.00  0.00    -0.088 HD
ATOM     23  H   LIG    1        2.688  -2.485  -0.210  0.00  0.00    -0.088 HD
ENDBRANCH   1  20
TORSDOF 4
