REMARK  Name = ZINC04660857
REMARK                            x       y       z     vdW  Elec       q    Type
REMARK                         _______ _______ _______ _____ _____    ______ ____
ROOT
ATOM      1  C   LIG    1        0.762  -2.018   1.233  0.00  0.00    +0.120 A 
ATOM      2  C   LIG    1        1.736  -2.784   0.667  0.00  0.00    +0.108 A 
ATOM      3  C   LIG    1        1.332  -4.184   0.907  0.00  0.00    +0.036 A 
ATOM      4  C   LIG    1        1.883  -5.420   0.588  0.00  0.00    +0.037 A 
ATOM      5  C   LIG    1        1.230  -6.580   0.971  0.00  0.00    +0.049 A 
ATOM      6  C   LIG    1        0.029  -6.504   1.672  0.00  0.00    +0.028 A 
ATOM      7  C   LIG    1       -0.521  -5.282   1.990  0.00  0.00    +0.049 A 
ATOM      8  C   LIG    1        0.122  -4.109   1.613  0.00  0.00    +0.136 A 
ATOM      9  O   LIG    1       -0.169  -2.802   1.786  0.00  0.00    -0.459 OA
ENDROOT
BRANCH   2  10
ATOM     10  C   LIG    1        2.937  -2.315  -0.036  0.00  0.00    +0.343 C 
ATOM     11  O   LIG    1        3.965  -2.119   0.582  0.00  0.00    -0.245 OA
BRANCH  10  12
ATOM     12  O   LIG    1        2.900  -2.103  -1.367  0.00  0.00    -0.461 OA
BRANCH  12  13
ATOM     13  C   LIG    1        4.104  -1.648  -1.985  0.00  0.00    +0.229 C 
ATOM     14  C   LIG    1        3.870  -1.465  -3.486  0.00  0.00    +0.048 C 
ENDBRANCH  12  13
ENDBRANCH  10  12
ENDBRANCH   2  10
BRANCH   5  15
ATOM     15  N   LIG    1        1.777  -7.828   0.655  0.00  0.00    -0.216 N 
ATOM     16  H   LIG    1        2.626  -7.882   0.159  0.00  0.00    +0.174 HD
BRANCH  15  17
ATOM     17  S   LIG    1        0.997  -9.214   1.113  0.00  0.00    +0.073 S 
ATOM     18  O   LIG    1       -0.221  -9.256   0.382  0.00  0.00    -0.150 OA
ATOM     19  O   LIG    1        1.035  -9.251   2.533  0.00  0.00    -0.150 OA
BRANCH  17  20
ATOM     20  C   LIG    1        1.970 -10.571   0.548  0.00  0.00    +0.112 A 
ATOM     21  C   LIG    1        2.557 -11.427   1.461  0.00  0.00    +0.032 A 
ATOM     22  C   LIG    1        3.320 -12.491   1.018  0.00  0.00    -0.049 A 
ATOM     23  C   LIG    1        3.962 -13.424   2.012  0.00  0.00    +0.044 C 
ATOM     24  C   LIG    1        3.495 -12.699  -0.338  0.00  0.00    +0.004 A 
ATOM     25  C   LIG    1        2.907 -11.844  -1.250  0.00  0.00    +0.005 A 
ATOM     26  C   LIG    1        2.140 -10.782  -0.807  0.00  0.00    -0.024 A 
ATOM     27  C   LIG    1        1.494  -9.852  -1.802  0.00  0.00    +0.046 C 
ENDBRANCH  17  20
ENDBRANCH  15  17
ENDBRANCH   5  15
BRANCH   1  28
ATOM     28  C   LIG    1        0.742  -0.511   1.242  0.00  0.00    +0.075 C 
BRANCH  28  30
ATOM     29  C   LIG    1       -0.019   1.526   0.010  0.00  0.00    +0.004 C 
ATOM     30  C   LIG    1        0.002  -0.004   0.002  0.00  0.00    +0.004 C 
ENDBRANCH  28  30
ENDBRANCH   1  28
TORSDOF 8
