REMARK  Name = ZINC04353330
REMARK                            x       y       z     vdW  Elec       q    Type
REMARK                         _______ _______ _______ _____ _____    ______ ____
ROOT
ATOM      1  C   LIG    1       -4.352   1.076  -4.563  0.00  0.00    +0.001 A 
ATOM      2  C   LIG    1       -3.940   2.240  -5.183  0.00  0.00    +0.001 A 
ATOM      3  C   LIG    1       -2.859   2.953  -4.689  0.00  0.00    +0.012 A 
ATOM      4  C   LIG    1       -2.187   2.494  -3.562  0.00  0.00    +0.036 A 
ATOM      5  C   LIG    1       -2.607   1.310  -2.931  0.00  0.00    +0.029 A 
ATOM      6  C   LIG    1       -1.881   0.825  -1.736  0.00  0.00    +0.174 C 
ATOM      7  O   LIG    1       -2.232  -0.201  -1.185  0.00  0.00    -0.291 OA
ATOM      8  C   LIG    1       -0.742   1.585  -1.213  0.00  0.00    +0.134 C 
ATOM      9  C   LIG    1       -0.333   2.722  -1.813  0.00  0.00    +0.213 C 
ATOM     10  O   LIG    1        0.726   3.400  -1.312  0.00  0.00    -0.288 OA
ATOM     11  C   LIG    1       -1.031   3.236  -3.015  0.00  0.00    +0.229 C 
ATOM     12  O   LIG    1       -0.655   4.261  -3.548  0.00  0.00    -0.284 OA
ATOM     13  C   LIG    1       -3.691   0.606  -3.439  0.00  0.00    +0.012 A 
ENDROOT
BRANCH   8  14
ATOM     14  C   LIG    1       -0.013   1.086   0.008  0.00  0.00    +0.019 C 
BRANCH  14  15
ATOM     15  C   LIG    1       -0.729   1.579   1.267  0.00  0.00    +0.001 C 
BRANCH  15  16
ATOM     16  C   LIG    1        0.011   1.072   2.506  0.00  0.00    +0.003 C 
BRANCH  16  17
ATOM     17  C   LIG    1       -0.705   1.566   3.765  0.00  0.00    -0.011 C 
ATOM     18  C   LIG    1       -2.098   0.936   3.840  0.00  0.00    +0.004 C 
ATOM     19  C   LIG    1       -2.814   1.430   5.098  0.00  0.00    +0.004 C 
ATOM     20  C   LIG    1       -2.006   1.029   6.335  0.00  0.00    -0.008 C 
ATOM     21  C   LIG    1       -2.722   1.523   7.593  0.00  0.00    +0.004 C 
ATOM     22  C   LIG    1       -2.853   3.046   7.542  0.00  0.00    +0.000 C 
ATOM     23  C   LIG    1       -1.461   3.675   7.467  0.00  0.00    +0.000 C 
ATOM     24  C   LIG    1       -0.745   3.182   6.208  0.00  0.00    +0.004 C 
ATOM     25  C   LIG    1       -0.614   1.659   6.260  0.00  0.00    -0.008 C 
ATOM     26  C   LIG    1        0.102   1.165   5.001  0.00  0.00    +0.007 C 
ENDBRANCH  16  17
ENDBRANCH  15  16
ENDBRANCH  14  15
ENDBRANCH   8  14
TORSDOF 4
