REMARK  Name = ZINC04475116
REMARK                            x       y       z     vdW  Elec       q    Type
REMARK                         _______ _______ _______ _____ _____    ______ ____
ROOT
ATOM      1  C   LIG    1        0.596  -3.135  -0.019  0.00  0.00    +0.254 C 
ATOM      2  C   LIG    1        0.177  -3.493  -1.463  0.00  0.00    +0.196 C 
ATOM      3  C   LIG    1        0.106  -5.036  -1.461  0.00  0.00    +0.185 C 
ATOM      4  C   LIG    1        0.489  -5.428  -0.017  0.00  0.00    +0.237 C 
ATOM      5  O   LIG    1        1.266  -4.314   0.476  0.00  0.00    -0.339 OA
ENDROOT
BRANCH   1  11
ATOM      6  C   LIG    1       -0.016   1.312   0.009  0.00  0.00    +0.225 A 
ATOM      7  N   LIG    1        1.089   2.036   0.003  0.00  0.00    -0.219 NA
ATOM      8  C   LIG    1        2.288   1.462  -0.012  0.00  0.00    +0.147 A 
ATOM      9  C   LIG    1        2.358   0.059  -0.020  0.00  0.00    +0.147 A 
ATOM     10  C   LIG    1        1.155  -0.666  -0.013  0.00  0.00    +0.167 A 
ATOM     11  N   LIG    1        1.511  -1.991  -0.023  0.00  0.00    -0.285 N 
ATOM     12  C   LIG    1        2.873  -2.048  -0.036  0.00  0.00    +0.203 A 
ATOM     13  N   LIG    1        3.368  -0.844  -0.034  0.00  0.00    -0.231 NA
ATOM     14  N   LIG    1        0.002  -0.004   0.002  0.00  0.00    -0.216 NA
BRANCH   8  15
ATOM     15  N   LIG    1        3.439   2.229  -0.019  0.00  0.00    -0.341 N 
ATOM     16  H   LIG    1        4.309   1.799  -0.030  0.00  0.00    +0.144 HD
ATOM     17  H   LIG    1        3.377   3.197  -0.014  0.00  0.00    +0.144 HD
ENDBRANCH   8  15
ENDBRANCH   1  11
BRANCH   4  18
ATOM     18  C   LIG    1        1.315  -6.689  -0.016  0.00  0.00    +0.245 C 
ATOM     19  N   LIG    1        0.771  -7.850  -0.431  0.00  0.00    -0.310 N 
ATOM     20  H   LIG    1       -0.151  -7.875  -0.729  0.00  0.00    +0.149 HD
ATOM     21  O   LIG    1        2.468  -6.658   0.357  0.00  0.00    -0.273 OA
BRANCH  19  22
ATOM     22  C   LIG    1        1.574  -9.076  -0.431  0.00  0.00    +0.073 C 
ATOM     23  C   LIG    1        1.471  -9.988  -1.655  0.00  0.00    +0.024 C 
ATOM     24  C   LIG    1        0.829 -10.408  -0.332  0.00  0.00    +0.024 C 
ENDBRANCH  19  22
ENDBRANCH   4  18
BRANCH   2  25
ATOM     25  O   LIG    1       -1.100  -2.930  -1.768  0.00  0.00    -0.385 OA
ATOM     26  H   LIG    1       -1.411  -3.124  -2.663  0.00  0.00    +0.210 HD
ENDBRANCH   2  25
BRANCH   3  27
ATOM     27  O   LIG    1       -1.219  -5.476  -1.767  0.00  0.00    -0.386 OA
ATOM     28  H   LIG    1       -1.321  -6.438  -1.779  0.00  0.00    +0.210 HD
ENDBRANCH   3  27
TORSDOF 6
