REMARK  Name = ZINC04229755
REMARK                            x       y       z     vdW  Elec       q    Type
REMARK                         _______ _______ _______ _____ _____    ______ ____
ROOT
ATOM      1  N   LIG    1       -2.446  -2.777   0.011  0.00  0.00    -0.218 N 
ATOM      2  H   LIG    1       -3.293  -2.305   0.022  0.00  0.00    +0.176 HD
ENDROOT
BRANCH   1   4
ATOM      3  C   LIG    1       -1.263  -0.761   0.011  0.00  0.00    +0.138 C 
ATOM      4  N   LIG    1       -1.243  -2.058   0.003  0.00  0.00    -0.188 NA
BRANCH   3  10
ATOM      5  C   LIG    1       -0.017   1.393   0.010  0.00  0.00    +0.013 A 
ATOM      6  C   LIG    1        1.168   2.096   0.002  0.00  0.00    +0.046 A 
ATOM      7  C   LIG    1        2.380   1.418  -0.013  0.00  0.00    +0.117 A 
ATOM      8  C   LIG    1        2.404   0.029  -0.021  0.00  0.00    +0.046 A 
ATOM      9  C   LIG    1        1.224  -0.682  -0.014  0.00  0.00    +0.013 A 
ATOM     10  C   LIG    1        0.002  -0.004   0.002  0.00  0.00    -0.005 A 
BRANCH   7  11
ATOM     11  O   LIG    1        3.546   2.115  -0.021  0.00  0.00    -0.507 OA
ATOM     12  H   LIG    1        3.893   2.313   0.860  0.00  0.00    +0.292 HD
ENDBRANCH   7  11
ENDBRANCH   3  10
ENDBRANCH   1   4
BRANCH   1  13
ATOM     13  C   LIG    1       -2.425  -4.125   0.004  0.00  0.00    +0.150 C 
ATOM     14  S   LIG    1       -3.894  -5.004   0.014  0.00  0.00    -0.017 S 
BRANCH  13  15
ATOM     15  N   LIG    1       -1.248  -4.781  -0.011  0.00  0.00    -0.322 N 
ATOM     16  H   LIG    1       -0.415  -4.283  -0.017  0.00  0.00    +0.148 HD
BRANCH  15  17
ATOM     17  C   LIG    1       -1.225  -6.246  -0.019  0.00  0.00    +0.072 C 
ATOM     18  C   LIG    1       -1.358  -6.750  -1.458  0.00  0.00    +0.022 C 
ATOM     19  C   LIG    1       -1.334  -8.280  -1.466  0.00  0.00    +0.002 C 
ATOM     20  C   LIG    1       -0.013  -8.773  -0.872  0.00  0.00    +0.000 C 
ATOM     21  C   LIG    1        0.119  -8.269   0.566  0.00  0.00    +0.002 C 
ATOM     22  C   LIG    1        0.096  -6.739   0.575  0.00  0.00    +0.022 C 
ENDBRANCH  15  17
ENDBRANCH  13  15
ENDBRANCH   1  13
TORSDOF 6
