REMARK  Name = ZINC04322438
REMARK                            x       y       z     vdW  Elec       q    Type
REMARK                         _______ _______ _______ _____ _____    ______ ____
ROOT
ATOM      1  C   LIG    1       -0.017   1.379   0.010  0.00  0.00    +0.006 A 
ATOM      2  C   LIG    1        1.167   2.088   0.002  0.00  0.00    +0.016 A 
ATOM      3  C   LIG    1        2.384   1.407  -0.013  0.00  0.00    +0.069 A 
ATOM      4  C   LIG    1        2.397   0.013  -0.021  0.00  0.00    +0.016 A 
ATOM      5  C   LIG    1        1.206  -0.685  -0.013  0.00  0.00    +0.006 A 
ATOM      6  C   LIG    1        0.002  -0.004   0.002  0.00  0.00    -0.030 A 
ENDROOT
BRANCH   3   7
ATOM      7  C   LIG    1        3.658   2.162  -0.022  0.00  0.00    +0.362 C 
ATOM      8  N   LIG    1        3.643   3.462  -0.015  0.00  0.00    +0.151 NA
BRANCH   7   9
ATOM      9  N   LIG    1        4.865   1.483  -0.037  0.00  0.00    -0.243 N 
ATOM     10  H   LIG    1        5.699   1.977  -0.043  0.00  0.00    +0.289 HD
ATOM     11  H   LIG    1        4.876   0.513  -0.042  0.00  0.00    +0.289 HD
ENDBRANCH   7   9
BRANCH   8  12
ATOM     12  O   LIG    1        4.862   4.184  -0.023  0.00  0.00    -0.311 OA
ATOM     13  H   LIG    1        4.750   5.145  -0.017  0.00  0.00    +0.361 HD
ENDBRANCH   8  12
ENDBRANCH   3   7
BRANCH   6  14
ATOM     14  C   LIG    1       -1.294  -0.772   0.011  0.00  0.00    +0.139 C 
BRANCH  14  15
ATOM     15  N   LIG    1       -1.728  -1.014  -1.367  0.00  0.00    -0.307 N 
ATOM     16  H   LIG    1       -1.193  -0.688  -2.108  0.00  0.00    +0.149 HD
ATOM     17  C   LIG    1       -2.871  -1.688  -1.606  0.00  0.00    +0.244 C 
ATOM     18  O   LIG    1       -3.541  -2.095  -0.677  0.00  0.00    -0.270 OA
BRANCH  17  19
ATOM     19  C   LIG    1       -3.308  -1.931  -2.996  0.00  0.00    +0.037 A 
ATOM     20  C   LIG    1       -2.538  -1.470  -4.065  0.00  0.00    +0.014 A 
ATOM     21  C   LIG    1       -2.951  -1.700  -5.360  0.00  0.00    +0.021 A 
ATOM     22  C   LIG    1       -4.128  -2.388  -5.602  0.00  0.00    +0.041 A 
ATOM     23 CL   LIG    1       -4.643  -2.674  -7.235  0.00  0.00    -0.084 Cl
ATOM     24  C   LIG    1       -4.897  -2.849  -4.546  0.00  0.00    +0.021 A 
ATOM     25  C   LIG    1       -4.492  -2.629  -3.247  0.00  0.00    +0.014 A 
ENDBRANCH  17  19
ENDBRANCH  14  15
ENDBRANCH   6  14
TORSDOF 6
