REMARK  Name = ZINC04099011
REMARK                            x       y       z     vdW  Elec       q    Type
REMARK                         _______ _______ _______ _____ _____    ______ ____
ROOT
ATOM      1  C   LIG    1        0.149   1.044   0.924  0.00  0.00    +0.052 C 
ATOM      2  C   LIG    1        0.083  -0.444   0.700  0.00  0.00    +0.042 C 
ATOM      3  C   LIG    1       -1.126  -1.029   0.447  0.00  0.00    +0.183 C 
ATOM      4  O   LIG    1       -2.160  -0.390   0.395  0.00  0.00    -0.290 OA
ATOM      5  C   LIG    1       -1.086  -2.533   0.236  0.00  0.00    +0.102 C 
ATOM      6  C   LIG    1       -1.905  -3.262   1.304  0.00  0.00    +0.036 C 
ATOM      7  S   LIG    1        0.712  -2.859   0.441  0.00  0.00    -0.070 S 
ATOM      8  C   LIG    1        1.244  -1.184   0.750  0.00  0.00    +0.159 C 
ENDROOT
BRANCH   5   9
ATOM      9  C   LIG    1       -1.552  -2.900  -1.149  0.00  0.00    +0.002 C 
ATOM     10  C   LIG    1       -2.779  -2.576  -1.545  0.00  0.00    -0.053 C 
ATOM     11  C   LIG    1       -3.648  -1.708  -0.672  0.00  0.00    +0.043 C 
BRANCH  10  12
ATOM     12  C   LIG    1       -3.288  -3.065  -2.836  0.00  0.00    -0.005 C 
ATOM     13  C   LIG    1       -4.514  -2.740  -3.232  0.00  0.00    +0.009 C 
ENDBRANCH  10  12
ENDBRANCH   5   9
BRANCH   8  14
ATOM     14  O   LIG    1        2.498  -0.743   0.983  0.00  0.00    -0.501 OA
ATOM     15  H   LIG    1        2.654   0.168   1.133  0.00  0.00    +0.293 HD
ENDBRANCH   8  14
TORSDOF 3
