REMARK  Name = ZINC04234800
REMARK                            x       y       z     vdW  Elec       q    Type
REMARK                         _______ _______ _______ _____ _____    ______ ____
ROOT
ATOM      1  C   LIG    1       -1.250   2.203   0.020  0.00  0.00    -0.004 C 
ATOM      2  N   LIG    1       -2.288   1.608  -0.835  0.00  0.00    +0.386 N 
ATOM      3  H   LIG    1       -2.554   2.276  -1.569  0.00  0.00    -0.085 HD
ATOM      4  H   LIG    1       -1.927   0.750  -1.268  0.00  0.00    -0.085 HD
ATOM      5  C   LIG    1       -3.466   1.288  -0.007  0.00  0.00    -0.082 C 
ATOM      6  C   LIG    1       -3.361   2.242   1.208  0.00  0.00    -0.020 C 
ATOM      7  C   LIG    1       -1.829   2.275   1.449  0.00  0.00    -0.010 C 
ENDROOT
BRANCH   1  12
ATOM      8  C   LIG    1        1.717  -1.875  -0.024  0.00  0.00    +0.086 C 
ATOM      9  C   LIG    1        1.274  -0.435  -0.012  0.00  0.00    +0.102 A 
ATOM     10  C   LIG    1        2.086   0.638  -0.014  0.00  0.00    +0.044 A 
ATOM     11  C   LIG    1        1.254   1.781  -0.000  0.00  0.00    +0.043 A 
ATOM     12  C   LIG    1       -0.016   1.339   0.009  0.00  0.00    +0.091 A 
ATOM     13  O   LIG    1        0.002  -0.004   0.002  0.00  0.00    -0.467 OA
ENDBRANCH   1  12
TORSDOF 1
