REMARK  Name = ZINC04159317
REMARK                            x       y       z     vdW  Elec       q    Type
REMARK                         _______ _______ _______ _____ _____    ______ ____
ROOT
ATOM      1  C   LIG    1       -0.070   5.324   0.029  0.00  0.00    +0.186 C 
ATOM      2  O   LIG    1       -1.132   5.918   0.042  0.00  0.00    -0.287 OA
ENDROOT
BRANCH   1   3
ATOM      3  C   LIG    1       -0.050   3.845   0.022  0.00  0.00    +0.024 A 
ATOM      4  C   LIG    1        1.167   3.160   0.007  0.00  0.00    +0.012 A 
ATOM      5  C   LIG    1        1.178   1.781   0.000  0.00  0.00    +0.003 A 
ATOM      6  C   LIG    1       -0.013   1.076   0.008  0.00  0.00    +0.032 A 
ATOM      7  C   LIG    1       -1.222   1.748   0.017  0.00  0.00    +0.122 A 
ATOM      8  C   LIG    1       -1.248   3.127   0.030  0.00  0.00    +0.044 A 
BRANCH   7   9
ATOM      9  N   LIG    1       -2.490   0.986   0.020  0.00  0.00    +0.006 N 
ATOM     10  O   LIG    1       -2.469  -0.232   0.013  0.00  0.00    -0.130 OA
BRANCH   9  11
ATOM     11  O   LIG    1       -3.556   1.576   0.028  0.00  0.00    -0.396 OA
ATOM     12  H   LIG    1       -3.572   2.513   0.033  0.00  0.00    +0.329 HD
ENDBRANCH   9  11
ENDBRANCH   7   9
ENDBRANCH   1   3
BRANCH   1  14
ATOM     13  C   LIG    1        1.168   7.423   0.028  0.00  0.00    +0.011 C 
ATOM     14  C   LIG    1        1.186   6.072   0.021  0.00  0.00    +0.052 C 
BRANCH  13  18
ATOM     15  C   LIG    1        4.811   9.593   0.003  0.00  0.00    +0.000 A 
ATOM     16  C   LIG    1        3.606  10.273   0.018  0.00  0.00    +0.001 A 
ATOM     17  C   LIG    1        2.417   9.574   0.026  0.00  0.00    +0.008 A 
ATOM     18  C   LIG    1        2.432   8.175   0.019  0.00  0.00    -0.025 A 
ATOM     19  C   LIG    1        3.655   7.496   0.010  0.00  0.00    +0.008 A 
ATOM     20  C   LIG    1        4.835   8.209  -0.004  0.00  0.00    +0.001 A 
ENDBRANCH  13  18
ENDBRANCH   1  14
TORSDOF 5
