REMARK  Name = ZINC04217536
REMARK                            x       y       z     vdW  Elec       q    Type
REMARK                         _______ _______ _______ _____ _____    ______ ____
ROOT
ATOM      1  C   LIG    1        2.776   1.200   6.404  0.00  0.00    +0.234 C 
ATOM      2  N   LIG    1        2.124   0.412   5.526  0.00  0.00    -0.302 N 
ATOM      3  H   LIG    1        1.363  -0.114   5.819  0.00  0.00    +0.150 HD
ATOM      4  O   LIG    1        3.780   1.788   6.061  0.00  0.00    -0.274 OA
ENDROOT
BRANCH   2   5
ATOM      5  C   LIG    1        2.563   0.351   4.130  0.00  0.00    +0.169 C 
BRANCH   5   6
ATOM      6  C   LIG    1        1.386   0.021   3.248  0.00  0.00    +0.234 C 
ATOM      7  N   LIG    1        1.553  -0.088   1.915  0.00  0.00    -0.302 N 
ATOM      8  H   LIG    1        2.431   0.046   1.523  0.00  0.00    +0.150 HD
ATOM      9  O   LIG    1        0.289  -0.147   3.737  0.00  0.00    -0.274 OA
BRANCH   7  10
ATOM     10  C   LIG    1        0.410  -0.409   1.057  0.00  0.00    +0.163 C 
BRANCH  10  11
ATOM     11  C   LIG    1        0.221  -1.904   1.010  0.00  0.00    +0.231 C 
ATOM     12  N   LIG    1       -0.778  -2.434   0.277  0.00  0.00    -0.328 N 
ATOM     13  H   LIG    1       -0.899  -3.396   0.247  0.00  0.00    +0.145 HD
ATOM     14  H   LIG    1       -1.375  -1.854  -0.220  0.00  0.00    +0.145 HD
ATOM     15  O   LIG    1        0.969  -2.629   1.632  0.00  0.00    -0.274 OA
ENDBRANCH  10  11
BRANCH  10  16
ATOM     16  C   LIG    1        0.669   0.117  -0.356  0.00  0.00    +0.067 C 
BRANCH  16  17
ATOM     17  C   LIG    1        0.735   1.622  -0.328  0.00  0.00    -0.045 A 
ATOM     18  C   LIG    1       -0.413   2.368  -0.515  0.00  0.00    +0.004 A 
ATOM     19  C   LIG    1       -0.353   3.749  -0.484  0.00  0.00    +0.000 A 
ATOM     20  C   LIG    1        0.857   4.383  -0.276  0.00  0.00    +0.000 A 
ATOM     21  C   LIG    1        2.006   3.637  -0.093  0.00  0.00    +0.000 A 
ATOM     22  C   LIG    1        1.945   2.256  -0.119  0.00  0.00    +0.004 A 
ENDBRANCH  16  17
ENDBRANCH  10  16
ENDBRANCH   7  10
ENDBRANCH   5   6
BRANCH   5  23
ATOM     23  C   LIG    1        3.633  -0.731   3.979  0.00  0.00    +0.152 C 
BRANCH  23  24
ATOM     24  C   LIG    1        3.086  -2.050   4.459  0.00  0.00    +0.307 C 
ATOM     25  O   LIG    1        1.932  -2.134   4.810  0.00  0.00    -0.251 OA
BRANCH  24  26
ATOM     26  O   LIG    1        3.879  -3.132   4.498  0.00  0.00    -0.481 OA
ATOM     27  H   LIG    1        4.773  -3.067   4.226  0.00  0.00    +0.295 HD
ENDBRANCH  24  26
ENDBRANCH  23  24
ENDBRANCH   5  23
ENDBRANCH   2   5
BRANCH   1  28
ATOM     28  C   LIG    1        2.259   1.350   7.811  0.00  0.00    +0.160 C 
BRANCH  28  29
ATOM     29  N   LIG    1        3.137   2.251   8.561  0.00  0.00    -0.305 N 
ATOM     30  H   LIG    1        3.670   2.912   8.091  0.00  0.00    +0.149 HD
ATOM     31  C   LIG    1        3.206   2.162   9.904  0.00  0.00    +0.199 C 
ATOM     32  O   LIG    1        2.540   1.336  10.492  0.00  0.00    -0.278 OA
BRANCH  31  33
ATOM     33  C   LIG    1        4.109   3.089  10.675  0.00  0.00    +0.017 C 
BRANCH  33  34
ATOM     34  N   LIG    1        3.693   3.157  12.087  0.00  0.00    +0.386 N 
ATOM     35  H   LIG    1        4.340   3.767  12.601  0.00  0.00    -0.089 HD
ATOM     36  H   LIG    1        3.712   2.227  12.502  0.00  0.00    -0.089 HD
ATOM     37  H   LIG    1        2.751   3.539  12.156  0.00  0.00    -0.089 HD
ENDBRANCH  33  34
BRANCH  33  38
ATOM     38  C   LIG    1        5.548   2.574  10.606  0.00  0.00    +0.030 C 
BRANCH  38  39
ATOM     39  C   LIG    1        6.469   3.564  11.272  0.00  0.00    -0.023 A 
ATOM     40  C   LIG    1        7.171   4.534  10.666  0.00  0.00    +0.087 A 
ATOM     41  N   LIG    1        7.893   5.236  11.592  0.00  0.00    -0.360 N 
ATOM     42  C   LIG    1        7.675   4.715  12.848  0.00  0.00    +0.047 A 
ATOM     43  C   LIG    1        8.150   5.039  14.115  0.00  0.00    +0.026 A 
ATOM     44  C   LIG    1        7.734   4.311  15.208  0.00  0.00    +0.002 A 
ATOM     45  C   LIG    1        6.844   3.256  15.059  0.00  0.00    +0.001 A 
ATOM     46  C   LIG    1        6.365   2.921  13.824  0.00  0.00    +0.010 A 
ATOM     47  H   LIG    1        8.476   5.986  11.393  0.00  0.00    +0.165 HD
ATOM     48  C   LIG    1        6.773   3.645  12.703  0.00  0.00    +0.003 A 
ENDBRANCH  38  39
ENDBRANCH  33  38
ENDBRANCH  31  33
ENDBRANCH  28  29
BRANCH  28  49
ATOM     49  C   LIG    1        0.844   1.930   7.775  0.00  0.00    +0.042 C 
BRANCH  49  50
ATOM     50  C   LIG    1        0.271   1.966   9.194  0.00  0.00    +0.071 C 
BRANCH  50  52
ATOM     51  C   LIG    1       -1.936   2.628  10.886  0.00  0.00    +0.084 C 
ATOM     52  S   LIG    1       -1.407   2.654   9.151  0.00  0.00    -0.164 S 
ENDBRANCH  50  52
ENDBRANCH  49  50
ENDBRANCH  28  49
ENDBRANCH   1  28
TORSDOF 18
