REMARK  Name = ZINC04532987
REMARK                            x       y       z     vdW  Elec       q    Type
REMARK                         _______ _______ _______ _____ _____    ______ ____
ROOT
ATOM      1  C   LIG    1        1.224   1.761   0.463  0.00  0.00    -0.003 C 
ATOM      2  C   LIG    1        0.132   0.985   0.464  0.00  0.00    -0.019 C 
ATOM      3  C   LIG    1       -1.117   1.848   0.439  0.00  0.00    +0.032 C 
ATOM      4  C   LIG    1       -0.608   3.192  -0.167  0.00  0.00    +0.007 C 
ATOM      5  C   LIG    1       -0.568   2.979  -1.683  0.00  0.00    +0.001 C 
ATOM      6  C   LIG    1       -1.983   3.229  -2.226  0.00  0.00    +0.031 C 
ATOM      7  C   LIG    1       -1.972   3.204  -3.724  0.00  0.00    -0.027 C 
ATOM      8  C   LIG    1       -0.908   3.388  -4.438  0.00  0.00    -0.065 C 
ATOM      9  C   LIG    1        0.450   3.672  -3.858  0.00  0.00    -0.008 C 
ATOM     10  C   LIG    1        1.013   4.907  -4.564  0.00  0.00    +0.016 C 
ATOM     11  C   LIG    1        1.376   2.492  -4.145  0.00  0.00    +0.014 C 
ATOM     12  C   LIG    1        0.933   1.775  -5.420  0.00  0.00    +0.032 C 
ATOM     13  C   LIG    1        0.370   2.764  -6.439  0.00  0.00    +0.119 C 
ATOM     14  C   LIG    1       -0.991   3.282  -5.952  0.00  0.00    +0.062 C 
ATOM     15  C   LIG    1        0.388   3.960  -2.361  0.00  0.00    +0.003 C 
ATOM     16  C   LIG    1        1.796   3.763  -1.781  0.00  0.00    +0.005 C 
ATOM     17  C   LIG    1        1.765   4.105  -0.293  0.00  0.00    +0.012 C 
ATOM     18  C   LIG    1        0.803   3.208   0.447  0.00  0.00    -0.001 C 
ATOM     19  C   LIG    1        0.687   3.698   1.891  0.00  0.00    +0.016 C 
ENDROOT
BRANCH   1  21
ATOM     20  C   LIG    1        2.888  -0.195   0.586  0.00  0.00    +0.091 C 
ATOM     21  C   LIG    1        2.605   1.281   0.476  0.00  0.00    +0.156 C 
ATOM     22  O   LIG    1        3.523   2.071   0.399  0.00  0.00    -0.293 OA
ENDBRANCH   1  21
BRANCH  13  23
ATOM     23  O   LIG    1        1.272   3.862  -6.587  0.00  0.00    -0.391 OA
ATOM     24  H   LIG    1        1.028   4.479  -7.290  0.00  0.00    +0.210 HD
ENDBRANCH  13  23
TORSDOF 2
