REMARK  Name = ZINC04714067
REMARK                            x       y       z     vdW  Elec       q    Type
REMARK                         _______ _______ _______ _____ _____    ______ ____
ROOT
ATOM      1  C   LIG    1        0.001  -2.844   2.459  0.00  0.00    +0.232 C 
ATOM      2  N   LIG    1        0.037  -4.146   2.541  0.00  0.00    -0.205 NA
ATOM      3  C   LIG    1        0.063  -4.510   3.855  0.00  0.00    +0.152 C 
ATOM      4  C   LIG    1        0.038  -3.244   4.614  0.00  0.00    +0.364 C 
ATOM      5  O   LIG    1        0.049  -3.107   5.823  0.00  0.00    -0.243 OA
ATOM      6  C   LIG    1        0.104  -5.788   4.366  0.00  0.00    +0.044 C 
ATOM      7  O   LIG    1        0.006  -2.271   3.678  0.00  0.00    -0.402 OA
ENDROOT
BRANCH   1  13
ATOM      8  C   LIG    1       -0.138   1.505   0.020  0.00  0.00    +0.044 C 
ATOM      9  C   LIG    1       -0.102  -0.001   0.010  0.00  0.00    -0.050 A 
ATOM     10  C   LIG    1       -0.103  -0.684  -1.194  0.00  0.00    +0.003 A 
ATOM     11  C   LIG    1       -0.071  -2.067  -1.213  0.00  0.00    +0.001 A 
ATOM     12  C   LIG    1       -0.037  -2.775  -0.030  0.00  0.00    +0.013 A 
ATOM     13  C   LIG    1       -0.035  -2.093   1.189  0.00  0.00    +0.037 A 
ATOM     14  C   LIG    1       -0.062  -0.696   1.200  0.00  0.00    +0.016 A 
ENDBRANCH   1  13
BRANCH   6  15
ATOM     15  C   LIG    1        0.011  -6.942   3.465  0.00  0.00    -0.005 A 
ATOM     16  C   LIG    1        0.009  -6.762   2.071  0.00  0.00    +0.011 A 
ATOM     17  C   LIG    1       -0.081  -7.883   1.268  0.00  0.00    +0.020 A 
ATOM     18  C   LIG    1       -0.165  -9.134   1.855  0.00  0.00    +0.111 A 
ATOM     19  N   LIG    1       -0.161  -9.275   3.167  0.00  0.00    -0.263 NA
ATOM     20  C   LIG    1       -0.072  -8.243   3.978  0.00  0.00    +0.118 A 
ENDBRANCH   6  15
TORSDOF 2
