REMARK  Name = ZINC04785180
REMARK                            x       y       z     vdW  Elec       q    Type
REMARK                         _______ _______ _______ _____ _____    ______ ____
ROOT
ATOM      1  C   LIG    1       -0.828  -3.674  -1.925  0.00  0.00    +0.109 C 
ENDROOT
BRANCH   1   2
ATOM      2  N   LIG    1       -0.177  -3.904  -3.217  0.00  0.00    -0.291 N 
ATOM      3  C   LIG    1       -0.867  -3.722  -4.361  0.00  0.00    +0.282 C 
ATOM      4  O   LIG    1       -0.356  -4.002  -5.430  0.00  0.00    -0.267 OA
BRANCH   3   5
ATOM      5  C   LIG    1       -2.232  -3.188  -4.318  0.00  0.00    +0.189 A 
ATOM      6  C   LIG    1       -3.076  -3.055  -5.383  0.00  0.00    +0.054 A 
ATOM      7  C   LIG    1       -4.268  -2.506  -4.886  0.00  0.00    +0.042 A 
ATOM      8  C   LIG    1       -4.102  -2.329  -3.557  0.00  0.00    +0.196 A 
ATOM      9  O   LIG    1       -2.875  -2.746  -3.217  0.00  0.00    -0.458 OA
ENDBRANCH   3   5
BRANCH   2  10
ATOM     10  C   LIG    1        1.223  -4.332  -3.266  0.00  0.00    +0.143 C 
BRANCH  10  11
ATOM     11  C   LIG    1        1.289  -5.838  -3.249  0.00  0.00    -0.030 A 
ATOM     12  C   LIG    1        1.360  -6.513  -2.045  0.00  0.00    +0.005 A 
ATOM     13  C   LIG    1        1.420  -7.894  -2.030  0.00  0.00    +0.000 A 
ATOM     14  C   LIG    1        1.409  -8.600  -3.218  0.00  0.00    +0.000 A 
ATOM     15  C   LIG    1        1.337  -7.924  -4.422  0.00  0.00    +0.000 A 
ATOM     16  C   LIG    1        1.273  -6.544  -4.438  0.00  0.00    +0.005 A 
ENDBRANCH  10  11
ENDBRANCH   2  10
ENDBRANCH   1   2
BRANCH   1  17
ATOM     17  C   LIG    1       -0.706  -2.196  -1.549  0.00  0.00    +0.030 C 
BRANCH  17  22
ATOM     18  C   LIG    1        0.090   1.567   0.515  0.00  0.00    +0.041 C 
ATOM     19  C   LIG    1        0.123   0.082   0.147  0.00  0.00    +0.065 C 
ATOM     20  C   LIG    1        0.712  -0.084  -1.256  0.00  0.00    +0.041 C 
ATOM     21  C   LIG    1       -1.300  -0.483   0.174  0.00  0.00    +0.046 C 
ATOM     22  C   LIG    1       -1.251  -1.982  -0.136  0.00  0.00    +0.002 C 
ATOM     23  C   LIG    1       -0.333  -2.673   0.877  0.00  0.00    +0.040 C 
ATOM     24  C   LIG    1        1.053  -2.023   0.823  0.00  0.00    +0.161 C 
ATOM     25  O   LIG    1        0.933  -0.625   1.090  0.00  0.00    -0.374 OA
BRANCH  22  26
ATOM     26  C   LIG    1       -2.639  -2.563  -0.035  0.00  0.00    -0.041 A 
ATOM     27  C   LIG    1       -3.729  -1.726   0.109  0.00  0.00    +0.004 A 
ATOM     28  C   LIG    1       -5.002  -2.258   0.201  0.00  0.00    +0.000 A 
ATOM     29  C   LIG    1       -5.183  -3.627   0.148  0.00  0.00    +0.000 A 
ATOM     30  C   LIG    1       -4.093  -4.464   0.003  0.00  0.00    +0.000 A 
ATOM     31  C   LIG    1       -2.821  -3.932  -0.094  0.00  0.00    +0.004 A 
ENDBRANCH  22  26
ENDBRANCH  17  22
ENDBRANCH   1  17
TORSDOF 7
