REMARK  Name = ZINC04311748
REMARK                            x       y       z     vdW  Elec       q    Type
REMARK                         _______ _______ _______ _____ _____    ______ ____
ROOT
ATOM      1  C   LIG    1        3.697  -0.687  -0.038  0.00  0.00    +0.075 C 
ATOM      2  N   LIG    1        4.769   0.017  -0.140  0.00  0.00    -0.273 NA
ATOM      3  C   LIG    1        6.096  -0.596  -0.173  0.00  0.00    +0.238 C 
ATOM      4  C   LIG    1        6.207  -1.452  -1.405  0.00  0.00    +0.239 C 
ATOM      5  N   LIG    1        5.429  -2.516  -1.590  0.00  0.00    -0.283 N 
ATOM      6  H   LIG    1        5.524  -2.999  -2.426  0.00  0.00    +0.155 HD
ATOM      7  C   LIG    1        4.494  -2.988  -0.683  0.00  0.00    +0.043 A 
ATOM      8  C   LIG    1        4.397  -4.372  -0.523  0.00  0.00    +0.026 A 
ATOM      9  C   LIG    1        3.489  -4.913   0.376  0.00  0.00    +0.034 A 
ATOM     10  C   LIG    1        2.660  -4.084   1.113  0.00  0.00    +0.122 A 
ATOM     11  C   LIG    1        2.742  -2.719   0.964  0.00  0.00    +0.044 A 
ATOM     12  O   LIG    1        7.026  -1.164  -2.252  0.00  0.00    -0.273 OA
ATOM     13  C   LIG    1        3.662  -2.154   0.068  0.00  0.00    +0.024 A 
ENDROOT
BRANCH   1  17
ATOM     14  C   LIG    1       -0.017   1.379   0.012  0.00  0.00    +0.000 A 
ATOM     15  C   LIG    1        0.029   0.054  -0.383  0.00  0.00    +0.001 A 
ATOM     16  C   LIG    1        1.232  -0.622  -0.401  0.00  0.00    +0.010 A 
ATOM     17  C   LIG    1        2.403   0.033  -0.021  0.00  0.00    +0.001 A 
ATOM     18  C   LIG    1        2.350   1.369   0.376  0.00  0.00    +0.010 A 
ATOM     19  C   LIG    1        1.141   2.034   0.390  0.00  0.00    +0.001 A 
ENDBRANCH   1  17
BRANCH  10  20
ATOM     20  N   LIG    1        1.686  -4.668   2.062  0.00  0.00    +0.006 N 
ATOM     21  O   LIG    1        0.962  -3.944   2.707  0.00  0.00    -0.130 OA
BRANCH  20  22
ATOM     22  O   LIG    1        1.613  -5.867   2.194  0.00  0.00    -0.396 OA
ATOM     23  H   LIG    1        2.174  -6.428   1.694  0.00  0.00    +0.329 HD
ENDBRANCH  20  22
ENDBRANCH  10  20
TORSDOF 3
