REMARK  Name = ZINC04356963
REMARK                            x       y       z     vdW  Elec       q    Type
REMARK                         _______ _______ _______ _____ _____    ______ ____
ROOT
ATOM      1  N   LIG    1       -1.372  -0.511   0.012  0.00  0.00    -0.242 N 
ATOM      2  C   LIG    1       -1.776  -1.277   1.011  0.00  0.00    +0.259 C 
ATOM      3  C   LIG    1       -3.121  -1.753   0.989  0.00  0.00    +0.077 C 
ATOM      4  S   LIG    1       -3.716  -1.026  -0.532  0.00  0.00    -0.061 S 
ATOM      5  C   LIG    1       -3.782  -2.555   1.895  0.00  0.00    +0.020 C 
ATOM      6  O   LIG    1       -1.022  -1.568   1.923  0.00  0.00    -0.269 OA
ATOM      7  C   LIG    1       -2.210  -0.184  -0.996  0.00  0.00    +0.121 C 
ATOM      8  S   LIG    1       -1.906   0.789  -2.372  0.00  0.00    -0.027 S 
ENDROOT
BRANCH   1  10
ATOM      9  C   LIG    1       -0.019   1.526   0.010  0.00  0.00    +0.040 C 
ATOM     10  C   LIG    1        0.002  -0.004   0.002  0.00  0.00    +0.188 C 
BRANCH  10  11
ATOM     11  C   LIG    1        0.707  -0.490  -1.238  0.00  0.00    +0.326 C 
ATOM     12  O   LIG    1        1.911  -0.336  -1.354  0.00  0.00    -0.249 OA
BRANCH  11  13
ATOM     13  O   LIG    1        0.074  -1.038  -2.124  0.00  0.00    -0.479 OA
ATOM     14  H   LIG    1       -0.851  -1.156  -2.035  0.00  0.00    +0.295 HD
ENDBRANCH  11  13
ENDBRANCH  10  11
ENDBRANCH   1  10
BRANCH   5  15
ATOM     15  C   LIG    1       -5.122  -2.906   1.674  0.00  0.00    +0.005 C 
ATOM     16  C   LIG    1       -5.775  -3.697   2.568  0.00  0.00    +0.046 C 
BRANCH  16  17
ATOM     17  C   LIG    1       -7.126  -4.051   2.345  0.00  0.00    +0.128 A 
ATOM     18  C   LIG    1       -7.908  -4.838   3.168  0.00  0.00    +0.049 A 
ATOM     19  C   LIG    1       -9.169  -4.922   2.558  0.00  0.00    +0.042 A 
ATOM     20  C   LIG    1       -9.111  -4.202   1.417  0.00  0.00    +0.195 A 
ATOM     21  O   LIG    1       -7.884  -3.674   1.294  0.00  0.00    -0.464 OA
ENDBRANCH  16  17
ENDBRANCH   5  15
TORSDOF 5
