REMARK  Name = ZINC04370978
REMARK                            x       y       z     vdW  Elec       q    Type
REMARK                         _______ _______ _______ _____ _____    ______ ____
ROOT
ATOM      1  N   LIG    1        0.784   3.480   0.167  0.00  0.00    -0.073 NA
ATOM      2  C   LIG    1        1.813   3.960   0.824  0.00  0.00    +0.394 C 
ENDROOT
BRANCH   1   4
ATOM      3  C   LIG    1       -0.672   1.624   0.595  0.00  0.00    +0.066 A 
ATOM      4  C   LIG    1        0.551   2.131   0.150  0.00  0.00    +0.145 A 
ATOM      5  C   LIG    1        1.535   1.256  -0.314  0.00  0.00    +0.066 A 
ATOM      6  C   LIG    1        1.294  -0.104  -0.330  0.00  0.00    +0.046 A 
ATOM      7 CL   LIG    1        2.516  -1.194  -0.906  0.00  0.00    -0.083 Cl
ATOM      8  C   LIG    1        0.079  -0.600   0.113  0.00  0.00    +0.040 A 
ATOM      9  C   LIG    1       -0.901   0.263   0.574  0.00  0.00    +0.046 A 
ATOM     10 CL   LIG    1       -2.420  -0.368   1.128  0.00  0.00    -0.083 Cl
ENDBRANCH   1   4
BRANCH   2  11
ATOM     11  N   LIG    1        2.579   3.128   1.601  0.00  0.00    -0.288 N 
ATOM     12  H   LIG    1        2.311   2.205   1.735  0.00  0.00    +0.255 HD
ATOM     13  H   LIG    1        3.389   3.462   2.017  0.00  0.00    +0.255 HD
ENDBRANCH   2  11
BRANCH   2  14
ATOM     14  N   LIG    1        2.125   5.298   0.734  0.00  0.00    -0.186 N 
ATOM     15  H   LIG    1        2.843   5.666   1.272  0.00  0.00    +0.271 HD
BRANCH  14  16
ATOM     16  C   LIG    1        1.416   6.115  -0.121  0.00  0.00    +0.385 C 
ATOM     17  N   LIG    1        0.391   5.643  -0.773  0.00  0.00    -0.129 NA
ATOM     18  H   LIG    1       -0.107   6.218  -1.375  0.00  0.00    +0.306 HD
BRANCH  16  19
ATOM     19  N   LIG    1        1.790   7.428  -0.286  0.00  0.00    -0.289 N 
ATOM     20  H   LIG    1        1.249   8.022  -0.829  0.00  0.00    +0.255 HD
ATOM     21  H   LIG    1        2.596   7.759   0.140  0.00  0.00    +0.255 HD
ENDBRANCH  16  19
ENDBRANCH  14  16
ENDBRANCH   2  14
TORSDOF 5
