REMARK  Name = ZINC04769916
REMARK                            x       y       z     vdW  Elec       q    Type
REMARK                         _______ _______ _______ _____ _____    ______ ____
ROOT
ATOM      1  CA  LIG    1       -3.581   1.949   0.125  0.00  0.00    +0.097 C 
ATOM      2  C   LIG    1       -2.452   1.322  -0.281  0.00  0.00    +0.039 C 
ENDROOT
BRANCH   2   3
ATOM      3  C   LIG    1       -1.241   2.103  -0.572  0.00  0.00    +0.012 A 
ATOM      4  C   LIG    1       -0.945   3.247   0.177  0.00  0.00    +0.011 A 
ATOM      5  C   LIG    1        0.189   3.977  -0.105  0.00  0.00    +0.001 A 
ATOM      6  C   LIG    1        1.039   3.580  -1.123  0.00  0.00    +0.003 A 
ATOM      7  C   LIG    1        0.759   2.448  -1.866  0.00  0.00    +0.039 A 
ATOM      8  C   LIG    1       -0.374   1.704  -1.597  0.00  0.00    +0.131 A 
ATOM      9  F   LIG    1       -0.648   0.598  -2.324  0.00  0.00    -0.205 F 
ENDBRANCH   2   3
BRANCH   1  12
ATOM     10  N   LIG    1       -3.737   4.089  -1.037  0.00  0.00    -0.297 N 
ATOM     11  H   LIG    1       -3.831   3.604  -1.871  0.00  0.00    +0.150 HD
ATOM     12  C   LIG    1       -3.645   3.417   0.128  0.00  0.00    +0.259 C 
ATOM     13  O   LIG    1       -3.616   4.025   1.181  0.00  0.00    -0.269 OA
BRANCH  10  14
ATOM     14  CA  LIG    1       -3.694   5.554  -1.042  0.00  0.00    +0.185 C 
BRANCH  14  16
ATOM     15  CG1 LIG    1       -3.084   7.565  -2.393  0.00  0.00    +0.009 C 
ATOM     16  CB  LIG    1       -3.267   6.046  -2.426  0.00  0.00    +0.014 C 
ATOM     17  CG2 LIG    1       -1.946   5.382  -2.819  0.00  0.00    +0.009 C 
ENDBRANCH  14  16
BRANCH  14  18
ATOM     18  C   LIG    1       -5.061   6.098  -0.716  0.00  0.00    +0.326 C 
ATOM     19  O   LIG    1       -5.977   5.340  -0.500  0.00  0.00    -0.249 OA
BRANCH  18  20
ATOM     20  OXT LIG    1       -5.261   7.424  -0.664  0.00  0.00    -0.479 OA
ATOM     21  HXT LIG    1       -4.551   8.012  -0.831  0.00  0.00    +0.295 HD
ENDBRANCH  18  20
ENDBRANCH  14  18
ENDBRANCH  10  14
ENDBRANCH   1  12
BRANCH   1  22
ATOM     22  N   LIG    1       -4.685   1.200   0.543  0.00  0.00    -0.277 N 
ATOM     23  H   LIG    1       -4.616   0.235   0.620  0.00  0.00    +0.155 HD
ATOM     24  C   LIG    1       -5.846   1.818   0.839  0.00  0.00    +0.248 C 
ATOM     25  O   LIG    1       -5.961   3.014   0.655  0.00  0.00    -0.270 OA
BRANCH  24  26
ATOM     26  C   LIG    1       -6.978   1.041   1.386  0.00  0.00    +0.037 A 
ATOM     27  C   LIG    1       -6.851  -0.334   1.592  0.00  0.00    +0.013 A 
ATOM     28  C   LIG    1       -7.910  -1.052   2.108  0.00  0.00    +0.001 A 
ATOM     29  C   LIG    1       -9.100  -0.414   2.411  0.00  0.00    +0.000 A 
ATOM     30  C   LIG    1       -9.235   0.947   2.203  0.00  0.00    +0.001 A 
ATOM     31  C   LIG    1       -8.181   1.678   1.693  0.00  0.00    +0.013 A 
ENDBRANCH  24  26
ENDBRANCH   1  22
TORSDOF 8
