REMARK  Name = ZINC04772989
REMARK                            x       y       z     vdW  Elec       q    Type
REMARK                         _______ _______ _______ _____ _____    ______ ____
ROOT
ATOM      1  N   LIG    1       -0.692   1.181  -0.014  0.00  0.00    -0.246 N 
ATOM      2  H   LIG    1       -0.136   1.873   0.378  0.00  0.00    +0.265 HD
ENDROOT
BRANCH   1   6
ATOM      3  C   LIG    1       -4.830   1.672  -0.169  0.00  0.00    +0.120 A 
ATOM      4  C   LIG    1       -4.289   0.419   0.081  0.00  0.00    +0.049 A 
ATOM      5  C   LIG    1       -2.919   0.256   0.132  0.00  0.00    +0.046 A 
ATOM      6  C   LIG    1       -2.082   1.346  -0.067  0.00  0.00    +0.100 A 
ATOM      7  C   LIG    1       -2.624   2.600  -0.312  0.00  0.00    +0.046 A 
ATOM      8  C   LIG    1       -3.994   2.761  -0.368  0.00  0.00    +0.049 A 
BRANCH   3  10
ATOM      9  C   LIG    1       -6.667   3.149  -0.481  0.00  0.00    +0.277 C 
ATOM     10  O   LIG    1       -6.179   1.832  -0.220  0.00  0.00    -0.495 OA
ENDBRANCH   3  10
ENDBRANCH   1   6
BRANCH   1  11
ATOM     11  C   LIG    1       -0.115   0.036  -0.515  0.00  0.00    +0.346 C 
ATOM     12  N   LIG    1       -0.914  -0.819  -1.137  0.00  0.00    -0.292 N 
ATOM     13  H   LIG    1       -1.916  -0.612  -1.228  0.00  0.00    +0.255 HD
ATOM     14  H   LIG    1       -0.534  -1.682  -1.525  0.00  0.00    +0.255 HD
BRANCH  11  15
ATOM     15  N   LIG    1        1.234  -0.179  -0.358  0.00  0.00    -0.292 N 
ATOM     16  H   LIG    1        1.640  -0.987  -0.711  0.00  0.00    +0.255 HD
ATOM     17  H   LIG    1        1.779   0.476   0.105  0.00  0.00    +0.255 HD
ENDBRANCH  11  15
ENDBRANCH   1  11
TORSDOF 4
