REMARK  Name = ZINC04632558
REMARK                            x       y       z     vdW  Elec       q    Type
REMARK                         _______ _______ _______ _____ _____    ______ ____
ROOT
ATOM      1  O   LIG    1       -2.965   4.078  -1.048  0.00  0.00    -0.492 OA
ENDROOT
BRANCH   1   3
ATOM      2  C   LIG    1       -4.521   5.507  -2.160  0.00  0.00    +0.063 A 
ATOM      3  C   LIG    1       -4.236   4.534  -1.208  0.00  0.00    +0.139 A 
ATOM      4  C   LIG    1       -5.265   4.039  -0.420  0.00  0.00    +0.156 A 
ATOM      5  N   LIG    1       -6.499   4.478  -0.572  0.00  0.00    -0.259 NA
ATOM      6  C   LIG    1       -6.804   5.396  -1.467  0.00  0.00    +0.125 A 
ATOM      7  C   LIG    1       -5.832   5.937  -2.289  0.00  0.00    +0.035 A 
ATOM      8  I   LIG    1       -6.335   7.395  -3.707  0.00  0.00    -0.042 I 
ENDBRANCH   1   3
BRANCH   1   9
ATOM      9  C   LIG    1       -2.755   3.082  -0.045  0.00  0.00    +0.213 C 
BRANCH   9  10
ATOM     10  C   LIG    1       -1.274   2.696  -0.012  0.00  0.00    -0.035 C 
ATOM     11  N   LIG    1       -0.878   1.696  -0.872  0.00  0.00    +0.383 N 
ATOM     12  H   LIG    1       -1.653   1.085  -1.155  0.00  0.00    -0.085 HD
ATOM     13  H   LIG    1       -0.404   2.057  -1.709  0.00  0.00    -0.085 HD
ATOM     14  C   LIG    1       -0.013   1.086   0.008  0.00  0.00    -0.084 C 
ATOM     15  C   LIG    1       -0.930   1.679   1.086  0.00  0.00    -0.032 C 
ENDBRANCH   9  10
ENDBRANCH   1   9
TORSDOF 3
