REMARK  Name = ZINC04176781
REMARK                            x       y       z     vdW  Elec       q    Type
REMARK                         _______ _______ _______ _____ _____    ______ ____
ROOT
ATOM      1  C   LIG    1        2.467   1.036  -0.016  0.00  0.00    +0.044 C 
ATOM      2  C   LIG    1        1.155   1.776   0.001  0.00  0.00    -0.050 A 
ATOM      3  C   LIG    1        1.151   3.170   0.008  0.00  0.00    +0.005 A 
ATOM      4  C   LIG    1       -0.016   3.870   0.022  0.00  0.00    +0.028 A 
ATOM      5  C   LIG    1       -1.242   3.184   0.030  0.00  0.00    +0.073 A 
ATOM      6  C   LIG    1       -1.237   1.766   0.018  0.00  0.00    +0.001 A 
ATOM      7  C   LIG    1       -2.460   1.076   0.019  0.00  0.00    +0.021 A 
ATOM      8  C   LIG    1       -3.634   1.827   0.029  0.00  0.00    +0.013 A 
ATOM      9  C   LIG    1       -3.555   3.236   0.035  0.00  0.00    +0.137 A 
ATOM     10 CL   LIG    1       -5.019   4.168   0.047  0.00  0.00    -0.061 Cl
ATOM     11  N   LIG    1       -2.401   3.854   0.044  0.00  0.00    -0.235 NA
ATOM     12  C   LIG    1       -0.013   1.076   0.008  0.00  0.00    +0.013 A 
ENDROOT
BRANCH   8  13
ATOM     13  C   LIG    1       -4.943   1.158   0.032  0.00  0.00    +0.014 C 
ATOM     14  C   LIG    1       -5.012  -0.192   0.025  0.00  0.00    +0.052 C 
BRANCH  14  15
ATOM     15  C   LIG    1       -6.313  -0.857   0.028  0.00  0.00    +0.186 C 
ATOM     16  O   LIG    1       -7.335  -0.195   0.036  0.00  0.00    -0.287 OA
BRANCH  15  17
ATOM     17  C   LIG    1       -6.388  -2.334   0.022  0.00  0.00    +0.022 A 
ATOM     18  C   LIG    1       -5.218  -3.096   0.007  0.00  0.00    +0.012 A 
ATOM     19  C   LIG    1       -5.296  -4.473   0.005  0.00  0.00    +0.001 A 
ATOM     20  C   LIG    1       -6.529  -5.100   0.008  0.00  0.00    +0.000 A 
ATOM     21  C   LIG    1       -7.693  -4.351   0.018  0.00  0.00    +0.001 A 
ATOM     22  C   LIG    1       -7.630  -2.973   0.024  0.00  0.00    +0.012 A 
ENDBRANCH  15  17
ENDBRANCH  14  15
ENDBRANCH   8  13
TORSDOF 3
