REMARK  Name = ZINC04165201
REMARK                            x       y       z     vdW  Elec       q    Type
REMARK                         _______ _______ _______ _____ _____    ______ ____
ROOT
ATOM      1  C   LIG    1       -1.123  -0.920  -0.012  0.00  0.00    +0.019 C 
ENDROOT
BRANCH   1   7
ATOM      2  C   LIG    1        0.415   1.156  -0.067  0.00  0.00    +0.013 A 
ATOM      3  C   LIG    1        1.719   1.615  -0.100  0.00  0.00    +0.028 A 
ATOM      4  C   LIG    1        2.733   0.714  -0.113  0.00  0.00    +0.078 A 
ATOM      5 CL   LIG    1        4.445   0.996  -0.152  0.00  0.00    -0.076 Cl
ATOM      6  S   LIG    1        1.849  -0.836  -0.077  0.00  0.00    -0.082 S 
ATOM      7  C   LIG    1        0.189  -0.180  -0.048  0.00  0.00    -0.007 A 
ENDBRANCH   1   7
BRANCH   1   8
ATOM      8  C   LIG    1       -1.240  -1.811  -1.250  0.00  0.00    -0.077 C 
BRANCH   8   9
ATOM      9  N   LIG    1       -2.556  -2.464  -1.261  0.00  0.00    +0.379 N 
ATOM     10  H   LIG    1       -2.672  -2.974  -2.124  0.00  0.00    -0.090 HD
ATOM     11  H   LIG    1       -3.279  -1.765  -1.183  0.00  0.00    -0.090 HD
ATOM     12  H   LIG    1       -2.621  -3.103  -0.482  0.00  0.00    -0.090 HD
ENDBRANCH   8   9
ENDBRANCH   1   8
BRANCH   1  13
ATOM     13  C   LIG    1       -1.187  -1.785   1.248  0.00  0.00    +0.127 C 
BRANCH  13  14
ATOM     14  C   LIG    1       -1.221  -0.898   2.465  0.00  0.00    +0.305 C 
ATOM     15  O   LIG    1       -1.307   0.311   2.336  0.00  0.00    -0.251 OA
BRANCH  14  16
ATOM     16  O   LIG    1       -1.162  -1.390   3.579  0.00  0.00    -0.481 OA
ATOM     17  H   LIG    1       -1.096  -2.319   3.679  0.00  0.00    +0.295 HD
ENDBRANCH  14  16
ENDBRANCH  13  14
ENDBRANCH   1  13
TORSDOF 6
