REMARK  Name = ZINC04370978
REMARK                            x       y       z     vdW  Elec       q    Type
REMARK                         _______ _______ _______ _____ _____    ______ ____
ROOT
ATOM      1  C   LIG    1        2.343   4.189   0.088  0.00  0.00    +0.393 C 
ATOM      2  N   LIG    1        3.482   3.556   0.067  0.00  0.00    -0.129 NA
ATOM      3  H   LIG    1        4.309   4.041   0.215  0.00  0.00    +0.306 HD
ENDROOT
BRANCH   1   4
ATOM      4  N   LIG    1        1.164   3.487  -0.019  0.00  0.00    -0.243 N 
ATOM      5  H   LIG    1        0.321   3.962  -0.077  0.00  0.00    +0.265 HD
BRANCH   4   7
ATOM      6  C   LIG    1        0.157   1.369   0.555  0.00  0.00    +0.062 A 
ATOM      7  C   LIG    1        1.182   2.089  -0.044  0.00  0.00    +0.103 A 
ATOM      8  C   LIG    1        2.225   1.417  -0.669  0.00  0.00    +0.062 A 
ATOM      9  C   LIG    1        2.240   0.035  -0.693  0.00  0.00    +0.046 A 
ATOM     10 CL   LIG    1        3.544  -0.804  -1.474  0.00  0.00    -0.083 Cl
ATOM     11  C   LIG    1        1.217  -0.679  -0.095  0.00  0.00    +0.040 A 
ATOM     12  C   LIG    1        0.177  -0.013   0.528  0.00  0.00    +0.046 A 
ATOM     13 CL   LIG    1       -1.105  -0.914   1.277  0.00  0.00    -0.083 Cl
ENDBRANCH   4   7
ENDBRANCH   1   4
BRANCH   1  14
ATOM     14  N   LIG    1        2.320   5.562   0.217  0.00  0.00    -0.186 N 
ATOM     15  H   LIG    1        3.144   6.049   0.370  0.00  0.00    +0.271 HD
BRANCH  14  16
ATOM     16  C   LIG    1        1.123   6.242   0.128  0.00  0.00    +0.385 C 
ATOM     17  N   LIG    1        0.004   5.582   0.036  0.00  0.00    -0.129 NA
ATOM     18  H   LIG    1       -0.838   6.061  -0.026  0.00  0.00    +0.306 HD
BRANCH  16  19
ATOM     19  N   LIG    1        1.112   7.617   0.135  0.00  0.00    -0.289 N 
ATOM     20  H   LIG    1        0.268   8.095   0.146  0.00  0.00    +0.255 HD
ATOM     21  H   LIG    1        1.948   8.109   0.130  0.00  0.00    +0.255 HD
ENDBRANCH  16  19
ENDBRANCH  14  16
ENDBRANCH   1  14
TORSDOF 5
