REMARK  Name = ZINC04165187
REMARK                            x       y       z     vdW  Elec       q    Type
REMARK                         _______ _______ _______ _____ _____    ______ ____
ROOT
ATOM      1  C   LIG    1       -1.156  -0.969   0.008  0.00  0.00    +0.019 C 
ENDROOT
BRANCH   1   7
ATOM      2  C   LIG    1       -0.016   1.351   0.009  0.00  0.00    +0.013 A 
ATOM      3  C   LIG    1        1.184   2.038   0.002  0.00  0.00    +0.028 A 
ATOM      4  C   LIG    1        2.343   1.335  -0.013  0.00  0.00    +0.078 A 
ATOM      5 CL   LIG    1        3.977   1.921  -0.026  0.00  0.00    -0.076 Cl
ATOM      6  S   LIG    1        1.753  -0.350  -0.017  0.00  0.00    -0.082 S 
ATOM      7  C   LIG    1        0.002  -0.004   0.002  0.00  0.00    -0.007 A 
ENDBRANCH   1   7
BRANCH   1   8
ATOM      8  C   LIG    1       -1.074  -1.856   1.252  0.00  0.00    -0.077 C 
BRANCH   8   9
ATOM      9  N   LIG    1       -1.250  -1.031   2.454  0.00  0.00    +0.379 N 
ATOM     10  H   LIG    1       -1.196  -1.616   3.275  0.00  0.00    -0.090 HD
ATOM     11  H   LIG    1       -2.151  -0.578   2.423  0.00  0.00    -0.090 HD
ATOM     12  H   LIG    1       -0.523  -0.332   2.491  0.00  0.00    -0.090 HD
ENDBRANCH   8   9
ENDBRANCH   1   8
BRANCH   1  13
ATOM     13  C   LIG    1       -1.098  -1.843  -1.247  0.00  0.00    +0.127 C 
BRANCH  13  14
ATOM     14  C   LIG    1       -2.320  -2.722  -1.303  0.00  0.00    +0.305 C 
ATOM     15  O   LIG    1       -3.160  -2.656  -0.422  0.00  0.00    -0.251 OA
BRANCH  14  16
ATOM     16  O   LIG    1       -2.470  -3.499  -2.230  0.00  0.00    -0.481 OA
ATOM     17  H   LIG    1       -1.824  -3.550  -2.908  0.00  0.00    +0.295 HD
ENDBRANCH  14  16
ENDBRANCH  13  14
ENDBRANCH   1  13
TORSDOF 6
