REMARK  Name = ZINC04100364
REMARK                            x       y       z     vdW  Elec       q    Type
REMARK                         _______ _______ _______ _____ _____    ______ ____
ROOT
ATOM      1  C   LIG    1       -2.553   3.869   0.045  0.00  0.00    +0.080 C 
ENDROOT
BRANCH   1   5
ATOM      2  C   LIG    1        1.373   2.361   0.797  0.00  0.00    +0.000 A 
ATOM      3  C   LIG    1        0.354   1.494   0.451  0.00  0.00    +0.000 A 
ATOM      4  C   LIG    1       -0.915   1.982   0.203  0.00  0.00    +0.004 A 
ATOM      5  C   LIG    1       -1.168   3.337   0.311  0.00  0.00    -0.036 A 
ATOM      6  C   LIG    1       -0.149   4.205   0.656  0.00  0.00    +0.004 A 
ATOM      7  C   LIG    1        1.121   3.717   0.899  0.00  0.00    +0.000 A 
ENDBRANCH   1   5
BRANCH   1   8
ATOM      8  C   LIG    1       -3.497   3.363   1.106  0.00  0.00    -0.018 A 
ATOM      9  C   LIG    1       -3.822   2.017   1.173  0.00  0.00    +0.007 A 
ATOM     10  C   LIG    1       -4.691   1.597   2.168  0.00  0.00    +0.020 A 
ATOM     11  C   LIG    1       -5.209   2.529   3.048  0.00  0.00    +0.111 A 
ATOM     12  N   LIG    1       -4.881   3.802   2.951  0.00  0.00    -0.263 NA
ATOM     13  C   LIG    1       -4.053   4.237   2.021  0.00  0.00    +0.115 A 
ENDBRANCH   1   8
BRANCH   1  14
ATOM     14  C   LIG    1       -3.020   3.399  -1.308  0.00  0.00    -0.036 A 
ATOM     15  C   LIG    1       -2.098   3.109  -2.296  0.00  0.00    +0.004 A 
ATOM     16  C   LIG    1       -2.526   2.674  -3.536  0.00  0.00    +0.000 A 
ATOM     17  C   LIG    1       -3.878   2.538  -3.791  0.00  0.00    +0.000 A 
ATOM     18  C   LIG    1       -4.801   2.832  -2.805  0.00  0.00    +0.000 A 
ATOM     19  C   LIG    1       -4.372   3.263  -1.564  0.00  0.00    +0.004 A 
ENDBRANCH   1  14
TORSDOF 3
