REMARK  Name = ZINC04534210
REMARK                            x       y       z     vdW  Elec       q    Type
REMARK                         _______ _______ _______ _____ _____    ______ ____
ROOT
ATOM      1  C   LIG    1        5.164   3.641  -3.018  0.00  0.00    +0.160 C 
ENDROOT
BRANCH   1   3
ATOM      2  C   LIG    1        3.982   1.608  -2.379  0.00  0.00    +0.234 C 
ATOM      3  N   LIG    1        5.027   2.182  -3.007  0.00  0.00    -0.302 N 
ATOM      4  H   LIG    1        5.689   1.629  -3.451  0.00  0.00    +0.150 HD
ATOM      5  O   LIG    1        3.154   2.299  -1.823  0.00  0.00    -0.274 OA
BRANCH   2   6
ATOM      6  C   LIG    1        3.841   0.107  -2.368  0.00  0.00    +0.166 C 
BRANCH   6   8
ATOM      7  C   LIG    1        1.889   0.138  -0.910  0.00  0.00    +0.401 C 
ATOM      8  N   LIG    1        2.452  -0.251  -2.071  0.00  0.00    -0.269 N 
ATOM      9  H   LIG    1        1.938  -0.767  -2.711  0.00  0.00    +0.153 HD
ATOM     10  O   LIG    1        2.534   0.785  -0.109  0.00  0.00    -0.226 OA
BRANCH   7  11
ATOM     11  O   LIG    1        0.612  -0.191  -0.638  0.00  0.00    -0.445 OA
BRANCH  11  13
ATOM     12  C   LIG    1        0.133   1.782   0.673  0.00  0.00    +0.055 C 
ATOM     13  C   LIG    1        0.080   0.254   0.612  0.00  0.00    +0.107 C 
ATOM     14  C   LIG    1       -1.371  -0.212   0.742  0.00  0.00    +0.055 C 
ATOM     15  C   LIG    1        0.909  -0.332   1.757  0.00  0.00    +0.055 C 
ENDBRANCH  11  13
ENDBRANCH   7  11
ENDBRANCH   6   8
BRANCH   6  16
ATOM     16  C   LIG    1        4.760  -0.483  -1.296  0.00  0.00    +0.069 C 
BRANCH  16  17
ATOM     17  C   LIG    1        4.712  -1.987  -1.367  0.00  0.00    -0.020 A 
ATOM     18  C   LIG    1        3.926  -2.796  -0.639  0.00  0.00    +0.087 A 
ATOM     19  N   LIG    1        4.160  -4.102  -0.977  0.00  0.00    -0.360 N 
ATOM     20  C   LIG    1        5.127  -4.166  -1.955  0.00  0.00    +0.047 A 
ATOM     21  C   LIG    1        5.727  -5.217  -2.641  0.00  0.00    +0.026 A 
ATOM     22  C   LIG    1        6.679  -4.952  -3.601  0.00  0.00    +0.002 A 
ATOM     23  C   LIG    1        7.058  -3.647  -3.882  0.00  0.00    +0.001 A 
ATOM     24  C   LIG    1        6.485  -2.599  -3.217  0.00  0.00    +0.010 A 
ATOM     25  H   LIG    1        3.711  -4.867  -0.586  0.00  0.00    +0.165 HD
ATOM     26  C   LIG    1        5.511  -2.844  -2.247  0.00  0.00    +0.003 A 
ENDBRANCH  16  17
ENDBRANCH   6  16
ENDBRANCH   2   6
ENDBRANCH   1   3
BRANCH   1  27
ATOM     27  C   LIG    1        6.614   4.008  -3.201  0.00  0.00    +0.234 C 
ATOM     28  N   LIG    1        6.981   5.304  -3.242  0.00  0.00    -0.302 N 
ATOM     29  H   LIG    1        6.306   6.000  -3.223  0.00  0.00    +0.150 HD
ATOM     30  O   LIG    1        7.451   3.137  -3.311  0.00  0.00    -0.274 OA
BRANCH  28  31
ATOM     31  C   LIG    1        8.400   5.662  -3.314  0.00  0.00    +0.169 C 
BRANCH  31  32
ATOM     32  C   LIG    1        9.000   5.616  -1.932  0.00  0.00    +0.234 C 
ATOM     33  N   LIG    1       10.303   5.910  -1.754  0.00  0.00    -0.302 N 
ATOM     34  H   LIG    1       10.854   6.152  -2.514  0.00  0.00    +0.150 HD
ATOM     35  O   LIG    1        8.311   5.314  -0.981  0.00  0.00    -0.274 OA
BRANCH  33  36
ATOM     36  C   LIG    1       10.887   5.865  -0.411  0.00  0.00    +0.163 C 
BRANCH  36  37
ATOM     37  C   LIG    1       10.643   7.179   0.287  0.00  0.00    +0.231 C 
ATOM     38  N   LIG    1       11.094   7.368   1.543  0.00  0.00    -0.328 N 
ATOM     39  H   LIG    1       10.938   8.214   1.992  0.00  0.00    +0.145 HD
ATOM     40  H   LIG    1       11.576   6.660   1.998  0.00  0.00    +0.145 HD
ATOM     41  O   LIG    1       10.041   8.065  -0.281  0.00  0.00    -0.274 OA
ENDBRANCH  36  37
BRANCH  36  42
ATOM     42  C   LIG    1       12.393   5.616  -0.517  0.00  0.00    +0.067 C 
BRANCH  42  43
ATOM     43  C   LIG    1       12.635   4.249  -1.103  0.00  0.00    -0.045 A 
ATOM     44  C   LIG    1       12.740   3.149  -0.272  0.00  0.00    +0.004 A 
ATOM     45  C   LIG    1       12.963   1.895  -0.809  0.00  0.00    +0.000 A 
ATOM     46  C   LIG    1       13.080   1.741  -2.178  0.00  0.00    +0.000 A 
ATOM     47  C   LIG    1       12.973   2.840  -3.009  0.00  0.00    +0.000 A 
ATOM     48  C   LIG    1       12.747   4.093  -2.472  0.00  0.00    +0.004 A 
ENDBRANCH  42  43
ENDBRANCH  36  42
ENDBRANCH  33  36
ENDBRANCH  31  32
BRANCH  31  49
ATOM     49  C   LIG    1        8.541   7.074  -3.884  0.00  0.00    +0.152 C 
BRANCH  49  50
ATOM     50  C   LIG    1        8.066   7.088  -5.314  0.00  0.00    +0.307 C 
ATOM     51  O   LIG    1        7.749   6.046  -5.862  0.00  0.00    -0.251 OA
BRANCH  50  52
ATOM     52  O   LIG    1        7.999   8.142  -5.924  0.00  0.00    -0.481 OA
ATOM     53  H   LIG    1        8.243   8.943  -5.504  0.00  0.00    +0.295 HD
ENDBRANCH  50  52
ENDBRANCH  49  50
ENDBRANCH  31  49
ENDBRANCH  28  31
ENDBRANCH   1  27
BRANCH   1  54
ATOM     54  C   LIG    1        4.342   4.221  -4.170  0.00  0.00    +0.042 C 
BRANCH  54  55
ATOM     55  C   LIG    1        2.856   3.956  -3.921  0.00  0.00    +0.071 C 
BRANCH  55  56
ATOM     56  S   LIG    1        1.881   4.644  -5.287  0.00  0.00    -0.164 S 
ATOM     57  C   LIG    1        0.166   4.250  -4.844  0.00  0.00    +0.084 C 
ENDBRANCH  55  56
ENDBRANCH  54  55
ENDBRANCH   1  54
TORSDOF 20
