REMARK  Name = ZINC04412667
REMARK                            x       y       z     vdW  Elec       q    Type
REMARK                         _______ _______ _______ _____ _____    ______ ____
ROOT
ATOM      1  C   LIG    1        2.408   0.033  -0.020  0.00  0.00    +0.080 A 
ATOM      2  C   LIG    1        1.209  -0.683  -0.013  0.00  0.00    +0.039 A 
ATOM      3  C   LIG    1        0.002  -0.004   0.002  0.00  0.00    +0.026 A 
ATOM      4  C   LIG    1       -0.017   1.386   0.010  0.00  0.00    +0.029 A 
ATOM      5  C   LIG    1        1.166   2.099   0.002  0.00  0.00    -0.007 A 
ATOM      6  C   LIG    1        1.135   3.606   0.010  0.00  0.00    +0.047 C 
ATOM      7  C   LIG    1        2.381   1.433  -0.013  0.00  0.00    +0.132 A 
ENDROOT
BRANCH   1  15
ATOM      8  C   LIG    1        8.052  -4.733  -0.099  0.00  0.00    +0.044 C 
ATOM      9  C   LIG    1        7.265  -3.447  -0.085  0.00  0.00    -0.047 A 
ATOM     10  C   LIG    1        7.933  -2.232  -0.084  0.00  0.00    +0.005 A 
ATOM     11  C   LIG    1        7.228  -1.049  -0.071  0.00  0.00    +0.032 A 
ATOM     12  C   LIG    1        5.832  -1.075  -0.059  0.00  0.00    +0.110 A 
ATOM     13  C   LIG    1        5.160  -2.308  -0.059  0.00  0.00    +0.156 A 
ATOM     14  O   LIG    1        3.838  -2.023  -0.040  0.00  0.00    -0.435 OA
ATOM     15  C   LIG    1        3.699  -0.684  -0.036  0.00  0.00    +0.232 A 
ATOM     16  N   LIG    1        4.876  -0.110  -0.044  0.00  0.00    -0.209 NA
ATOM     17  C   LIG    1        5.886  -3.489  -0.073  0.00  0.00    +0.052 A 
ENDBRANCH   1  15
BRANCH   3  18
ATOM     18  N   LIG    1       -1.201  -0.719   0.010  0.00  0.00    -0.358 N 
ATOM     19  H   LIG    1       -1.189  -1.689   0.004  0.00  0.00    +0.142 HD
ATOM     20  H   LIG    1       -2.047  -0.244   0.020  0.00  0.00    +0.142 HD
ENDBRANCH   3  18
BRANCH   7  21
ATOM     21  O   LIG    1        3.543   2.136  -0.021  0.00  0.00    -0.506 OA
ATOM     22  H   LIG    1        3.871   2.344  -0.906  0.00  0.00    +0.292 HD
ENDBRANCH   7  21
TORSDOF 3
