REMARK  Name = ZINC04639051
REMARK                            x       y       z     vdW  Elec       q    Type
REMARK                         _______ _______ _______ _____ _____    ______ ____
ROOT
ATOM      1  N   LIG    1        2.802  -0.340  -2.528  0.00  0.00    -0.311 N 
ATOM      2  C   LIG    1        3.497  -1.488  -2.742  0.00  0.00    +0.068 A 
ATOM      3  C   LIG    1        3.805  -2.588  -1.938  0.00  0.00    +0.028 A 
ATOM      4  C   LIG    1        4.548  -3.626  -2.454  0.00  0.00    +0.002 A 
ATOM      5  C   LIG    1        4.993  -3.588  -3.767  0.00  0.00    +0.002 A 
ATOM      6  C   LIG    1        4.698  -2.509  -4.574  0.00  0.00    +0.028 A 
ATOM      7  C   LIG    1        3.950  -1.455  -4.071  0.00  0.00    +0.068 A 
ATOM      8  N   LIG    1        3.495  -0.260  -4.603  0.00  0.00    -0.309 N 
ATOM      9  C   LIG    1        2.795   0.381  -3.621  0.00  0.00    +0.175 A 
ENDROOT
BRANCH   9  10
ATOM     10  N   LIG    1        2.177   1.606  -3.759  0.00  0.00    -0.330 N 
ATOM     11  H   LIG    1        2.219   2.078  -4.606  0.00  0.00    +0.145 HD
ATOM     12  H   LIG    1        1.700   1.995  -3.010  0.00  0.00    +0.145 HD
ENDBRANCH   9  10
BRANCH   1  13
ATOM     13  C   LIG    1        2.154   0.032  -1.268  0.00  0.00    +0.156 C 
BRANCH  13  14
ATOM     14  C   LIG    1        0.718  -0.497  -1.257  0.00  0.00    +0.140 C 
BRANCH  14  16
ATOM     15  C   LIG    1       -0.019   1.526   0.010  0.00  0.00    +0.013 C 
ATOM     16  C   LIG    1        0.002  -0.004   0.002  0.00  0.00    -0.010 C 
ATOM     17  C   LIG    1       -1.433  -0.534   0.013  0.00  0.00    +0.013 C 
ATOM     18  C   LIG    1        0.742  -0.511   1.242  0.00  0.00    +0.013 C 
ENDBRANCH  14  16
BRANCH  14  19
ATOM     19  O   LIG    1        0.738  -1.926  -1.265  0.00  0.00    -0.390 OA
ATOM     20  H   LIG    1        1.192  -2.318  -0.506  0.00  0.00    +0.210 HD
ENDBRANCH  14  19
ENDBRANCH  13  14
ENDBRANCH   1  13
BRANCH   8  21
ATOM     21  C   LIG    1        3.719   0.225  -5.968  0.00  0.00    +0.160 C 
BRANCH  21  22
ATOM     22  C   LIG    1        2.602  -0.253  -6.859  0.00  0.00    -0.028 A 
ATOM     23  C   LIG    1        2.710  -1.466  -7.514  0.00  0.00    +0.005 A 
ATOM     24  C   LIG    1        1.685  -1.903  -8.332  0.00  0.00    +0.000 A 
ATOM     25  C   LIG    1        0.552  -1.129  -8.495  0.00  0.00    +0.000 A 
ATOM     26  C   LIG    1        0.443   0.084  -7.840  0.00  0.00    +0.000 A 
ATOM     27  C   LIG    1        1.466   0.520  -7.019  0.00  0.00    +0.005 A 
ENDBRANCH  21  22
ENDBRANCH   8  21
TORSDOF 7
