REMARK  Name = ZINC04671771
REMARK                            x       y       z     vdW  Elec       q    Type
REMARK                         _______ _______ _______ _____ _____    ______ ____
ROOT
ATOM      1  C   LIG    1       -2.950  -3.408  -0.881  0.00  0.00    +0.220 C 
ATOM      2  N   LIG    1       -2.021  -2.433  -0.856  0.00  0.00    -0.268 N 
ATOM      3  C   LIG    1       -1.414  -1.996  -2.042  0.00  0.00    +0.041 A 
ATOM      4  C   LIG    1       -1.565  -2.753  -3.199  0.00  0.00    +0.024 A 
ATOM      5  C   LIG    1       -0.978  -2.339  -4.377  0.00  0.00    +0.002 A 
ATOM      6  C   LIG    1       -0.240  -1.169  -4.406  0.00  0.00    +0.000 A 
ATOM      7  C   LIG    1       -0.088  -0.416  -3.258  0.00  0.00    +0.007 A 
ATOM      8  C   LIG    1       -0.672  -0.826  -2.071  0.00  0.00    -0.005 A 
ATOM      9  C   LIG    1       -0.483   0.017  -0.837  0.00  0.00    +0.115 C 
ATOM     10  C   LIG    1       -1.569  -0.292   0.193  0.00  0.00    +0.050 C 
ATOM     11  C   LIG    1       -1.627  -1.809   0.414  0.00  0.00    +0.081 C 
ATOM     12  C   LIG    1       -2.659  -2.136   1.495  0.00  0.00    +0.028 C 
ATOM     13  O   LIG    1       -3.388  -3.802  -1.942  0.00  0.00    -0.275 OA
ENDROOT
BRANCH   9  14
ATOM     14  N   LIG    1        0.831  -0.267  -0.254  0.00  0.00    -0.264 N 
ATOM     15  C   LIG    1        1.399  -1.477  -0.430  0.00  0.00    +0.217 C 
ATOM     16  C   LIG    1        0.709  -2.518  -1.274  0.00  0.00    +0.109 C 
ATOM     17  O   LIG    1        2.465  -1.727   0.091  0.00  0.00    -0.276 OA
BRANCH  14  18
ATOM     18  C   LIG    1        1.496   0.718   0.485  0.00  0.00    +0.037 A 
ATOM     19  C   LIG    1        0.994   2.012   0.528  0.00  0.00    +0.023 A 
ATOM     20  C   LIG    1        1.650   2.980   1.263  0.00  0.00    +0.002 A 
ATOM     21  C   LIG    1        2.811   2.665   1.946  0.00  0.00    +0.000 A 
ATOM     22  C   LIG    1        3.316   1.378   1.899  0.00  0.00    +0.002 A 
ATOM     23  C   LIG    1        2.661   0.404   1.171  0.00  0.00    +0.023 A 
ENDBRANCH  14  18
ENDBRANCH   9  14
BRANCH   1  24
ATOM     24  C   LIG    1       -3.447  -4.010   0.408  0.00  0.00    +0.096 C 
BRANCH  24  25
ATOM     25  C   LIG    1       -4.306  -5.238   0.101  0.00  0.00    +0.009 C 
BRANCH  25  27
ATOM     26  C   LIG    1       -5.668  -7.077   1.104  0.00  0.00    +0.004 C 
ATOM     27  C   LIG    1       -4.809  -5.848   1.411  0.00  0.00    -0.003 C 
ENDBRANCH  25  27
ENDBRANCH  24  25
ENDBRANCH   1  24
TORSDOF 5
