REMARK  Name = ZINC04103786
REMARK                            x       y       z     vdW  Elec       q    Type
REMARK                         _______ _______ _______ _____ _____    ______ ____
ROOT
ATOM      1  C   LIG    1       -3.489  -2.124   1.267  0.00  0.00    +0.173 C 
ATOM      2  C   LIG    1       -2.874  -2.614  -0.048  0.00  0.00    +0.172 C 
ATOM      3  C   LIG    1       -1.429  -2.115  -0.140  0.00  0.00    +0.176 C 
ATOM      4  C   LIG    1       -1.416  -0.588  -0.026  0.00  0.00    +0.179 C 
ATOM      5  O   LIG    1       -2.030  -0.199   1.204  0.00  0.00    -0.332 OA
ATOM      6  C   LIG    1       -3.396  -0.597   1.327  0.00  0.00    +0.331 C 
ENDROOT
BRANCH   1   9
ATOM      7  C   LIG    1       -2.377  -4.491   4.063  0.00  0.00    +0.109 C 
ATOM      8  C   LIG    1       -3.131  -3.895   2.902  0.00  0.00    +0.210 C 
ATOM      9  N   LIG    1       -2.756  -2.704   2.396  0.00  0.00    -0.304 N 
ATOM     10  H   LIG    1       -2.001  -2.229   2.778  0.00  0.00    +0.149 HD
ATOM     11  O   LIG    1       -4.074  -4.487   2.424  0.00  0.00    -0.276 OA
ENDBRANCH   1   9
BRANCH   2  12
ATOM     12  O   LIG    1       -2.889  -4.043  -0.080  0.00  0.00    -0.387 OA
ATOM     13  H   LIG    1       -2.514  -4.422  -0.886  0.00  0.00    +0.210 HD
ENDBRANCH   2  12
BRANCH   3  14
ATOM     14  O   LIG    1       -0.659  -2.679   0.923  0.00  0.00    -0.387 OA
ATOM     15  H   LIG    1        0.267  -2.402   0.929  0.00  0.00    +0.210 HD
ENDBRANCH   3  14
BRANCH   4  16
ATOM     16  C   LIG    1        0.029  -0.086  -0.057  0.00  0.00    +0.190 C 
BRANCH  16  17
ATOM     17  O   LIG    1        0.036   1.343  -0.067  0.00  0.00    -0.392 OA
ATOM     18  H   LIG    1        0.922   1.731  -0.087  0.00  0.00    +0.210 HD
ENDBRANCH  16  17
ENDBRANCH   4  16
BRANCH   6  19
ATOM     19  O   LIG    1       -3.917  -0.137   2.575  0.00  0.00    -0.462 OA
BRANCH  19  20
ATOM     20  C   LIG    1       -4.103   1.203   2.710  0.00  0.00    +0.125 A 
ATOM     21  C   LIG    1       -3.784   2.054   1.647  0.00  0.00    +0.046 A 
ATOM     22  C   LIG    1       -3.959   3.398   1.751  0.00  0.00    +0.012 A 
ATOM     23  C   LIG    1       -4.466   3.945   2.943  0.00  0.00    -0.018 A 
ATOM     24  C   LIG    1       -4.660   5.330   3.085  0.00  0.00    +0.008 A 
ATOM     25  C   LIG    1       -5.154   5.825   4.252  0.00  0.00    +0.001 A 
ATOM     26  C   LIG    1       -5.472   4.979   5.313  0.00  0.00    +0.001 A 
ATOM     27  C   LIG    1       -5.298   3.633   5.212  0.00  0.00    +0.008 A 
ATOM     28  C   LIG    1       -4.790   3.084   4.021  0.00  0.00    -0.014 A 
ATOM     29  C   LIG    1       -4.603   1.700   3.879  0.00  0.00    +0.054 A 
ENDBRANCH  19  20
ENDBRANCH   6  19
TORSDOF 7
