REMARK  Name = ZINC04521076
REMARK                            x       y       z     vdW  Elec       q    Type
REMARK                         _______ _______ _______ _____ _____    ______ ____
ROOT
ATOM      1  C   LIG    1        0.002  -0.004   0.002  0.00  0.00    +0.079 C 
ENDROOT
BRANCH   1   5
ATOM      2  C   LIG    1        0.596   4.208  -0.389  0.00  0.00    +0.000 A 
ATOM      3  C   LIG    1        1.683   3.353  -0.391  0.00  0.00    +0.000 A 
ATOM      4  C   LIG    1        1.491   1.990  -0.264  0.00  0.00    +0.004 A 
ATOM      5  C   LIG    1        0.212   1.482  -0.136  0.00  0.00    -0.036 A 
ATOM      6  C   LIG    1       -0.875   2.336  -0.141  0.00  0.00    +0.004 A 
ATOM      7  C   LIG    1       -0.683   3.699  -0.262  0.00  0.00    +0.000 A 
ENDBRANCH   1   5
BRANCH   1   8
ATOM      8  C   LIG    1       -0.720  -0.524  -1.214  0.00  0.00    -0.033 A 
ATOM      9  C   LIG    1       -2.040  -0.177  -1.458  0.00  0.00    +0.024 A 
ATOM     10  C   LIG    1       -2.669  -0.670  -2.586  0.00  0.00    +0.111 A 
ATOM     11  N   LIG    1       -2.031  -1.469  -3.418  0.00  0.00    -0.263 NA
ATOM     12  C   LIG    1       -0.778  -1.825  -3.215  0.00  0.00    +0.111 A 
ATOM     13  C   LIG    1       -0.083  -1.367  -2.112  0.00  0.00    +0.024 A 
ENDBRANCH   1   8
BRANCH   1  14
ATOM     14  C   LIG    1       -0.821  -0.283   1.233  0.00  0.00    -0.036 A 
ATOM     15  C   LIG    1       -0.789   0.596   2.300  0.00  0.00    +0.004 A 
ATOM     16  C   LIG    1       -1.547   0.342   3.427  0.00  0.00    +0.000 A 
ATOM     17  C   LIG    1       -2.331  -0.795   3.492  0.00  0.00    +0.000 A 
ATOM     18  C   LIG    1       -2.359  -1.677   2.428  0.00  0.00    +0.000 A 
ATOM     19  C   LIG    1       -1.604  -1.420   1.298  0.00  0.00    +0.004 A 
ENDBRANCH   1  14
TORSDOF 3
