REMARK  Name = ZINC04265681
REMARK                            x       y       z     vdW  Elec       q    Type
REMARK                         _______ _______ _______ _____ _____    ______ ____
ROOT
ATOM      1  C   LIG    1        3.843  -1.470  -1.331  0.00  0.00    +0.217 C 
ATOM      2  O   LIG    1        4.434  -0.980  -2.263  0.00  0.00    -0.287 OA
ENDROOT
BRANCH   1   3
ATOM      3  C   LIG    1        3.711  -0.707  -0.038  0.00  0.00    +0.160 C 
ATOM      4 BR   LIG    1        3.780  -1.962   1.474  0.00  0.00    -0.074 Br
BRANCH   3   8
ATOM      5  C   LIG    1       -0.017   1.378   0.010  0.00  0.00    +0.000 A 
ATOM      6  C   LIG    1        1.171   2.086   0.002  0.00  0.00    +0.000 A 
ATOM      7  C   LIG    1        2.377   1.411  -0.013  0.00  0.00    +0.005 A 
ATOM      8  C   LIG    1        2.396   0.029  -0.020  0.00  0.00    -0.026 A 
ATOM      9  C   LIG    1        1.208  -0.679  -0.012  0.00  0.00    +0.005 A 
ATOM     10  C   LIG    1        0.002  -0.004   0.002  0.00  0.00    +0.000 A 
ENDBRANCH   3   8
ENDBRANCH   1   3
BRANCH   1  11
ATOM     11  C   LIG    1        3.246  -2.825  -1.458  0.00  0.00    +0.217 C 
ATOM     12  O   LIG    1        2.655  -3.315  -0.525  0.00  0.00    -0.287 OA
BRANCH  11  13
ATOM     13  C   LIG    1        3.378  -3.588  -2.751  0.00  0.00    +0.160 C 
ATOM     14 BR   LIG    1        5.123  -3.197  -3.567  0.00  0.00    -0.074 Br
BRANCH  13  15
ATOM     15  C   LIG    1        2.278  -3.173  -3.694  0.00  0.00    -0.026 A 
ATOM     16  C   LIG    1        2.236  -1.879  -4.179  0.00  0.00    +0.005 A 
ATOM     17  C   LIG    1        1.227  -1.498  -5.044  0.00  0.00    +0.000 A 
ATOM     18  C   LIG    1        0.260  -2.410  -5.423  0.00  0.00    +0.000 A 
ATOM     19  C   LIG    1        0.303  -3.704  -4.939  0.00  0.00    +0.000 A 
ATOM     20  C   LIG    1        1.314  -4.087  -4.077  0.00  0.00    +0.005 A 
ENDBRANCH  13  15
ENDBRANCH  11  13
ENDBRANCH   1  11
TORSDOF 5
