REMARK  Name = ZINC04617893
REMARK                            x       y       z     vdW  Elec       q    Type
REMARK                         _______ _______ _______ _____ _____    ______ ____
ROOT
ATOM      1  C   LIG    1        1.468  -2.306   2.645  0.00  0.00    +0.128 A 
ATOM      2  C   LIG    1        1.836  -3.624   2.893  0.00  0.00    +0.040 A 
ATOM      3  C   LIG    1        2.634  -3.623   4.060  0.00  0.00    +0.104 A 
ATOM      4  N   LIG    1        2.741  -2.384   4.489  0.00  0.00    -0.172 NA
ATOM      5  N   LIG    1        2.032  -1.539   3.628  0.00  0.00    -0.271 N 
ATOM      6  H   LIG    1        1.953  -0.576   3.714  0.00  0.00    +0.189 HD
ENDROOT
BRANCH   3   7
ATOM      7  C   LIG    1        3.245  -4.816   4.693  0.00  0.00    +0.046 A 
ATOM      8  C   LIG    1        3.937  -5.743   3.915  0.00  0.00    +0.037 A 
ATOM      9  C   LIG    1        4.505  -6.852   4.507  0.00  0.00    +0.083 A 
ATOM     10 CL   LIG    1        5.366  -8.006   3.537  0.00  0.00    -0.080 Cl
ATOM     11  C   LIG    1        4.389  -7.048   5.878  0.00  0.00    +0.139 A 
ATOM     12  C   LIG    1        3.702  -6.131   6.658  0.00  0.00    +0.093 A 
ATOM     13  C   LIG    1        3.134  -5.012   6.073  0.00  0.00    +0.130 A 
BRANCH  11  14
ATOM     14  O   LIG    1        4.950  -8.143   6.456  0.00  0.00    -0.505 OA
ATOM     15  H   LIG    1        5.862  -8.009   6.751  0.00  0.00    +0.292 HD
ENDBRANCH  11  14
BRANCH  13  16
ATOM     16  O   LIG    1        2.466  -4.109   6.838  0.00  0.00    -0.506 OA
ATOM     17  H   LIG    1        1.522  -4.298   6.935  0.00  0.00    +0.292 HD
ENDBRANCH  13  16
ENDBRANCH   3   7
BRANCH   2  18
ATOM     18  C   LIG    1        1.461  -4.807   2.086  0.00  0.00    -0.013 A 
ATOM     19  C   LIG    1        0.605  -5.772   2.616  0.00  0.00    +0.012 A 
ATOM     20  C   LIG    1        0.258  -6.873   1.861  0.00  0.00    +0.046 A 
ATOM     21  C   LIG    1        0.761  -7.021   0.576  0.00  0.00    +0.120 A 
ATOM     22  C   LIG    1        1.614  -6.063   0.045  0.00  0.00    +0.046 A 
ATOM     23  C   LIG    1        1.960  -4.957   0.791  0.00  0.00    +0.012 A 
BRANCH  21  24
ATOM     24  O   LIG    1        0.417  -8.107  -0.165  0.00  0.00    -0.495 OA
ATOM     25  C   LIG    1        0.971  -8.198  -1.480  0.00  0.00    +0.277 C 
ENDBRANCH  21  24
ENDBRANCH   2  18
BRANCH   1  28
ATOM     26  N   LIG    1        0.364  -0.512   1.414  0.00  0.00    -0.310 N 
ATOM     27  H   LIG    1        0.718   0.118   2.062  0.00  0.00    +0.149 HD
ATOM     28  C   LIG    1        0.637  -1.826   1.534  0.00  0.00    +0.262 C 
ATOM     29  O   LIG    1        0.193  -2.616   0.721  0.00  0.00    -0.269 OA
BRANCH  26  31
ATOM     30  C   LIG    1       -0.619   1.486   0.402  0.00  0.00    +0.024 C 
ATOM     31  C   LIG    1       -0.465  -0.033   0.306  0.00  0.00    +0.101 C 
ENDBRANCH  26  31
ENDBRANCH   1  28
TORSDOF 7
