REMARK  Name = ZINC04275766
REMARK                            x       y       z     vdW  Elec       q    Type
REMARK                         _______ _______ _______ _____ _____    ______ ____
ROOT
ATOM      1  C   LIG    1       -3.019   4.162  -1.363  0.00  0.00    +0.222 C 
ATOM      2  N   LIG    1       -4.182   4.803  -1.594  0.00  0.00    -0.279 N 
ATOM      3  H   LIG    1       -4.762   5.037  -0.853  0.00  0.00    +0.155 HD
ATOM      4  O   LIG    1       -2.294   3.869  -2.289  0.00  0.00    -0.275 OA
ENDROOT
BRANCH   2   5
ATOM      5  C   LIG    1       -4.550   5.126  -2.891  0.00  0.00    +0.084 A 
ATOM      6  C   LIG    1       -5.700   5.773  -3.327  0.00  0.00    +0.065 A 
ATOM      7  C   LIG    1       -5.826   5.986  -4.749  0.00  0.00    +0.022 A 
ATOM      8  C   LIG    1       -4.828   5.533  -5.529  0.00  0.00    +0.048 A 
ATOM      9  S   LIG    1       -3.690   4.814  -4.362  0.00  0.00    -0.081 S 
BRANCH   6  10
ATOM     10  C   LIG    1       -6.733   6.221  -2.388  0.00  0.00    +0.244 C 
ATOM     11  N   LIG    1       -7.836   6.845  -2.846  0.00  0.00    -0.325 N 
ATOM     12  H   LIG    1       -8.519   7.141  -2.225  0.00  0.00    +0.145 HD
ATOM     13  H   LIG    1       -7.946   6.999  -3.798  0.00  0.00    +0.145 HD
ATOM     14  O   LIG    1       -6.595   6.028  -1.194  0.00  0.00    -0.270 OA
ENDBRANCH   6  10
ENDBRANCH   2   5
BRANCH   1  15
ATOM     15  C   LIG    1       -2.620   3.811   0.048  0.00  0.00    +0.131 C 
BRANCH  15  24
ATOM     16  C   LIG    1        2.287   5.270   0.008  0.00  0.00    +0.001 A 
ATOM     17  C   LIG    1        1.064   5.940   0.023  0.00  0.00    +0.001 A 
ATOM     18  C   LIG    1       -0.111   5.254   0.031  0.00  0.00    +0.009 A 
ATOM     19  C   LIG    1       -0.095   3.848   0.024  0.00  0.00    -0.014 A 
ATOM     20  C   LIG    1        1.147   3.167   0.008  0.00  0.00    -0.018 A 
ATOM     21  C   LIG    1        1.163   1.762   0.000  0.00  0.00    +0.008 A 
ATOM     22  C   LIG    1       -0.013   1.076   0.008  0.00  0.00    +0.001 A 
ATOM     23  C   LIG    1       -1.234   1.746   0.017  0.00  0.00    +0.005 A 
ATOM     24  C   LIG    1       -1.288   3.106   0.032  0.00  0.00    -0.031 A 
ATOM     25  C   LIG    1        2.340   3.910   0.000  0.00  0.00    +0.008 A 
ENDBRANCH  15  24
ENDBRANCH   1  15
TORSDOF 4
