REMARK  Name = ZINC04654913
REMARK                            x       y       z     vdW  Elec       q    Type
REMARK                         _______ _______ _______ _____ _____    ______ ____
ROOT
ATOM      1  C   LIG    1        1.084   1.821  -3.361  0.00  0.00    +0.145 C 
ATOM      2  C   LIG    1        0.720   2.189  -4.777  0.00  0.00    +0.017 A 
ATOM      3  C   LIG    1       -0.554   2.658  -5.032  0.00  0.00    +0.027 A 
ATOM      4  C   LIG    1       -0.926   3.011  -6.330  0.00  0.00    +0.052 A 
ATOM      5  C   LIG    1       -0.001   2.889  -7.372  0.00  0.00    +0.022 A 
ATOM      6  C   LIG    1        1.265   2.421  -7.110  0.00  0.00    +0.047 A 
ATOM      7  C   LIG    1        1.633   2.067  -5.813  0.00  0.00    +0.126 A 
ATOM      8  O   LIG    1        2.891   1.601  -5.604  0.00  0.00    -0.483 OA
ATOM      9  C   LIG    1        3.387   1.593  -4.265  0.00  0.00    +0.133 C 
ATOM     10  C   LIG    1        3.641   3.028  -3.800  0.00  0.00    +0.058 C 
ATOM     11  C   LIG    1        4.689   0.792  -4.202  0.00  0.00    +0.058 C 
ATOM     12  C   LIG    1        2.333   0.935  -3.364  0.00  0.00    +0.181 C 
ENDROOT
BRANCH   1  13
ATOM     13  N   LIG    1       -0.028   1.093  -2.745  0.00  0.00    -0.174 NA
ATOM     14  C   LIG    1       -0.603  -0.073  -3.419  0.00  0.00    +0.132 C 
BRANCH  13  15
ATOM     15  S   LIG    1       -0.635   1.588  -1.286  0.00  0.00    +0.032 S 
ATOM     16  O   LIG    1       -0.339   2.977  -1.223  0.00  0.00    -0.158 OA
ATOM     17  O   LIG    1       -1.981   1.133  -1.280  0.00  0.00    -0.158 OA
BRANCH  15  19
ATOM     18  C   LIG    1       -0.144   1.070   1.355  0.00  0.00    +0.029 C 
ATOM     19  C   LIG    1        0.335   0.686  -0.046  0.00  0.00    +0.182 C 
ENDBRANCH  15  19
ENDBRANCH  13  15
ENDBRANCH   1  13
BRANCH   4  20
ATOM     20  C   LIG    1       -2.247   3.497  -6.594  0.00  0.00    +0.099 C 
ATOM     21  N   LIG    1       -3.295   3.882  -6.803  0.00  0.00    -0.191 NA
ENDBRANCH   4  20
BRANCH  12  22
ATOM     22  O   LIG    1        2.004  -0.359  -3.873  0.00  0.00    -0.386 OA
ATOM     23  H   LIG    1        2.752  -0.972  -3.902  0.00  0.00    +0.210 HD
ENDBRANCH  12  22
TORSDOF 5
