REMARK  Name = ZINC04240722
REMARK                            x       y       z     vdW  Elec       q    Type
REMARK                         _______ _______ _______ _____ _____    ______ ____
ROOT
ATOM      1  C   LIG    1        6.556  -0.652  -1.379  0.00  0.00    -0.009 C 
ATOM      2  C   LIG    1        5.406  -1.655  -1.485  0.00  0.00    -0.044 C 
ENDROOT
BRANCH   2   3
ATOM      3  C   LIG    1        5.508  -2.401  -2.791  0.00  0.00    -0.058 A 
ATOM      4  C   LIG    1        5.053  -1.815  -3.958  0.00  0.00    +0.002 A 
ATOM      5  C   LIG    1        5.150  -2.494  -5.158  0.00  0.00    +0.004 A 
ATOM      6  C   LIG    1        5.693  -3.764  -5.193  0.00  0.00    +0.045 A 
ATOM      7  C   LIG    1        6.145  -4.356  -4.022  0.00  0.00    +0.120 A 
ATOM      8  C   LIG    1        6.051  -3.670  -2.820  0.00  0.00    +0.047 A 
BRANCH   7   9
ATOM      9  O   LIG    1        6.678  -5.606  -4.054  0.00  0.00    -0.495 OA
ATOM     10  C   LIG    1        6.743  -6.252  -5.327  0.00  0.00    +0.277 C 
ENDBRANCH   7   9
ENDBRANCH   2   3
BRANCH   2  11
ATOM     11  N   LIG    1        4.119  -0.936  -1.438  0.00  0.00    +0.386 N 
ATOM     12  H   LIG    1        4.219  -0.031  -1.913  0.00  0.00    -0.085 HD
ATOM     13  H   LIG    1        3.401  -1.494  -1.913  0.00  0.00    -0.085 HD
BRANCH  11  14
ATOM     14  C   LIG    1        3.711  -0.707  -0.039  0.00  0.00    -0.046 C 
BRANCH  14  15
ATOM     15  C   LIG    1        2.396   0.029  -0.022  0.00  0.00    -0.064 A 
ATOM     16  C   LIG    1        1.208  -0.679  -0.014  0.00  0.00    +0.002 A 
ATOM     17  C   LIG    1        0.002  -0.004   0.002  0.00  0.00    +0.000 A 
ATOM     18  C   LIG    1       -0.017   1.378   0.010  0.00  0.00    +0.000 A 
ATOM     19  C   LIG    1        1.171   2.086   0.002  0.00  0.00    +0.000 A 
ATOM     20  C   LIG    1        2.377   1.411  -0.014  0.00  0.00    +0.002 A 
ENDBRANCH  14  15
ENDBRANCH  11  14
ENDBRANCH   2  11
TORSDOF 5
