REMARK  Name = ZINC04226385
REMARK                            x       y       z     vdW  Elec       q    Type
REMARK                         _______ _______ _______ _____ _____    ______ ____
ROOT
ATOM      1  C   LIG    1       -0.329   1.742  -2.335  0.00  0.00    +0.017 A 
ATOM      2  C   LIG    1        0.560   1.073  -1.547  0.00  0.00    +0.029 A 
ATOM      3  C   LIG    1        1.470   1.796  -0.764  0.00  0.00    +0.076 A 
ATOM      4  C   LIG    1        1.446   3.211  -0.801  0.00  0.00    +0.041 A 
ATOM      5  C   LIG    1        2.376   3.918   0.000  0.00  0.00    +0.132 A 
ATOM      6  N   LIG    1        3.221   3.217   0.744  0.00  0.00    -0.220 NA
ATOM      7  C   LIG    1        3.207   1.893   0.746  0.00  0.00    +0.223 A 
ATOM      8  C   LIG    1        0.517   3.868  -1.616  0.00  0.00    +0.028 A 
ATOM      9  N   LIG    1        2.369   1.187   0.025  0.00  0.00    -0.235 NA
ATOM     10  C   LIG    1       -0.355   3.133  -2.366  0.00  0.00    +0.019 A 
ATOM     11 BR   LIG    1       -1.612   4.018  -3.468  0.00  0.00    -0.050 Br
ENDROOT
BRANCH   5  12
ATOM     12  N   LIG    1        2.402   5.296   0.008  0.00  0.00    -0.318 N 
ATOM     13  C   LIG    1        1.562   5.833   1.087  0.00  0.00    +0.087 C 
ATOM     14  C   LIG    1        1.554   7.362   1.012  0.00  0.00    -0.063 C 
ATOM     15  N   LIG    1        2.934   7.868   1.129  0.00  0.00    +0.381 N 
ATOM     16  H   LIG    1        2.925   8.893   1.070  0.00  0.00    -0.086 HD
ATOM     17  H   LIG    1        3.325   7.581   2.033  0.00  0.00    -0.086 HD
ATOM     18  C   LIG    1        3.771   7.325   0.042  0.00  0.00    -0.063 C 
ATOM     19  C   LIG    1        3.779   5.797   0.117  0.00  0.00    +0.087 C 
ENDBRANCH   5  12
TORSDOF 1
