REMARK  Name = ZINC04670198
REMARK                            x       y       z     vdW  Elec       q    Type
REMARK                         _______ _______ _______ _____ _____    ______ ____
ROOT
ATOM      1  S   LIG    1       -3.507  -2.982   1.448  0.00  0.00    +0.061 S 
ATOM      2  O   LIG    1       -2.458  -3.279   2.359  0.00  0.00    -0.153 OA
ATOM      3  O   LIG    1       -4.530  -3.917   1.135  0.00  0.00    -0.153 OA
ENDROOT
BRANCH   1   4
ATOM      4  C   LIG    1       -4.312  -1.539   2.060  0.00  0.00    +0.108 A 
ATOM      5  C   LIG    1       -3.630  -0.664   2.884  0.00  0.00    +0.030 A 
ATOM      6  C   LIG    1       -4.261   0.469   3.364  0.00  0.00    +0.024 A 
ATOM      7  C   LIG    1       -5.576   0.726   3.019  0.00  0.00    +0.071 A 
ATOM      8 CL   LIG    1       -6.369   2.147   3.622  0.00  0.00    -0.081 Cl
ATOM      9  C   LIG    1       -6.258  -0.151   2.195  0.00  0.00    +0.142 A 
ATOM     10  C   LIG    1       -5.624  -1.280   1.711  0.00  0.00    +0.062 A 
BRANCH   9  11
ATOM     11  N   LIG    1       -7.665   0.123   1.826  0.00  0.00    +0.007 N 
ATOM     12  O   LIG    1       -8.261  -0.643   1.105  0.00  0.00    -0.130 OA
BRANCH  11  13
ATOM     13  O   LIG    1       -8.218   1.113   2.245  0.00  0.00    -0.396 OA
ATOM     14  H   LIG    1       -7.756   1.707   2.803  0.00  0.00    +0.329 HD
ENDBRANCH  11  13
ENDBRANCH   9  11
ENDBRANCH   1   4
BRANCH   1  15
ATOM     15  N   LIG    1       -2.787  -2.571   0.015  0.00  0.00    -0.177 NA
BRANCH  15  16
ATOM     16  C   LIG    1       -1.413  -2.063   0.004  0.00  0.00    +0.109 C 
BRANCH  16  17
ATOM     17  C   LIG    1       -1.433  -0.534   0.013  0.00  0.00    +0.017 C 
BRANCH  17  19
ATOM     18  C   LIG    1       -0.019   1.526   0.010  0.00  0.00    +0.004 C 
ATOM     19  C   LIG    1        0.002  -0.004   0.002  0.00  0.00    -0.002 C 
ENDBRANCH  17  19
ENDBRANCH  16  17
ENDBRANCH  15  16
BRANCH  15  20
ATOM     20  C   LIG    1       -3.525  -2.714  -1.243  0.00  0.00    +0.109 C 
BRANCH  20  21
ATOM     21  C   LIG    1       -3.187  -4.063  -1.881  0.00  0.00    +0.017 C 
BRANCH  21  22
ATOM     22  C   LIG    1       -3.958  -4.212  -3.195  0.00  0.00    -0.002 C 
ATOM     23  C   LIG    1       -3.620  -5.561  -3.833  0.00  0.00    +0.004 C 
ENDBRANCH  21  22
ENDBRANCH  20  21
ENDBRANCH  15  20
ENDBRANCH   1  15
TORSDOF 10
