REMARK  Name = ZINC04603290
REMARK                            x       y       z     vdW  Elec       q    Type
REMARK                         _______ _______ _______ _____ _____    ______ ____
ROOT
ATOM      1  C   LIG    1        3.868  -6.096  -3.433  0.00  0.00    +0.034 A 
ATOM      2  C   LIG    1        3.327  -7.022  -2.549  0.00  0.00    +0.025 A 
ATOM      3  C   LIG    1        3.875  -8.286  -2.455  0.00  0.00    +0.030 A 
ATOM      4  C   LIG    1        4.961  -8.631  -3.239  0.00  0.00    +0.105 A 
ATOM      5  C   LIG    1        5.502  -7.712  -4.119  0.00  0.00    +0.030 A 
ATOM      6  C   LIG    1        4.955  -6.448  -4.223  0.00  0.00    +0.025 A 
ENDROOT
BRANCH   1   8
ATOM      7  C   LIG    1        2.836  -4.201  -2.430  0.00  0.00    +0.220 C 
ATOM      8  N   LIG    1        3.315  -4.814  -3.530  0.00  0.00    -0.285 N 
ATOM      9  H   LIG    1        3.277  -4.367  -4.390  0.00  0.00    +0.155 HD
ATOM     10  O   LIG    1        2.766  -4.806  -1.381  0.00  0.00    -0.275 OA
BRANCH   7  11
ATOM     11  C   LIG    1        2.388  -2.764  -2.502  0.00  0.00    +0.075 C 
BRANCH  11  12
ATOM     12  C   LIG    1        3.544  -1.849  -2.095  0.00  0.00    +0.009 C 
ATOM     13  C   LIG    1        4.010  -2.212  -0.684  0.00  0.00    +0.004 C 
ENDBRANCH  11  12
BRANCH  11  14
ATOM     14  C   LIG    1        1.208  -2.550  -1.552  0.00  0.00    +0.013 C 
BRANCH  14  15
ATOM     15  C   LIG    1        0.674  -1.125  -1.717  0.00  0.00    +0.000 C 
BRANCH  15  17
ATOM     16  C   LIG    1       -1.041   0.513  -0.932  0.00  0.00    +0.004 C 
ATOM     17  C   LIG    1       -0.506  -0.910  -0.767  0.00  0.00    -0.003 C 
ENDBRANCH  15  17
ENDBRANCH  14  15
ENDBRANCH  11  14
ENDBRANCH   7  11
ENDBRANCH   1   8
BRANCH   4  18
ATOM     18  S   LIG    1        5.657 -10.245  -3.116  0.00  0.00    +0.056 S 
ATOM     19  O   LIG    1        5.313 -10.738  -1.829  0.00  0.00    -0.153 OA
ATOM     20  O   LIG    1        7.003 -10.141  -3.558  0.00  0.00    -0.153 OA
BRANCH  18  21
ATOM     21  N   LIG    1        4.870 -11.202  -4.215  0.00  0.00    -0.204 NA
ATOM     22  H   LIG    1        5.111 -12.138  -4.303  0.00  0.00    +0.144 HD
ATOM     23  H   LIG    1        4.169 -10.828  -4.771  0.00  0.00    +0.144 HD
ENDBRANCH  18  21
ENDBRANCH   4  18
TORSDOF 8
