REMARK  Name = ZINC04216238
REMARK                            x       y       z     vdW  Elec       q    Type
REMARK                         _______ _______ _______ _____ _____    ______ ____
ROOT
ATOM      1  C   LIG    1       -0.016   1.359   0.009  0.00  0.00    +0.203 A 
ATOM      2  N   LIG    1        1.200   1.820   0.000  0.00  0.00    -0.231 NA
ATOM      3  C   LIG    1        2.075   0.785  -0.013  0.00  0.00    +0.147 A 
ATOM      4  C   LIG    1        3.476   0.675  -0.028  0.00  0.00    +0.150 A 
ATOM      5  N   LIG    1        4.017  -0.538  -0.040  0.00  0.00    -0.185 NA
ATOM      6  C   LIG    1        3.262  -1.624  -0.039  0.00  0.00    +0.313 A 
ATOM      7  F   LIG    1        3.863  -2.834  -0.052  0.00  0.00    -0.161 F 
ATOM      8  N   LIG    1        1.945  -1.569  -0.025  0.00  0.00    -0.182 NA
ATOM      9  C   LIG    1        1.316  -0.397  -0.013  0.00  0.00    +0.170 A 
ATOM     10  N   LIG    1        0.002  -0.004   0.002  0.00  0.00    -0.285 N 
ENDROOT
BRANCH  10  11
ATOM     11  C1* LIG    1       -1.167  -0.887   0.009  0.00  0.00    +0.253 C 
ATOM     12  C2* LIG    1       -1.530  -1.288   1.456  0.00  0.00    +0.195 C 
ATOM     13  C3* LIG    1       -3.075  -1.316   1.462  0.00  0.00    +0.178 C 
ATOM     14  C4* LIG    1       -3.462  -0.929   0.017  0.00  0.00    +0.177 C 
ATOM     15  O4* LIG    1       -2.329  -0.186  -0.485  0.00  0.00    -0.346 OA
BRANCH  12  16
ATOM     16  O2* LIG    1       -1.041  -0.316   2.382  0.00  0.00    -0.385 OA
ATOM     17  H2* LIG    1       -1.241  -0.518   3.307  0.00  0.00    +0.210 HD
ENDBRANCH  12  16
BRANCH  13  18
ATOM     18  O3* LIG    1       -3.550  -2.627   1.777  0.00  0.00    -0.386 OA
ATOM     19  H3* LIG    1       -4.514  -2.702   1.794  0.00  0.00    +0.210 HD
ENDBRANCH  13  18
BRANCH  14  20
ATOM     20  C5* LIG    1       -4.718  -0.055   0.019  0.00  0.00    +0.190 C 
BRANCH  20  21
ATOM     21  O5* LIG    1       -5.127   0.195  -1.327  0.00  0.00    -0.392 OA
ATOM     22  H5* LIG    1       -5.919   0.744  -1.402  0.00  0.00    +0.210 HD
ENDBRANCH  20  21
ENDBRANCH  14  20
ENDBRANCH  10  11
BRANCH   4  23
ATOM     23  N   LIG    1        4.274   1.806  -0.030  0.00  0.00    -0.341 N 
ATOM     24  H   LIG    1        5.240   1.718  -0.040  0.00  0.00    +0.144 HD
ATOM     25  H   LIG    1        3.867   2.687  -0.021  0.00  0.00    +0.144 HD
ENDBRANCH   4  23
TORSDOF 6
