REMARK  Name = ZINC04316125
REMARK                            x       y       z     vdW  Elec       q    Type
REMARK                         _______ _______ _______ _____ _____    ______ ____
ROOT
ATOM      1  C   LIG    1        0.034  -0.637   2.387  0.00  0.00    +0.137 A 
ATOM      2  C   LIG    1        0.710  -1.095   3.522  0.00  0.00    +0.077 A 
ATOM      3  C   LIG    1        0.059  -1.256   4.750  0.00  0.00    +0.087 A 
ATOM      4  N   LIG    1       -1.300  -0.930   4.755  0.00  0.00    -0.192 N 
ATOM      5  C   LIG    1       -1.918  -0.487   3.620  0.00  0.00    +0.204 A 
ATOM      6  C   LIG    1       -3.239  -0.259   3.972  0.00  0.00    +0.249 A 
ATOM      7  N   LIG    1       -3.389  -0.556   5.257  0.00  0.00    -0.108 NA
ATOM      8  N   LIG    1       -2.272  -0.956   5.760  0.00  0.00    -0.057 NA
ATOM      9  C   LIG    1        0.852  -1.720   5.801  0.00  0.00    +0.036 A 
ATOM     10  C   LIG    1        2.163  -1.984   5.601  0.00  0.00    +0.048 A 
ATOM     11  S   LIG    1        2.377  -1.588   3.873  0.00  0.00    -0.092 S 
ATOM     12  N   LIG    1       -1.253  -0.341   2.462  0.00  0.00    -0.209 NA
ENDROOT
BRANCH   6  13
ATOM     13  S   LIG    1       -4.506   0.327   2.896  0.00  0.00    +0.047 S 
ATOM     14  O   LIG    1       -3.854   1.027   1.845  0.00  0.00    -0.163 OA
ATOM     15  O   LIG    1       -5.490   0.935   3.721  0.00  0.00    -0.163 OA
BRANCH  13  16
ATOM     16  C   LIG    1       -5.263  -1.087   2.166  0.00  0.00    +0.095 A 
ATOM     17  C   LIG    1       -4.771  -1.600   0.981  0.00  0.00    +0.027 A 
ATOM     18  C   LIG    1       -5.365  -2.709   0.408  0.00  0.00    +0.002 A 
ATOM     19  C   LIG    1       -6.452  -3.304   1.021  0.00  0.00    +0.000 A 
ATOM     20  C   LIG    1       -6.944  -2.791   2.206  0.00  0.00    +0.002 A 
ATOM     21  C   LIG    1       -6.347  -1.685   2.781  0.00  0.00    +0.027 A 
ENDBRANCH  13  16
ENDBRANCH   6  13
BRANCH   1  22
ATOM     22  N   LIG    1        0.711  -0.489   1.189  0.00  0.00    -0.326 N 
ATOM     23  H   LIG    1        1.654  -0.707   1.135  0.00  0.00    +0.148 HD
BRANCH  22  25
ATOM     24  C   LIG    1       -0.019   1.526   0.010  0.00  0.00    +0.027 C 
ATOM     25  C   LIG    1        0.002  -0.004   0.002  0.00  0.00    +0.066 C 
ATOM     26  C   LIG    1        0.718  -0.497  -1.257  0.00  0.00    +0.027 C 
ENDBRANCH  22  25
ENDBRANCH   1  22
TORSDOF 4
