REMARK  Name = ZINC04370978
REMARK                            x       y       z     vdW  Elec       q    Type
REMARK                         _______ _______ _______ _____ _____    ______ ____
ROOT
ATOM      1  C   LIG    1        2.387   4.369  -0.647  0.00  0.00    +0.392 C 
ATOM      2  N   LIG    1        3.492   3.681  -0.645  0.00  0.00    -0.129 NA
ATOM      3  H   LIG    1        4.250   3.981  -0.120  0.00  0.00    +0.306 HD
ENDROOT
BRANCH   1   4
ATOM      4  N   LIG    1        1.279   3.890  -1.308  0.00  0.00    -0.243 N 
ATOM      5  H   LIG    1        0.482   4.439  -1.380  0.00  0.00    +0.265 HD
BRANCH   4   7
ATOM      6  C   LIG    1        0.154   1.832  -1.880  0.00  0.00    +0.062 A 
ATOM      7  C   LIG    1        1.302   2.613  -1.877  0.00  0.00    +0.103 A 
ATOM      8  C   LIG    1        2.473   2.123  -2.441  0.00  0.00    +0.062 A 
ATOM      9  C   LIG    1        2.493   0.860  -3.002  0.00  0.00    +0.046 A 
ATOM     10 CL   LIG    1        3.956   0.247  -3.707  0.00  0.00    -0.083 Cl
ATOM     11  C   LIG    1        1.347   0.084  -3.004  0.00  0.00    +0.040 A 
ATOM     12  C   LIG    1        0.179   0.570  -2.443  0.00  0.00    +0.046 A 
ATOM     13 CL   LIG    1       -1.256  -0.407  -2.446  0.00  0.00    -0.083 Cl
ENDBRANCH   4   7
ENDBRANCH   1   4
BRANCH   1  14
ATOM     14  N   LIG    1        2.327   5.579   0.015  0.00  0.00    -0.189 N 
ATOM     15  H   LIG    1        3.130   5.962   0.400  0.00  0.00    +0.271 HD
BRANCH  14  16
ATOM     16  C   LIG    1        1.129   6.240   0.128  0.00  0.00    +0.350 C 
ATOM     17  N   LIG    1        1.111   7.556   0.331  0.00  0.00    -0.291 N 
ATOM     18  H   LIG    1        1.945   8.047   0.399  0.00  0.00    +0.255 HD
ATOM     19  H   LIG    1        0.265   8.023   0.411  0.00  0.00    +0.255 HD
BRANCH  16  20
ATOM     20  N   LIG    1       -0.015   5.566   0.035  0.00  0.00    -0.291 N 
ATOM     21  H   LIG    1       -0.849   6.043  -0.101  0.00  0.00    +0.255 HD
ATOM     22  H   LIG    1       -0.015   4.599   0.103  0.00  0.00    +0.255 HD
ENDBRANCH  16  20
ENDBRANCH  14  16
ENDBRANCH   1  14
TORSDOF 5
