REMARK  Name = ZINC04517568
REMARK                            x       y       z     vdW  Elec       q    Type
REMARK                         _______ _______ _______ _____ _____    ______ ____
ROOT
ATOM      1  S   LIG    1       -5.226  -3.190   2.405  0.00  0.00    +0.059 S 
ATOM      2  O   LIG    1       -5.410  -3.341   3.806  0.00  0.00    -0.153 OA
ATOM      3  O   LIG    1       -5.339  -4.280   1.500  0.00  0.00    -0.153 OA
ENDROOT
BRANCH   1   9
ATOM      4  C   LIG    1       -1.527   0.304   3.428  0.00  0.00    +0.037 A 
ATOM      5  C   LIG    1       -2.412   0.886   4.311  0.00  0.00    +0.024 A 
ATOM      6  C   LIG    1       -3.686   0.356   4.494  0.00  0.00    +0.002 A 
ATOM      7  C   LIG    1       -4.093  -0.748   3.809  0.00  0.00    +0.010 A 
ATOM      8  C   LIG    1       -3.222  -1.371   2.900  0.00  0.00    +0.010 A 
ATOM      9  C   LIG    1       -3.616  -2.512   2.179  0.00  0.00    +0.113 A 
ATOM     10  C   LIG    1       -2.752  -3.080   1.294  0.00  0.00    +0.029 A 
ATOM     11  C   LIG    1       -1.474  -2.559   1.103  0.00  0.00    +0.003 A 
ATOM     12  C   LIG    1       -1.057  -1.458   1.788  0.00  0.00    +0.010 A 
ATOM     13  C   LIG    1       -1.925  -0.838   2.700  0.00  0.00    +0.005 A 
BRANCH   4  15
ATOM     14  C   LIG    1        0.858   0.380   4.086  0.00  0.00    +0.129 C 
ATOM     15  N   LIG    1       -0.254   0.842   3.252  0.00  0.00    -0.336 N 
ATOM     16  C   LIG    1       -0.028   1.870   2.233  0.00  0.00    +0.129 C 
ENDBRANCH   4  15
ENDBRANCH   1   9
BRANCH   1  17
ATOM     17  N   LIG    1       -6.314  -2.046   1.906  0.00  0.00    -0.190 NA
ATOM     18  H   LIG    1       -6.933  -1.655   2.542  0.00  0.00    +0.148 HD
BRANCH  17  19
ATOM     19  C   LIG    1       -6.340  -1.623   0.503  0.00  0.00    +0.110 C 
BRANCH  19  20
ATOM     20  C   LIG    1       -7.652  -0.890   0.216  0.00  0.00    +0.054 C 
BRANCH  20  21
ATOM     21  C   LIG    1       -7.679  -0.455  -1.227  0.00  0.00    -0.021 A 
ATOM     22  C   LIG    1       -7.312   0.743  -1.706  0.00  0.00    +0.087 A 
ATOM     23  N   LIG    1       -7.474   0.772  -3.065  0.00  0.00    -0.360 N 
ATOM     24  C   LIG    1       -7.961  -0.439  -3.504  0.00  0.00    +0.047 A 
ATOM     25  C   LIG    1       -8.298  -0.938  -4.757  0.00  0.00    +0.026 A 
ATOM     26  C   LIG    1       -8.758  -2.232  -4.878  0.00  0.00    +0.002 A 
ATOM     27  C   LIG    1       -8.902  -3.039  -3.759  0.00  0.00    +0.001 A 
ATOM     28  C   LIG    1       -8.581  -2.567  -2.517  0.00  0.00    +0.010 A 
ATOM     29  H   LIG    1       -7.274   1.532  -3.634  0.00  0.00    +0.165 HD
ATOM     30  C   LIG    1       -8.105  -1.263  -2.372  0.00  0.00    +0.003 A 
ENDBRANCH  20  21
ENDBRANCH  19  20
ENDBRANCH  17  19
ENDBRANCH   1  17
TORSDOF 6
