REMARK  Name = ZINC04213833
REMARK                            x       y       z     vdW  Elec       q    Type
REMARK                         _______ _______ _______ _____ _____    ______ ____
ROOT
ATOM      1  C   LIG    1       -0.039   1.502  -0.019  0.00  0.00    +0.047 C 
ATOM      2  C   LIG    1       -0.006  -0.005  -0.012  0.00  0.00    -0.008 A 
ATOM      3  C   LIG    1        0.061  -0.715  -1.211  0.00  0.00    +0.014 A 
ATOM      4  C   LIG    1        0.090  -2.118  -1.153  0.00  0.00    +0.061 A 
ATOM      5  C   LIG    1        0.052  -2.747   0.101  0.00  0.00    +0.111 A 
ATOM      6  N   LIG    1       -0.011  -2.033   1.212  0.00  0.00    -0.236 NA
ATOM      7  C   LIG    1       -0.035  -0.705   1.193  0.00  0.00    +0.152 A 
ENDROOT
BRANCH   5   8
ATOM      8  C   LIG    1        0.082  -4.226   0.181  0.00  0.00    +0.092 A 
ATOM      9  C   LIG    1        0.617  -4.844   1.317  0.00  0.00    +0.031 A 
ATOM     10  C   LIG    1        0.644  -6.222   1.395  0.00  0.00    +0.016 A 
ATOM     11  C   LIG    1        0.130  -6.959   0.320  0.00  0.00    +0.049 A 
ATOM     12  C   LIG    1       -0.390  -6.264  -0.792  0.00  0.00    +0.124 A 
ATOM     13  C   LIG    1       -0.923  -7.061  -1.927  0.00  0.00    +0.233 C 
ATOM     14  C   LIG    1       -0.397  -8.464  -2.035  0.00  0.00    +0.150 C 
ATOM     15  C   LIG    1       -0.119  -9.159  -0.763  0.00  0.00    +0.191 C 
ATOM     16  N   LIG    1       -0.196  -9.037  -3.190  0.00  0.00    -0.293 NA
ATOM     17  H   LIG    1       -0.387  -8.555  -4.010  0.00  0.00    +0.187 HD
ATOM     18  O   LIG    1       -1.729  -6.608  -2.714  0.00  0.00    -0.283 OA
ATOM     19  C   LIG    1        0.131  -8.427   0.351  0.00  0.00    +0.170 C 
ATOM     20  N   LIG    1       -0.403  -4.943  -0.822  0.00  0.00    -0.241 NA
BRANCH  15  21
ATOM     21  O   LIG    1       -0.115 -10.519  -0.708  0.00  0.00    -0.489 OA
ATOM     22  C   LIG    1        0.162 -11.116   0.560  0.00  0.00    +0.277 C 
ENDBRANCH  15  21
BRANCH  19  23
ATOM     23  O   LIG    1        0.388  -9.065   1.522  0.00  0.00    -0.503 OA
ATOM     24  H   LIG    1        0.562  -8.569   2.298  0.00  0.00    +0.292 HD
ENDBRANCH  19  23
ENDBRANCH   5   8
BRANCH   3  25
ATOM     25  C   LIG    1        0.098  -0.007  -2.513  0.00  0.00    +0.030 A 
ATOM     26  C   LIG    1        1.321   0.350  -3.079  0.00  0.00    +0.016 A 
ATOM     27  C   LIG    1        1.356   1.009  -4.290  0.00  0.00    +0.050 A 
ATOM     28  C   LIG    1        0.175   1.320  -4.950  0.00  0.00    +0.165 A 
ATOM     29  C   LIG    1       -1.050   0.969  -4.394  0.00  0.00    +0.204 A 
ATOM     30  C   LIG    1       -1.092   0.300  -3.178  0.00  0.00    +0.170 A 
BRANCH  28  31
ATOM     31  O   LIG    1        0.216   1.970  -6.144  0.00  0.00    -0.491 OA
ATOM     32  C   LIG    1        1.507   2.301  -6.658  0.00  0.00    +0.277 C 
ENDBRANCH  28  31
BRANCH  29  33
ATOM     33  O   LIG    1       -2.206   1.276  -5.043  0.00  0.00    -0.488 OA
ATOM     34  C   LIG    1       -2.713   0.304  -5.960  0.00  0.00    +0.277 C 
ENDBRANCH  29  33
BRANCH  30  35
ATOM     35  O   LIG    1       -2.288  -0.050  -2.634  0.00  0.00    -0.503 OA
ATOM     36  H   LIG    1       -2.669   0.624  -2.055  0.00  0.00    +0.292 HD
ENDBRANCH  30  35
ENDBRANCH   3  25
BRANCH   4  37
ATOM     37  N   LIG    1        0.155  -2.870  -2.316  0.00  0.00    -0.356 N 
ATOM     38  H   LIG    1        0.108  -3.837  -2.271  0.00  0.00    +0.142 HD
ATOM     39  H   LIG    1        0.248  -2.428  -3.175  0.00  0.00    +0.142 HD
ENDBRANCH   4  37
BRANCH   7  40
ATOM     40  C   LIG    1       -0.099   0.040   2.467  0.00  0.00    +0.358 C 
ATOM     41  O   LIG    1       -0.022   1.253   2.466  0.00  0.00    -0.243 OA
BRANCH  40  42
ATOM     42  O   LIG    1       -0.243  -0.624   3.630  0.00  0.00    -0.463 OA
ATOM     43  C   LIG    1       -0.298   0.160   4.823  0.00  0.00    +0.280 C 
ENDBRANCH  40  42
ENDBRANCH   7  40
TORSDOF 10
