REMARK  Name = ZINC04099970
REMARK                            x       y       z     vdW  Elec       q    Type
REMARK                         _______ _______ _______ _____ _____    ______ ____
ROOT
ATOM      1  C   LIG    1       -0.062   1.031   2.429  0.00  0.00    -0.096 C 
ATOM      2  N   LIG    1       -0.728   1.551   1.215  0.00  0.00    +0.380 N 
ATOM      3  H   LIG    1       -1.692   1.200   1.187  0.00  0.00    -0.082 HD
ATOM      4  C   LIG    1       -0.754   3.029   1.247  0.00  0.00    -0.060 C 
ATOM      5  C   LIG    1       -1.495   3.536   0.008  0.00  0.00    +0.088 C 
ATOM      6  N   LIG    1       -0.806   3.062  -1.200  0.00  0.00    -0.317 N 
ATOM      7  C   LIG    1       -0.754   1.593  -1.231  0.00  0.00    +0.088 C 
ATOM      8  C   LIG    1       -0.013   1.086   0.008  0.00  0.00    -0.060 C 
ENDROOT
BRANCH   6   9
ATOM      9  C   LIG    1       -1.411   3.563  -2.349  0.00  0.00    +0.144 A 
ATOM     10  C   LIG    1       -1.565   4.939  -2.515  0.00  0.00    +0.048 A 
ATOM     11  C   LIG    1       -2.168   5.388  -3.678  0.00  0.00    +0.045 A 
ATOM     12  C   LIG    1       -2.592   4.441  -4.602  0.00  0.00    +0.152 A 
ATOM     13 CL   LIG    1       -3.361   4.946  -6.074  0.00  0.00    -0.060 Cl
ATOM     14  N   LIG    1       -2.410   3.157  -4.360  0.00  0.00    -0.136 NA
ATOM     15  N   LIG    1       -1.847   2.735  -3.286  0.00  0.00    -0.133 NA
ENDBRANCH   6   9
TORSDOF 1
