REMARK  Name = ZINC04262465
REMARK                            x       y       z     vdW  Elec       q    Type
REMARK                         _______ _______ _______ _____ _____    ______ ____
ROOT
ATOM      1  C   LIG    1        0.220   1.671   0.250  0.00  0.00    +0.020 C 
ATOM      2  C   LIG    1        0.262   0.153   0.164  0.00  0.00    +0.034 C 
ATOM      3  C   LIG    1       -1.099  -0.530   0.084  0.00  0.00    +0.034 C 
ATOM      4  C   LIG    1       -1.930   0.014   1.264  0.00  0.00    +0.126 C 
ATOM      5  C   LIG    1       -1.171   0.226   2.573  0.00  0.00    -0.035 C 
ATOM      6  C   LIG    1        0.189  -0.035   2.568  0.00  0.00    +0.008 C 
ATOM      7  C   LIG    1        1.025   0.226   3.869  0.00  0.00    +0.225 C 
ATOM      8  C   LIG    1        0.325   0.642   5.043  0.00  0.00    +0.179 A 
ATOM      9  C   LIG    1       -1.023   0.805   4.981  0.00  0.00    +0.029 A 
ATOM     10  C   LIG    1       -1.509   1.032   6.191  0.00  0.00    +0.101 A 
ATOM     11  C   LIG    1       -2.944   1.207   6.398  0.00  0.00    +0.343 C 
ATOM     12  O   LIG    1       -3.730   0.925   5.232  0.00  0.00    -0.454 OA
ATOM     13  C   LIG    1       -3.222   0.220   4.125  0.00  0.00    +0.217 C 
ATOM     14  O   LIG    1       -3.511   1.574   7.458  0.00  0.00    -0.245 OA
ATOM     15  C   LIG    1       -0.465   1.001   7.077  0.00  0.00    +0.211 A 
ATOM     16  O   LIG    1        0.658   0.828   6.289  0.00  0.00    -0.459 OA
ATOM     17  O   LIG    1        2.245   0.100   3.804  0.00  0.00    -0.284 OA
ATOM     18  C   LIG    1       -1.911   0.900   3.694  0.00  0.00    +0.059 C 
ATOM     19  C   LIG    1       -2.156   2.308   3.304  0.00  0.00    +0.025 C 
ATOM     20  C   LIG    1        1.261  -0.268  -0.953  0.00  0.00    +0.140 C 
ATOM     21  O   LIG    1        1.038  -0.590  -2.079  0.00  0.00    -0.297 OA
ATOM     22  C   LIG    1        2.648  -0.297  -0.226  0.00  0.00    +0.075 C 
ATOM     23  C   LIG    1        2.368  -0.058   1.298  0.00  0.00    +0.017 C 
ATOM     24  C   LIG    1        0.984  -0.542   1.420  0.00  0.00    +0.036 C 
ENDROOT
BRANCH   4  25
ATOM     25  C   LIG    1       -2.929  -1.026   1.484  0.00  0.00    +0.314 C 
ATOM     26  O   LIG    1       -2.580  -2.156   1.733  0.00  0.00    -0.250 OA
BRANCH  25  27
ATOM     27  O   LIG    1       -4.236  -0.729   1.410  0.00  0.00    -0.468 OA
ATOM     28  C   LIG    1       -5.158  -1.796   1.637  0.00  0.00    +0.280 C 
ENDBRANCH  25  27
ENDBRANCH   4  25
BRANCH  13  29
ATOM     29  C   LIG    1       -2.964  -1.249   4.580  0.00  0.00    +0.205 C 
BRANCH  29  30
ATOM     30  O   LIG    1       -4.209  -1.874   4.899  0.00  0.00    -0.379 OA
ATOM     31  C   LIG    1       -4.085  -3.231   5.329  0.00  0.00    +0.194 C 
ENDBRANCH  29  30
ENDBRANCH  13  29
TORSDOF 4
