REMARK  Name = ZINC04721990
REMARK                            x       y       z     vdW  Elec       q    Type
REMARK                         _______ _______ _______ _____ _____    ______ ____
ROOT
ATOM      1  C   LIG    1       -0.187   4.269   0.034  0.00  0.00    +0.000 A 
ATOM      2  C   LIG    1       -1.342   3.509   0.038  0.00  0.00    +0.000 A 
ATOM      3  C   LIG    1       -1.256   2.132   0.032  0.00  0.00    +0.004 A 
ATOM      4  C   LIG    1       -0.018   1.502   0.010  0.00  0.00    -0.046 A 
ATOM      5  C   LIG    1        1.131   2.259   0.003  0.00  0.00    -0.044 A 
ATOM      6  C   LIG    1        2.507   1.644  -0.022  0.00  0.00    +0.034 C 
ATOM      7  C   LIG    1        2.446   0.176   0.393  0.00  0.00    -0.011 C 
ATOM      8  C   LIG    1        1.368  -0.520  -0.446  0.00  0.00    -0.071 C 
ATOM      9  C   LIG    1        0.002  -0.004   0.002  0.00  0.00    +0.019 C 
ATOM     10  C   LIG    1        1.043   3.645   0.018  0.00  0.00    +0.004 A 
ENDROOT
BRANCH   8  11
ATOM     11  N   LIG    1        1.436  -1.974  -0.213  0.00  0.00    +0.380 N 
ATOM     12  H   LIG    1        1.267  -2.165   0.781  0.00  0.00    -0.090 HD
ATOM     13  H   LIG    1        2.358  -2.325  -0.467  0.00  0.00    -0.090 HD
ATOM     14  H   LIG    1        0.727  -2.450  -0.768  0.00  0.00    -0.090 HD
ENDBRANCH   8  11
TORSDOF 1
