REMARK  Name = ZINC04600602
REMARK                            x       y       z     vdW  Elec       q    Type
REMARK                         _______ _______ _______ _____ _____    ______ ____
ROOT
ATOM      1  C   LIG    1        1.176   2.080   0.002  0.00  0.00    +0.124 A 
ATOM      2  C   LIG    1       -0.017   1.363   0.009  0.00  0.00    +0.046 A 
ATOM      3  C   LIG    1        0.002  -0.004   0.002  0.00  0.00    +0.016 A 
ATOM      4  C   LIG    1        1.219  -0.682  -0.013  0.00  0.00    +0.029 A 
ATOM      5  C   LIG    1        2.428   0.032  -0.021  0.00  0.00    +0.140 A 
ATOM      6  O   LIG    1        3.447  -0.854  -0.035  0.00  0.00    -0.454 OA
ATOM      7  C   LIG    1        2.995  -2.129  -0.038  0.00  0.00    +0.147 A 
ATOM      8  C   LIG    1        3.663  -3.357  -0.051  0.00  0.00    +0.044 A 
ATOM      9  C   LIG    1        2.933  -4.559  -0.051  0.00  0.00    +0.085 A 
ATOM     10  C   LIG    1        1.531  -4.533  -0.037  0.00  0.00    +0.061 A 
ATOM     11  C   LIG    1        0.859  -3.304  -0.024  0.00  0.00    +0.085 A 
ATOM     12  C   LIG    1        1.596  -2.105  -0.024  0.00  0.00    +0.048 A 
ATOM     13  C   LIG    1        2.393   1.420  -0.013  0.00  0.00    +0.092 A 
ENDROOT
BRANCH   8  14
ATOM     14  C   LIG    1        5.143  -3.392  -0.065  0.00  0.00    -0.010 A 
ATOM     15  C   LIG    1        5.863  -2.902  -1.161  0.00  0.00    +0.028 A 
ATOM     16  C   LIG    1        7.241  -2.950  -1.131  0.00  0.00    +0.111 A 
ATOM     17  N   LIG    1        7.879  -3.458  -0.094  0.00  0.00    -0.263 NA
ATOM     18  C   LIG    1        7.239  -3.934   0.957  0.00  0.00    +0.111 A 
ATOM     19  C   LIG    1        5.861  -3.921   1.013  0.00  0.00    +0.028 A 
ENDBRANCH   8  14
BRANCH  10  20
ATOM     20  N   LIG    1        0.813  -5.719  -0.037  0.00  0.00    -0.356 N 
ATOM     21  H   LIG    1        1.280  -6.569  -0.046  0.00  0.00    +0.142 HD
ATOM     22  H   LIG    1       -0.157  -5.699  -0.027  0.00  0.00    +0.142 HD
ENDBRANCH  10  20
BRANCH   1  24
ATOM     23  C   LIG    1       -0.141   4.058   0.024  0.00  0.00    +0.277 C 
ATOM     24  O   LIG    1        1.146   3.438   0.009  0.00  0.00    -0.495 OA
ENDBRANCH   1  24
BRANCH   9  25
ATOM     25  C   LIG    1        3.624  -5.813  -0.065  0.00  0.00    +0.102 C 
ATOM     26  N   LIG    1        4.172  -6.808  -0.077  0.00  0.00    -0.191 NA
ENDBRANCH   9  25
BRANCH  11  27
ATOM     27  C   LIG    1       -0.573  -3.267  -0.011  0.00  0.00    +0.102 C 
ATOM     28  N   LIG    1       -1.708  -3.238   0.000  0.00  0.00    -0.191 NA
ENDBRANCH  11  27
TORSDOF 5
