REMARK  Name = ZINC04656472
REMARK                            x       y       z     vdW  Elec       q    Type
REMARK                         _______ _______ _______ _____ _____    ______ ____
ROOT
ATOM      1  C   LIG    1        5.317  -1.604   1.466  0.00  0.00    +0.124 A 
ATOM      2  C   LIG    1        6.043  -2.005   0.348  0.00  0.00    +0.046 A 
ATOM      3  C   LIG    1        7.227  -2.670   0.498  0.00  0.00    +0.018 A 
ATOM      4  C   LIG    1        7.710  -2.947   1.780  0.00  0.00    +0.059 A 
ATOM      5  C   LIG    1        6.985  -2.542   2.915  0.00  0.00    +0.134 A 
ATOM      6  O   LIG    1        7.449  -2.793   4.161  0.00  0.00    -0.491 OA
ATOM      7  C   LIG    1        8.385  -3.855   4.343  0.00  0.00    +0.237 C 
ATOM      8  C   LIG    1        9.558  -3.673   3.368  0.00  0.00    +0.120 C 
ATOM      9  C   LIG    1        8.978  -3.668   1.965  0.00  0.00    +0.170 C 
ATOM     10  O   LIG    1        9.533  -4.230   1.043  0.00  0.00    -0.292 OA
ATOM     11  C   LIG    1        5.787  -1.866   2.745  0.00  0.00    +0.092 A 
ENDROOT
BRANCH   1  12
ATOM     12  O   LIG    1        4.141  -0.946   1.304  0.00  0.00    -0.487 OA
BRANCH  12  13
ATOM     13  C   LIG    1        3.711  -0.707  -0.038  0.00  0.00    +0.264 C 
BRANCH  13  17
ATOM     14  C   LIG    1       -0.017   1.378   0.010  0.00  0.00    +0.000 A 
ATOM     15  C   LIG    1        1.171   2.086   0.002  0.00  0.00    +0.000 A 
ATOM     16  C   LIG    1        2.377   1.411  -0.013  0.00  0.00    +0.007 A 
ATOM     17  C   LIG    1        2.396   0.029  -0.020  0.00  0.00    -0.010 A 
ATOM     18  C   LIG    1        1.208  -0.679  -0.012  0.00  0.00    +0.007 A 
ATOM     19  C   LIG    1        0.002  -0.004   0.002  0.00  0.00    +0.000 A 
ENDBRANCH  13  17
ENDBRANCH  12  13
ENDBRANCH   1  12
TORSDOF 3
