REMARK  Name = ZINC04502282
REMARK                            x       y       z     vdW  Elec       q    Type
REMARK                         _______ _______ _______ _____ _____    ______ ____
ROOT
ATOM      1  N   LIG    1       -1.191  -0.719   0.010  0.00  0.00    -0.317 N 
ATOM      2  C   LIG    1       -1.192  -2.190   0.008  0.00  0.00    +0.087 C 
ATOM      3  C   LIG    1       -2.110  -2.677   1.134  0.00  0.00    -0.063 C 
ATOM      4  N   LIG    1       -3.438  -2.070   0.979  0.00  0.00    +0.381 N 
ATOM      5  H   LIG    1       -4.063  -2.448   1.675  0.00  0.00    -0.086 HD
ATOM      6  H   LIG    1       -3.796  -2.280   0.059  0.00  0.00    -0.086 HD
ATOM      7  C   LIG    1       -3.345  -0.614   1.146  0.00  0.00    -0.063 C 
ATOM      8  C   LIG    1       -2.489  -0.025   0.026  0.00  0.00    +0.087 C 
ENDROOT
BRANCH   1  15
ATOM      9  C   LIG    1       -0.009   1.375  -0.203  0.00  0.00    +0.048 A 
ATOM     10  C   LIG    1        1.206   2.041  -0.202  0.00  0.00    +0.045 A 
ATOM     11  C   LIG    1        2.359   1.295   0.004  0.00  0.00    +0.152 A 
ATOM     12 CL   LIG    1        3.909   2.077   0.015  0.00  0.00    -0.060 Cl
ATOM     13  N   LIG    1        2.277  -0.008   0.190  0.00  0.00    -0.136 NA
ATOM     14  N   LIG    1        1.154  -0.631   0.190  0.00  0.00    -0.133 NA
ATOM     15  C   LIG    1        0.002  -0.004   0.002  0.00  0.00    +0.144 A 
ENDBRANCH   1  15
TORSDOF 1
