REMARK  Name = ZINC04533917
REMARK                            x       y       z     vdW  Elec       q    Type
REMARK                         _______ _______ _______ _____ _____    ______ ____
ROOT
ATOM      1  C   LIG    1       -1.261  -0.747   0.010  0.00  0.00    +0.226 C 
ATOM      2  C   LIG    1       -1.409  -1.569  -1.295  0.00  0.00    +0.088 C 
ATOM      3  C   LIG    1       -2.370  -2.697  -0.824  0.00  0.00    +0.146 C 
ATOM      4  C   LIG    1       -1.937  -2.906   0.643  0.00  0.00    +0.132 C 
ATOM      5  O   LIG    1       -1.262  -1.717   1.069  0.00  0.00    -0.353 OA
ENDROOT
BRANCH   1   9
ATOM      6  C   LIG    1        1.147   3.556   0.010  0.00  0.00    +0.051 C 
ATOM      7  C   LIG    1        1.147   2.049   0.002  0.00  0.00    +0.030 A 
ATOM      8  C   LIG    1       -0.017   1.364   0.009  0.00  0.00    +0.101 A 
ATOM      9  N   LIG    1        0.002  -0.004   0.002  0.00  0.00    -0.274 N 
ATOM     10  C   LIG    1        1.169  -0.673  -0.012  0.00  0.00    +0.331 A 
ATOM     11  N   LIG    1        2.344  -0.016  -0.020  0.00  0.00    -0.275 N 
ATOM     12  H   LIG    1        3.201  -0.530  -0.031  0.00  0.00    +0.173 HD
ATOM     13  O   LIG    1        1.163  -1.889  -0.018  0.00  0.00    -0.246 OA
ATOM     14  C   LIG    1        2.368   1.332  -0.014  0.00  0.00    +0.257 A 
ATOM     15  O   LIG    1        3.430   1.927  -0.021  0.00  0.00    -0.267 OA
ENDBRANCH   1   9
BRANCH   3  16
ATOM     16  O   LIG    1       -2.171  -3.888  -1.588  0.00  0.00    -0.389 OA
ATOM     17  H   LIG    1       -2.428  -3.807  -2.516  0.00  0.00    +0.210 HD
ENDBRANCH   3  16
BRANCH   4  18
ATOM     18  C   LIG    1       -3.167  -3.147   1.520  0.00  0.00    -0.052 C 
BRANCH  18  19
ATOM     19  N   LIG    1       -2.731  -3.357   2.912  0.00  0.00    +0.380 N 
ATOM     20  H   LIG    1       -2.133  -4.190   2.956  0.00  0.00    -0.090 HD
ATOM     21  H   LIG    1       -3.541  -3.497   3.514  0.00  0.00    -0.090 HD
ATOM     22  H   LIG    1       -2.202  -2.550   3.238  0.00  0.00    -0.090 HD
ENDBRANCH  18  19
ENDBRANCH   4  18
TORSDOF 4
