REMARK  Name = ZINC04394394
REMARK                            x       y       z     vdW  Elec       q    Type
REMARK                         _______ _______ _______ _____ _____    ______ ____
ROOT
ATOM      1  C   LIG    1        3.694   5.903   0.004  0.00  0.00    +0.133 A 
ATOM      2  C   LIG    1        4.460   4.749   0.110  0.00  0.00    +0.047 A 
ATOM      3  C   LIG    1        3.849   3.514   0.119  0.00  0.00    +0.014 A 
ATOM      4  C   LIG    1        2.460   3.423   0.022  0.00  0.00    +0.007 A 
ATOM      5  C   LIG    1        1.694   4.585  -0.089  0.00  0.00    +0.014 A 
ATOM      6  C   LIG    1        2.311   5.817  -0.093  0.00  0.00    +0.047 A 
ENDROOT
BRANCH   4   7
ATOM      7  C   LIG    1        1.801   2.099   0.032  0.00  0.00    +0.099 C 
ATOM      8  N   LIG    1        2.377   0.941   0.123  0.00  0.00    -0.276 NA
ATOM      9  C   LIG    1        1.624  -0.292   0.121  0.00  0.00    +0.154 C 
ATOM     10  C   LIG    1        0.101  -0.063   0.000  0.00  0.00    +0.099 C 
ATOM     11  S   LIG    1        0.053   1.769  -0.081  0.00  0.00    -0.104 S 
ENDBRANCH   4   7
BRANCH   1  12
ATOM     12  O   LIG    1        4.299   7.119  -0.005  0.00  0.00    -0.412 OA
BRANCH  12  15
ATOM     13  N   LIG    1        5.743   8.572  -1.124  0.00  0.00    -0.281 N 
ATOM     14  H   LIG    1        5.745   9.163  -0.355  0.00  0.00    +0.152 HD
ATOM     15  C   LIG    1        5.020   7.435  -1.099  0.00  0.00    +0.406 C 
ATOM     16  O   LIG    1        5.017   6.695  -2.063  0.00  0.00    -0.226 OA
BRANCH  13  17
ATOM     17  C   LIG    1        6.526   8.916  -2.313  0.00  0.00    +0.107 C 
BRANCH  17  18
ATOM     18  C   LIG    1        7.247  10.246  -2.082  0.00  0.00    +0.019 C 
BRANCH  18  20
ATOM     19  C   LIG    1        8.786  11.934  -3.093  0.00  0.00    +0.004 C 
ATOM     20  C   LIG    1        8.065  10.605  -3.324  0.00  0.00    -0.002 C 
ENDBRANCH  18  20
ENDBRANCH  17  18
ENDBRANCH  13  17
ENDBRANCH  12  15
ENDBRANCH   1  12
TORSDOF 6
