REMARK  Name = ZINC04563123
REMARK                            x       y       z     vdW  Elec       q    Type
REMARK                         _______ _______ _______ _____ _____    ______ ____
ROOT
ATOM      1  C   LIG    1        5.620  -3.801  -2.862  0.00  0.00    +0.073 C 
ATOM      2  C   LIG    1        6.208  -2.991  -1.884  0.00  0.00    +0.024 C 
ATOM      3  C   LIG    1        7.447  -2.462  -2.066  0.00  0.00    +0.021 C 
ATOM      4  C   LIG    1        8.157  -2.726  -3.251  0.00  0.00    +0.059 C 
ATOM      5  C   LIG    1        7.568  -3.545  -4.244  0.00  0.00    +0.011 C 
ATOM      6  C   LIG    1        8.283  -3.808  -5.430  0.00  0.00    -0.007 C 
ATOM      7  C   LIG    1        7.694  -4.676  -6.512  0.00  0.00    +0.008 C 
ATOM      8  C   LIG    1        9.522  -3.258  -5.573  0.00  0.00    +0.038 C 
ATOM      9  C   LIG    1       10.051  -2.455  -4.553  0.00  0.00    +0.125 C 
ATOM     10  N   LIG    1        9.378  -2.214  -3.447  0.00  0.00    -0.298 NA
ATOM     11  H   LIG    1        9.774  -1.653  -2.762  0.00  0.00    +0.124 HD
ATOM     12  C   LIG    1        6.290  -4.085  -4.032  0.00  0.00    +0.027 C 
ENDROOT
BRANCH   9  13
ATOM     13  N   LIG    1       11.313  -1.902  -4.712  0.00  0.00    -0.283 NA
ATOM     14  C   LIG    1       12.046  -2.039  -5.981  0.00  0.00    +0.114 C 
ATOM     15  C   LIG    1       12.527  -0.649  -6.414  0.00  0.00    +0.175 C 
ATOM     16  O   LIG    1       13.237  -0.039  -5.333  0.00  0.00    -0.377 OA
ATOM     17  C   LIG    1       12.445   0.186  -4.165  0.00  0.00    +0.175 C 
ATOM     18  C   LIG    1       11.957  -1.156  -3.619  0.00  0.00    +0.114 C 
ENDBRANCH   9  13
BRANCH   1  20
ATOM     19  C   LIG    1        3.416  -3.612  -1.984  0.00  0.00    +0.216 C 
ATOM     20  N   LIG    1        4.343  -4.332  -2.647  0.00  0.00    -0.312 N 
ATOM     21  H   LIG    1        4.125  -5.218  -2.976  0.00  0.00    +0.149 HD
ATOM     22  O   LIG    1        3.712  -2.538  -1.505  0.00  0.00    -0.276 OA
BRANCH  19  26
ATOM     23  C   LIG    1        0.520  -2.009  -3.182  0.00  0.00    -0.011 C 
ATOM     24  C   LIG    1        1.134  -1.804  -1.796  0.00  0.00    +0.004 C 
ATOM     25  C   LIG    1        1.169  -3.139  -1.050  0.00  0.00    +0.013 C 
ATOM     26  C   LIG    1        2.013  -4.142  -1.838  0.00  0.00    +0.075 C 
ATOM     27  C   LIG    1        1.399  -4.348  -3.224  0.00  0.00    +0.013 C 
ATOM     28  C   LIG    1        1.365  -3.012  -3.970  0.00  0.00    +0.004 C 
BRANCH  23  29
ATOM     29  C   LIG    1        0.486  -0.674  -3.928  0.00  0.00    +0.003 C 
BRANCH  29  31
ATOM     30  C   LIG    1       -0.492   1.625  -3.952  0.00  0.00    +0.004 C 
ATOM     31  C   LIG    1       -0.458   0.290  -3.206  0.00  0.00    -0.003 C 
ENDBRANCH  29  31
ENDBRANCH  23  29
ENDBRANCH  19  26
ENDBRANCH   1  20
TORSDOF 5
