REMARK  Name = ZINC04179475
REMARK                            x       y       z     vdW  Elec       q    Type
REMARK                         _______ _______ _______ _____ _____    ______ ____
ROOT
ATOM      1  C   LIG    1        2.505  -2.503  -4.381  0.00  0.00    +0.100 C 
ENDROOT
BRANCH   1   2
ATOM      2  C   LIG    1        1.577  -3.388  -5.173  0.00  0.00    +0.091 A 
ATOM      3  C   LIG    1        1.651  -4.748  -5.047  0.00  0.00    +0.138 A 
ATOM      4  C   LIG    1        0.723  -5.567  -5.842  0.00  0.00    +0.059 A 
ATOM      5  C   LIG    1        0.743  -6.961  -5.763  0.00  0.00    +0.015 A 
ATOM      6  C   LIG    1       -0.140  -7.699  -6.520  0.00  0.00    +0.001 A 
ATOM      7  C   LIG    1       -1.045  -7.064  -7.357  0.00  0.00    +0.004 A 
ATOM      8  C   LIG    1       -1.075  -5.688  -7.446  0.00  0.00    +0.047 A 
ATOM      9  C   LIG    1       -0.194  -4.925  -6.690  0.00  0.00    +0.143 A 
ATOM     10  O   LIG    1       -0.210  -3.577  -6.764  0.00  0.00    -0.422 OA
ATOM     11  C   LIG    1        0.629  -2.821  -6.038  0.00  0.00    +0.345 A 
ATOM     12  O   LIG    1        0.570  -1.607  -6.138  0.00  0.00    -0.245 OA
BRANCH   3  13
ATOM     13  O   LIG    1        2.551  -5.323  -4.217  0.00  0.00    -0.506 OA
ATOM     14  H   LIG    1        3.136  -4.788  -3.717  0.00  0.00    +0.292 HD
ENDBRANCH   3  13
ENDBRANCH   1   2
BRANCH   1  15
ATOM     15  C   LIG    1        3.776  -3.253  -4.078  0.00  0.00    +0.091 A 
ATOM     16  C   LIG    1        4.590  -3.666  -5.097  0.00  0.00    +0.138 A 
ATOM     17  C   LIG    1        5.820  -4.394  -4.747  0.00  0.00    +0.059 A 
ATOM     18  C   LIG    1        6.697  -4.844  -5.736  0.00  0.00    +0.015 A 
ATOM     19  C   LIG    1        7.840  -5.522  -5.375  0.00  0.00    +0.001 A 
ATOM     20  C   LIG    1        8.121  -5.758  -4.038  0.00  0.00    +0.004 A 
ATOM     21  C   LIG    1        7.263  -5.319  -3.051  0.00  0.00    +0.047 A 
ATOM     22  C   LIG    1        6.105  -4.633  -3.393  0.00  0.00    +0.143 A 
ATOM     23  O   LIG    1        5.255  -4.195  -2.439  0.00  0.00    -0.422 OA
ATOM     24  C   LIG    1        4.133  -3.525  -2.748  0.00  0.00    +0.345 A 
ATOM     25  O   LIG    1        3.402  -3.148  -1.850  0.00  0.00    -0.245 OA
BRANCH  16  26
ATOM     26  O   LIG    1        4.274  -3.413  -6.387  0.00  0.00    -0.506 OA
ATOM     27  H   LIG    1        3.487  -2.948  -6.594  0.00  0.00    +0.292 HD
ENDBRANCH  16  26
ENDBRANCH   1  15
BRANCH   1  31
ATOM     28  C   LIG    1        0.612  -1.367  -0.722  0.00  0.00    +0.120 A 
ATOM     29  C   LIG    1        1.417  -0.462  -1.398  0.00  0.00    +0.046 A 
ATOM     30  C   LIG    1        2.028  -0.832  -2.581  0.00  0.00    +0.008 A 
ATOM     31  C   LIG    1        1.837  -2.103  -3.091  0.00  0.00    -0.035 A 
ATOM     32  C   LIG    1        1.035  -3.006  -2.419  0.00  0.00    +0.008 A 
ATOM     33  C   LIG    1        0.427  -2.643  -1.233  0.00  0.00    +0.046 A 
BRANCH  28  35
ATOM     34  C   LIG    1        0.246   0.324   0.908  0.00  0.00    +0.277 C 
ATOM     35  O   LIG    1        0.010  -1.006   0.441  0.00  0.00    -0.495 OA
ENDBRANCH  28  35
ENDBRANCH   1  31
TORSDOF 6
