REMARK  Name = ZINC04352598
REMARK                            x       y       z     vdW  Elec       q    Type
REMARK                         _______ _______ _______ _____ _____    ______ ____
ROOT
ATOM      1  C   LIG    1       -0.019   1.526   0.010  0.00  0.00    +0.016 C 
ATOM      2  C   LIG    1        0.002  -0.004   0.002  0.00  0.00    -0.011 C 
ATOM      3  C   LIG    1       -1.401  -0.518   0.213  0.00  0.00    +0.011 C 
ATOM      4  C   LIG    1       -1.944   0.166   1.482  0.00  0.00    +0.005 C 
ATOM      5  C   LIG    1       -1.042  -0.082   2.685  0.00  0.00    -0.001 C 
ATOM      6  C   LIG    1        0.415   0.321   2.408  0.00  0.00    -0.003 C 
ATOM      7  C   LIG    1        1.266  -0.013   3.635  0.00  0.00    +0.004 C 
ATOM      8  C   LIG    1        0.749   0.774   4.841  0.00  0.00    +0.004 C 
ATOM      9  C   LIG    1       -0.708   0.397   5.114  0.00  0.00    -0.002 C 
ATOM     10  C   LIG    1       -1.225   1.197   6.312  0.00  0.00    +0.035 C 
ATOM     11  C   LIG    1       -2.652   0.837   6.596  0.00  0.00    +0.115 C 
ATOM     12  C   LIG    1       -3.504   1.167   5.369  0.00  0.00    +0.032 C 
ATOM     13  C   LIG    1       -3.004   0.361   4.168  0.00  0.00    +0.010 C 
ATOM     14  C   LIG    1       -1.543   0.720   3.887  0.00  0.00    -0.026 C 
ATOM     15  C   LIG    1       -1.438   2.216   3.581  0.00  0.00    +0.012 C 
ATOM     16  C   LIG    1        0.769  -0.474  -1.186  0.00  0.00    -0.024 C 
ATOM     17  C   LIG    1        2.051  -0.563  -0.861  0.00  0.00    -0.030 C 
ATOM     18  C   LIG    1        2.246  -0.183   0.607  0.00  0.00    +0.031 C 
ATOM     19  C   LIG    1        0.866  -0.504   1.198  0.00  0.00    +0.006 C 
ENDROOT
BRANCH  11  20
ATOM     20  O   LIG    1       -2.752  -0.559   6.883  0.00  0.00    -0.392 OA
ATOM     21  H   LIG    1       -3.653  -0.858   7.072  0.00  0.00    +0.210 HD
ENDBRANCH  11  20
TORSDOF 1
