REMARK  Name = ZINC04163071
REMARK                            x       y       z     vdW  Elec       q    Type
REMARK                         _______ _______ _______ _____ _____    ______ ____
ROOT
ATOM      1  C   LIG    1       -0.480   0.962   1.200  0.00  0.00    +0.000 A 
ATOM      2  C   LIG    1        0.629   1.786   1.243  0.00  0.00    +0.000 A 
ATOM      3  C   LIG    1        1.881   1.262   0.995  0.00  0.00    +0.005 A 
ATOM      4  C   LIG    1        2.036  -0.087   0.705  0.00  0.00    -0.027 A 
ATOM      5  C   LIG    1        0.933  -0.911   0.671  0.00  0.00    -0.041 A 
ATOM      6  C   LIG    1        1.026  -2.388   0.394  0.00  0.00    +0.054 C 
ATOM      7  C   LIG    1        2.338  -2.729  -0.310  0.00  0.00    +0.113 C 
ATOM      8  N   LIG    1        3.430  -2.059   0.416  0.00  0.00    -0.290 N 
ATOM      9  C   LIG    1        4.391  -2.765   1.044  0.00  0.00    +0.287 C 
ATOM     10  O   LIG    1        4.301  -3.973   1.127  0.00  0.00    -0.266 OA
ATOM     11  C   LIG    1        3.430  -0.592   0.429  0.00  0.00    +0.143 C 
ATOM     12  C   LIG    1       -0.327  -0.379   0.914  0.00  0.00    +0.004 A 
ENDROOT
BRANCH   9  13
ATOM     13  C   LIG    1        5.565  -2.062   1.638  0.00  0.00    +0.249 C 
ATOM     14  O   LIG    1        5.729  -0.875   1.436  0.00  0.00    -0.282 OA
BRANCH  13  15
ATOM     15  C   LIG    1        6.518  -2.802   2.464  0.00  0.00    +0.052 A 
ATOM     16  C   LIG    1        6.475  -4.147   2.780  0.00  0.00    +0.095 A 
ATOM     17  N   LIG    1        7.525  -4.460   3.560  0.00  0.00    -0.360 N 
ATOM     18  C   LIG    1        8.309  -3.348   3.797  0.00  0.00    +0.047 A 
ATOM     19  C   LIG    1        9.477  -3.148   4.524  0.00  0.00    +0.026 A 
ATOM     20  C   LIG    1       10.053  -1.897   4.570  0.00  0.00    +0.002 A 
ATOM     21  C   LIG    1        9.473  -0.827   3.906  0.00  0.00    +0.001 A 
ATOM     22  C   LIG    1        8.313  -1.004   3.183  0.00  0.00    +0.011 A 
ATOM     23  H   LIG    1        7.707  -5.347   3.909  0.00  0.00    +0.165 HD
ATOM     24  C   LIG    1        7.725  -2.264   3.123  0.00  0.00    +0.011 A 
ENDBRANCH  13  15
ENDBRANCH   9  13
TORSDOF 2
