REMARK  Name = ZINC04261942
REMARK                            x       y       z     vdW  Elec       q    Type
REMARK                         _______ _______ _______ _____ _____    ______ ____
ROOT
ATOM      1  C   LIG    1       -3.334  -1.974  -1.519  0.00  0.00    +0.130 A 
ATOM      2  C   LIG    1       -4.055  -2.398  -2.650  0.00  0.00    +0.140 A 
ATOM      3  C   LIG    1       -5.248  -3.111  -2.449  0.00  0.00    +0.169 A 
ATOM      4  N   LIG    1       -5.735  -3.394  -3.700  0.00  0.00    -0.285 N 
ATOM      5  C   LIG    1       -4.862  -2.868  -4.607  0.00  0.00    +0.203 A 
ATOM      6  N   LIG    1       -5.654  -3.360  -1.208  0.00  0.00    -0.195 NA
ATOM      7  C   LIG    1       -4.945  -2.942  -0.171  0.00  0.00    +0.216 A 
ATOM      8  N   LIG    1       -3.877  -2.284  -3.989  0.00  0.00    -0.231 NA
ATOM      9  N   LIG    1       -3.809  -2.271  -0.314  0.00  0.00    -0.206 NA
ENDROOT
BRANCH   4  10
ATOM     10  C1* LIG    1       -6.966  -4.127  -4.006  0.00  0.00    +0.253 C 
ATOM     11  C2* LIG    1       -8.174  -3.164  -4.026  0.00  0.00    +0.195 C 
ATOM     12  C3* LIG    1       -9.059  -3.697  -5.175  0.00  0.00    +0.178 C 
ATOM     13  C4* LIG    1       -8.281  -4.918  -5.714  0.00  0.00    +0.177 C 
ATOM     14  O4* LIG    1       -6.906  -4.676  -5.341  0.00  0.00    -0.346 OA
BRANCH  11  15
ATOM     15  O2* LIG    1       -8.877  -3.217  -2.783  0.00  0.00    -0.385 OA
ATOM     16  H2* LIG    1       -9.645  -2.632  -2.741  0.00  0.00    +0.210 HD
ENDBRANCH  11  15
BRANCH  12  17
ATOM     17  O3* LIG    1      -10.339  -4.094  -4.679  0.00  0.00    -0.386 OA
ATOM     18  H3* LIG    1      -10.935  -4.436  -5.359  0.00  0.00    +0.210 HD
ENDBRANCH  12  17
BRANCH  13  19
ATOM     19  C5* LIG    1       -8.416  -5.007  -7.235  0.00  0.00    +0.190 C 
BRANCH  19  20
ATOM     20  O5* LIG    1       -7.789  -6.204  -7.700  0.00  0.00    -0.392 OA
ATOM     21  H5* LIG    1       -7.836  -6.326  -8.658  0.00  0.00    +0.210 HD
ENDBRANCH  19  20
ENDBRANCH  13  19
ENDBRANCH   4  10
BRANCH   7  22
ATOM     22  N   LIG    1       -5.401  -3.220   1.107  0.00  0.00    -0.327 N 
ATOM     23  H   LIG    1       -4.894  -2.922   1.878  0.00  0.00    +0.145 HD
ATOM     24  H   LIG    1       -6.227  -3.714   1.230  0.00  0.00    +0.145 HD
ENDBRANCH   7  22
BRANCH   1  25
ATOM     25  S   LIG    1       -1.828  -1.075  -1.697  0.00  0.00    -0.099 S 
BRANCH  25  26
ATOM     26  C   LIG    1       -1.293  -0.775   0.010  0.00  0.00    +0.111 C 
BRANCH  26  32
ATOM     27  C   LIG    1       -0.017   1.378   0.010  0.00  0.00    +0.006 A 
ATOM     28  C   LIG    1        1.171   2.086   0.002  0.00  0.00    +0.033 A 
ATOM     29  C   LIG    1        2.377   1.411  -0.013  0.00  0.00    +0.122 A 
ATOM     30  C   LIG    1        2.396   0.029  -0.020  0.00  0.00    +0.033 A 
ATOM     31  C   LIG    1        1.208  -0.679  -0.012  0.00  0.00    +0.006 A 
ATOM     32  C   LIG    1        0.002  -0.004   0.002  0.00  0.00    -0.037 A 
BRANCH  29  33
ATOM     33  N   LIG    1        3.649   2.168  -0.022  0.00  0.00    +0.006 N 
ATOM     34  O   LIG    1        3.633   3.377  -0.016  0.00  0.00    -0.130 OA
BRANCH  33  35
ATOM     35  O   LIG    1        4.704   1.578  -0.035  0.00  0.00    -0.396 OA
ATOM     36  H   LIG    1        4.717   0.641  -0.040  0.00  0.00    +0.329 HD
ENDBRANCH  33  35
ENDBRANCH  29  33
ENDBRANCH  26  32
ENDBRANCH  25  26
ENDBRANCH   1  25
TORSDOF 11
