REMARK  Name = ZINC04608369
REMARK                            x       y       z     vdW  Elec       q    Type
REMARK                         _______ _______ _______ _____ _____    ______ ____
ROOT
ATOM      1  C   LIG    1       -2.958   2.998   1.667  0.00  0.00    +0.060 A 
ATOM      2  C   LIG    1       -3.699   3.535   0.624  0.00  0.00    +0.048 A 
ATOM      3  C   LIG    1       -4.879   4.214   0.893  0.00  0.00    +0.031 A 
ATOM      4  C   LIG    1       -5.315   4.354   2.205  0.00  0.00    +0.025 A 
ATOM      5  C   LIG    1       -4.575   3.818   3.241  0.00  0.00    +0.036 A 
ATOM      6  C   LIG    1       -3.403   3.136   2.977  0.00  0.00    +0.142 A 
ENDROOT
BRANCH   3   7
ATOM      7  N   LIG    1       -5.628   4.755  -0.154  0.00  0.00    -0.333 N 
ATOM      8  C   LIG    1       -5.979   3.723  -1.140  0.00  0.00    +0.086 C 
ATOM      9  C   LIG    1       -6.729   4.370  -2.307  0.00  0.00    -0.063 C 
ATOM     10  N   LIG    1       -7.943   5.040  -1.803  0.00  0.00    +0.381 N 
ATOM     11  H   LIG    1       -8.438   5.479  -2.588  0.00  0.00    -0.086 HD
ATOM     12  H   LIG    1       -8.553   4.345  -1.358  0.00  0.00    -0.086 HD
ATOM     13  C   LIG    1       -7.582   6.074  -0.815  0.00  0.00    -0.063 C 
ATOM     14  C   LIG    1       -6.833   5.428   0.352  0.00  0.00    +0.086 C 
ENDBRANCH   3   7
BRANCH   1  15
ATOM     15  N   LIG    1       -1.770   2.314   1.401  0.00  0.00    -0.338 N 
ATOM     16  H   LIG    1       -1.210   2.011   2.133  0.00  0.00    +0.146 HD
BRANCH  15  17
ATOM     17  C   LIG    1       -1.369   2.053   0.016  0.00  0.00    +0.137 C 
BRANCH  17  24
ATOM     18  C   LIG    1        1.133   2.003  -0.030  0.00  0.00    +0.006 A 
ATOM     19  C   LIG    1        2.334   1.319  -0.047  0.00  0.00    +0.020 A 
ATOM     20  C   LIG    1        2.341  -0.065  -0.029  0.00  0.00    +0.041 A 
ATOM     21 CL   LIG    1        3.849  -0.925  -0.050  0.00  0.00    -0.084 Cl
ATOM     22  C   LIG    1        1.147  -0.762   0.006  0.00  0.00    +0.020 A 
ATOM     23  C   LIG    1       -0.053  -0.076   0.022  0.00  0.00    +0.006 A 
ATOM     24  C   LIG    1       -0.060   1.306   0.004  0.00  0.00    -0.030 A 
ENDBRANCH  17  24
ENDBRANCH  15  17
ENDBRANCH   1  15
BRANCH   6  25
ATOM     25  N   LIG    1       -2.616   2.558   4.089  0.00  0.00    +0.008 N 
ATOM     26  O   LIG    1       -3.057   2.586   5.225  0.00  0.00    -0.130 OA
BRANCH  25  27
ATOM     27  O   LIG    1       -1.529   2.056   3.870  0.00  0.00    -0.396 OA
ATOM     28  H   LIG    1       -1.190   2.035   2.996  0.00  0.00    +0.329 HD
ENDBRANCH  25  27
ENDBRANCH   6  25
TORSDOF 6
