REMARK  Name = ZINC04544447
REMARK                            x       y       z     vdW  Elec       q    Type
REMARK                         _______ _______ _______ _____ _____    ______ ____
ROOT
ATOM      1  C   UNK A  1        0.164  -7.491   6.338  0.00  0.00    +0.185 C 
ENDROOT
BRANCH   1   2
ATOM      2  N   UNK A  1       -1.085  -8.065   5.832  0.00  0.00    -0.268 N 
ATOM      3  H   UNK A  1       -1.887  -7.522   5.791  0.00  0.00    +0.153 HD
ATOM      4  C   UNK A  0       -1.119  -9.350   5.424  0.00  0.00    +0.401 C 
ATOM      5  O   UNK A  0       -0.114 -10.030   5.476  0.00  0.00    -0.226 OA
BRANCH   4   6
ATOM      6  O   UNK A  0       -2.267  -9.878   4.959  0.00  0.00    -0.449 OA
BRANCH   6   7
ATOM      7  C   UNK A  0       -2.230 -11.267   4.537  0.00  0.00    +0.246 C 
BRANCH   7   8
ATOM      8  C   UNK A  0       -3.616 -11.687   4.043  0.00  0.00    +0.088 C 
ATOM      9  C   UNK A  0       -4.587 -11.730   5.197  0.00  0.00    -0.029 A 
ATOM     10  C   UNK A  0       -5.029 -10.760   6.073  0.00  0.00    +0.005 A 
ATOM     11  C   UNK A  0       -5.943 -11.083   7.060  0.00  0.00    +0.000 A 
ATOM     12  C   UNK A  0       -6.416 -12.378   7.171  0.00  0.00    +0.001 A 
ATOM     13  C   UNK A  0       -5.980 -13.354   6.299  0.00  0.00    +0.009 A 
ATOM     14  C   UNK A  0       -5.058 -13.036   5.301  0.00  0.00    -0.014 A 
ATOM     15  C   UNK A  0       -4.429 -13.872   4.248  0.00  0.00    -0.014 A 
ATOM     16  C   UNK A  0       -4.573 -15.227   3.942  0.00  0.00    +0.009 A 
ATOM     17  C   UNK A  0       -3.864 -15.775   2.894  0.00  0.00    +0.001 A 
ATOM     18  C   UNK A  0       -3.009 -14.989   2.144  0.00  0.00    +0.000 A 
ATOM     19  C   UNK A  0       -2.861 -13.645   2.442  0.00  0.00    +0.005 A 
ATOM     20  C   UNK A  0       -3.566 -13.088   3.487  0.00  0.00    -0.029 A 
ENDBRANCH   7   8
ENDBRANCH   6   7
ENDBRANCH   4   6
ENDBRANCH   1   2
BRANCH   1  21
ATOM     21  C   UNK A  1        0.306  -7.809   7.804  0.00  0.00    +0.325 C 
ATOM     22  O   UNK A  1       -0.548  -8.451   8.368  0.00  0.00    -0.249 OA
BRANCH  21  23
ATOM     23  O   UNK A  1        1.382  -7.381   8.483  0.00  0.00    -0.479 OA
ATOM     24  H   UNK A  1        2.044  -6.883   8.045  0.00  0.00    +0.295 HD
ENDBRANCH  21  23
ENDBRANCH   1  21
BRANCH   1  25
ATOM     25  C   UNK A  1        0.142  -5.973   6.146  0.00  0.00    +0.034 C 
BRANCH  25  26
ATOM     26  C   UNK A  1        0.123  -5.648   4.651  0.00  0.00    +0.004 C 
BRANCH  26  27
ATOM     27  C   UNK A  1        0.101  -4.131   4.459  0.00  0.00    +0.019 C 
BRANCH  27  28
ATOM     28  C   UNK A  1        0.082  -3.806   2.964  0.00  0.00    +0.107 C 
BRANCH  28  30
ATOM     29  C   UNK A  1        0.042  -1.831   1.537  0.00  0.00    +0.401 C 
ATOM     30  N   UNK A  1        0.060  -2.353   2.780  0.00  0.00    -0.281 N 
ATOM     31  H   UNK A  1        0.060  -1.766   3.552  0.00  0.00    +0.152 HD
ATOM     32  O   UNK A  1        0.042  -2.566   0.570  0.00  0.00    -0.226 OA
BRANCH  29  33
ATOM     33  O   UNK A  1        0.022  -0.495   1.368  0.00  0.00    -0.446 OA
BRANCH  33  34
ATOM     34  C   UNK A  1        0.002  -0.004   0.002  0.00  0.00    +0.269 C 
BRANCH  34  38
ATOM     35  C   UNK A  1       -0.056   4.267   0.025  0.00  0.00    +0.000 A 
ATOM     36  C   UNK A  1        1.151   3.592   0.010  0.00  0.00    +0.000 A 
ATOM     37  C   UNK A  1        1.169   2.210   0.003  0.00  0.00    +0.007 A 
ATOM     38  C   UNK A  1       -0.018   1.503   0.010  0.00  0.00    -0.010 A 
ATOM     39  C   UNK A  1       -1.225   2.178   0.020  0.00  0.00    +0.007 A 
ATOM     40  C   UNK A  1       -1.244   3.560   0.032  0.00  0.00    +0.000 A 
ENDBRANCH  34  38
ENDBRANCH  33  34
ENDBRANCH  29  33
ENDBRANCH  28  30
ENDBRANCH  27  28
ENDBRANCH  26  27
ENDBRANCH  25  26
ENDBRANCH   1  25
TORSDOF 14
