REMARK  Name = ZINC04343323
REMARK                            x       y       z     vdW  Elec       q    Type
REMARK                         _______ _______ _______ _____ _____    ______ ____
ROOT
ATOM      1  N   LIG    1       -2.208   0.040   0.888  0.00  0.00    -0.186 NA
ATOM      2  H   LIG    1       -1.870   0.430   1.709  0.00  0.00    +0.148 HD
ENDROOT
BRANCH   1  11
ATOM      3  C   LIG    1        0.161   1.468   0.002  0.00  0.00    +0.013 C 
ATOM      4  C   LIG    1        0.116  -0.061   0.017  0.00  0.00    -0.014 C 
ATOM      5  C   LIG    1        0.898  -0.777  -1.126  0.00  0.00    +0.008 C 
ATOM      6  C   LIG    1        1.124  -2.214  -0.604  0.00  0.00    +0.005 C 
ATOM      7  C   LIG    1        0.456  -2.231   0.805  0.00  0.00    -0.003 C 
ATOM      8  C   LIG    1       -1.075  -2.175   0.512  0.00  0.00    -0.015 C 
ATOM      9  C   LIG    1       -1.453  -3.209  -0.550  0.00  0.00    +0.013 C 
ATOM     10  C   LIG    1       -1.872  -2.410   1.797  0.00  0.00    +0.013 C 
ATOM     11  C   LIG    1       -1.306  -0.701   0.003  0.00  0.00    +0.088 C 
ATOM     12  C   LIG    1        0.737  -0.761   1.276  0.00  0.00    +0.012 C 
ENDBRANCH   1  11
BRANCH   1  13
ATOM     13  S   LIG    1       -3.805   0.212   0.487  0.00  0.00    +0.059 S 
ATOM     14  O   LIG    1       -3.840   0.652  -0.864  0.00  0.00    -0.153 OA
ATOM     15  O   LIG    1       -4.413   0.945   1.542  0.00  0.00    -0.153 OA
BRANCH  13  16
ATOM     16  C   LIG    1       -4.525  -1.396   0.512  0.00  0.00    +0.105 A 
ATOM     17  C   LIG    1       -4.526  -2.170  -0.634  0.00  0.00    +0.031 A 
ATOM     18  C   LIG    1       -5.090  -3.432  -0.615  0.00  0.00    +0.040 A 
ATOM     19  C   LIG    1       -5.653  -3.921   0.551  0.00  0.00    +0.124 A 
ATOM     20  F   LIG    1       -6.204  -5.154   0.570  0.00  0.00    -0.205 F 
ATOM     21  C   LIG    1       -5.651  -3.145   1.698  0.00  0.00    +0.040 A 
ATOM     22  C   LIG    1       -5.082  -1.885   1.679  0.00  0.00    +0.031 A 
ENDBRANCH  13  16
ENDBRANCH   1  13
TORSDOF 3
