REMARK  Name = ZINC04353331
REMARK                            x       y       z     vdW  Elec       q    Type
REMARK                         _______ _______ _______ _____ _____    ______ ____
ROOT
ATOM      1  C   LIG    1       -1.309   7.201   8.461  0.00  0.00    +0.001 A 
ATOM      2  C   LIG    1       -2.672   7.332   8.644  0.00  0.00    +0.001 A 
ATOM      3  C   LIG    1       -3.550   7.013   7.620  0.00  0.00    +0.012 A 
ATOM      4  C   LIG    1       -3.054   6.559   6.404  0.00  0.00    +0.036 A 
ATOM      5  C   LIG    1       -1.665   6.425   6.214  0.00  0.00    +0.033 A 
ATOM      6  C   LIG    1       -1.141   5.939   4.926  0.00  0.00    +0.193 C 
ATOM      7  O   LIG    1        0.194   5.812   4.763  0.00  0.00    -0.287 OA
ATOM      8  C   LIG    1       -1.969   5.621   3.896  0.00  0.00    +0.045 C 
ATOM      9  C   LIG    1       -3.363   5.728   4.010  0.00  0.00    +0.171 C 
ATOM     10  C   LIG    1       -3.965   6.211   5.293  0.00  0.00    +0.228 C 
ATOM     11  O   LIG    1       -5.168   6.313   5.417  0.00  0.00    -0.283 OA
ATOM     12  C   LIG    1       -0.799   6.751   7.254  0.00  0.00    +0.012 A 
ENDROOT
BRANCH   9  13
ATOM     13  O   LIG    1       -4.079   5.432   3.072  0.00  0.00    -0.503 OA
ATOM     14  H   LIG    1       -3.699   5.130   2.270  0.00  0.00    +0.292 HD
ENDBRANCH   9  13
BRANCH   8  15
ATOM     15  C   LIG    1       -1.374   5.133   2.599  0.00  0.00    +0.043 C 
BRANCH  15  16
ATOM     16  C   LIG    1       -1.354   3.604   2.591  0.00  0.00    +0.005 C 
BRANCH  16  17
ATOM     17  C   LIG    1       -0.750   3.109   1.275  0.00  0.00    +0.004 C 
BRANCH  17  18
ATOM     18  C   LIG    1       -0.729   1.579   1.267  0.00  0.00    -0.011 C 
ATOM     19  C   LIG    1       -2.164   1.050   1.278  0.00  0.00    +0.004 C 
ATOM     20  C   LIG    1       -2.904   1.556   0.038  0.00  0.00    +0.004 C 
ATOM     21  C   LIG    1       -2.188   1.063  -1.221  0.00  0.00    -0.008 C 
ATOM     22  C   LIG    1       -2.928   1.570  -2.460  0.00  0.00    +0.004 C 
ATOM     23  C   LIG    1       -2.212   1.077  -3.719  0.00  0.00    +0.000 C 
ATOM     24  C   LIG    1       -0.777   1.606  -3.730  0.00  0.00    +0.000 C 
ATOM     25  C   LIG    1       -0.037   1.099  -2.490  0.00  0.00    +0.004 C 
ATOM     26  C   LIG    1       -0.753   1.593  -1.232  0.00  0.00    -0.008 C 
ATOM     27  C   LIG    1       -0.013   1.086   0.008  0.00  0.00    +0.007 C 
ENDBRANCH  17  18
ENDBRANCH  16  17
ENDBRANCH  15  16
ENDBRANCH   8  15
TORSDOF 5
