REMARK  Name = ZINC04590381
REMARK                            x       y       z     vdW  Elec       q    Type
REMARK                         _______ _______ _______ _____ _____    ______ ____
ROOT
ATOM      1  C   LIG    1       -5.119   3.394   0.274  0.00  0.00    +0.233 C 
ATOM      2  N   LIG    1       -3.885   3.110  -0.046  0.00  0.00    -0.205 NA
ATOM      3  C   LIG    1       -3.713   1.757  -0.002  0.00  0.00    +0.152 C 
ATOM      4  C   LIG    1       -5.026   1.207   0.389  0.00  0.00    +0.364 C 
ATOM      5  O   LIG    1       -5.320   0.037   0.543  0.00  0.00    -0.243 OA
ATOM      6  C   LIG    1       -2.561   1.054  -0.272  0.00  0.00    +0.044 C 
ATOM      7  O   LIG    1       -5.829   2.282   0.543  0.00  0.00    -0.402 OA
ENDROOT
BRANCH   1  11
ATOM      8  C   LIG    1       -6.697   7.333   0.439  0.00  0.00    +0.121 A 
ATOM      9  C   LIG    1       -7.538   6.241   0.615  0.00  0.00    +0.046 A 
ATOM     10  C   LIG    1       -7.032   4.962   0.558  0.00  0.00    +0.018 A 
ATOM     11  C   LIG    1       -5.667   4.762   0.331  0.00  0.00    +0.051 A 
ATOM     12  C   LIG    1       -4.823   5.864   0.154  0.00  0.00    +0.034 A 
ATOM     13 BR   LIG    1       -2.977   5.602  -0.159  0.00  0.00    -0.049 Br
ATOM     14  C   LIG    1       -5.340   7.140   0.209  0.00  0.00    +0.061 A 
BRANCH   8  16
ATOM     15  C   LIG    1       -8.605   8.719   0.731  0.00  0.00    +0.277 C 
ATOM     16  O   LIG    1       -7.202   8.592   0.491  0.00  0.00    -0.495 OA
ENDBRANCH   8  16
ENDBRANCH   1  11
BRANCH   6  17
ATOM     17  C   LIG    1       -1.372   1.756  -0.767  0.00  0.00    -0.005 A 
ATOM     18  C   LIG    1       -0.143   1.085  -0.889  0.00  0.00    +0.011 A 
ATOM     19  C   LIG    1        0.944   1.792  -1.366  0.00  0.00    +0.020 A 
ATOM     20  C   LIG    1        0.791   3.127  -1.702  0.00  0.00    +0.111 A 
ATOM     21  N   LIG    1       -0.373   3.735  -1.573  0.00  0.00    -0.263 NA
ATOM     22  C   LIG    1       -1.439   3.109  -1.123  0.00  0.00    +0.118 A 
ENDBRANCH   6  17
TORSDOF 3
