REMARK  Name = ZINC04363799
REMARK                            x       y       z     vdW  Elec       q    Type
REMARK                         _______ _______ _______ _____ _____    ______ ____
ROOT
ATOM      1  S   LIG    1        2.055  -2.776  -0.676  0.00  0.00    +0.061 S 
ATOM      2  O   LIG    1        3.158  -1.885  -0.769  0.00  0.00    -0.153 OA
ATOM      3  O   LIG    1        2.053  -4.054  -1.296  0.00  0.00    -0.153 OA
ENDROOT
BRANCH   1   4
ATOM      4  C   LIG    1        1.772  -3.050   1.042  0.00  0.00    +0.109 A 
ATOM      5  C   LIG    1        2.188  -2.111   1.968  0.00  0.00    +0.032 A 
ATOM      6  C   LIG    1        1.968  -2.321   3.316  0.00  0.00    +0.051 A 
ATOM      7  C   LIG    1        1.330  -3.474   3.743  0.00  0.00    +0.162 A 
ATOM      8  C   LIG    1        0.912  -4.419   2.811  0.00  0.00    +0.163 A 
ATOM      9  C   LIG    1        1.130  -4.200   1.460  0.00  0.00    +0.078 A 
BRANCH   7  10
ATOM     10  O   LIG    1        1.114  -3.683   5.069  0.00  0.00    -0.491 OA
ATOM     11  C   LIG    1        1.571  -2.670   5.968  0.00  0.00    +0.277 C 
ENDBRANCH   7  10
BRANCH   8  12
ATOM     12  O   LIG    1        0.285  -5.553   3.225  0.00  0.00    -0.491 OA
ATOM     13  C   LIG    1       -0.117  -6.479   2.213  0.00  0.00    +0.277 C 
ENDBRANCH   8  12
ENDBRANCH   1   4
BRANCH   1  14
ATOM     14  N   LIG    1        0.738  -1.962  -1.265  0.00  0.00    -0.169 NA
BRANCH  14  15
ATOM     15  C   LIG    1        0.718  -0.497  -1.257  0.00  0.00    +0.110 C 
BRANCH  15  17
ATOM     16  C   LIG    1       -0.019   1.526   0.010  0.00  0.00    +0.005 C 
ATOM     17  C   LIG    1        0.002  -0.004   0.002  0.00  0.00    +0.014 C 
ENDBRANCH  15  17
ENDBRANCH  14  15
BRANCH  14  18
ATOM     18  C   LIG    1       -0.407  -2.708  -1.794  0.00  0.00    +0.183 C 
BRANCH  18  19
ATOM     19  C   LIG    1       -0.271  -2.841  -3.289  0.00  0.00    +0.120 A 
ATOM     20  C   LIG    1        0.342  -3.849  -3.936  0.00  0.00    +0.046 A 
ATOM     21  C   LIG    1        0.234  -3.573  -5.319  0.00  0.00    +0.041 A 
ATOM     22  C   LIG    1       -0.439  -2.414  -5.434  0.00  0.00    +0.195 A 
ATOM     23  O   LIG    1       -0.747  -1.978  -4.201  0.00  0.00    -0.466 OA
ENDBRANCH  18  19
ENDBRANCH  14  18
ENDBRANCH   1  14
TORSDOF 8
