REMARK  Name = ZINC04671769
REMARK                            x       y       z     vdW  Elec       q    Type
REMARK                         _______ _______ _______ _____ _____    ______ ____
ROOT
ATOM      1  C   LIG    1        0.353  -2.482  -1.537  0.00  0.00    +0.220 C 
ATOM      2  N   LIG    1        1.179  -2.935  -2.500  0.00  0.00    -0.268 N 
ATOM      3  C   LIG    1        2.032  -2.055  -3.180  0.00  0.00    +0.041 A 
ATOM      4  C   LIG    1        1.837  -0.685  -3.049  0.00  0.00    +0.024 A 
ATOM      5  C   LIG    1        2.672   0.198  -3.703  0.00  0.00    +0.002 A 
ATOM      6  C   LIG    1        3.707  -0.283  -4.486  0.00  0.00    +0.000 A 
ATOM      7  C   LIG    1        3.905  -1.644  -4.615  0.00  0.00    +0.007 A 
ATOM      8  C   LIG    1        3.071  -2.536  -3.962  0.00  0.00    -0.005 A 
ATOM      9  C   LIG    1        3.312  -4.014  -4.128  0.00  0.00    +0.115 C 
ATOM     10  C   LIG    1        2.663  -4.794  -2.985  0.00  0.00    +0.050 C 
ATOM     11  C   LIG    1        1.196  -4.360  -2.860  0.00  0.00    +0.081 C 
ATOM     12  C   LIG    1        0.478  -4.566  -4.195  0.00  0.00    +0.028 C 
ATOM     13  O   LIG    1        0.294  -1.294  -1.298  0.00  0.00    -0.275 OA
ENDROOT
BRANCH   9  14
ATOM     14  N   LIG    1        4.755  -4.270  -4.129  0.00  0.00    -0.264 N 
ATOM     15  C   LIG    1        5.514  -3.854  -3.096  0.00  0.00    +0.217 C 
ATOM     16  C   LIG    1        7.012  -4.016  -3.149  0.00  0.00    +0.109 C 
ATOM     17  O   LIG    1        4.993  -3.349  -2.125  0.00  0.00    -0.276 OA
BRANCH  14  18
ATOM     18  C   LIG    1        5.344  -4.947  -5.203  0.00  0.00    +0.037 A 
ATOM     19  C   LIG    1        6.159  -4.262  -6.094  0.00  0.00    +0.023 A 
ATOM     20  C   LIG    1        6.744  -4.934  -7.150  0.00  0.00    +0.002 A 
ATOM     21  C   LIG    1        6.510  -6.285  -7.325  0.00  0.00    +0.000 A 
ATOM     22  C   LIG    1        5.694  -6.969  -6.443  0.00  0.00    +0.002 A 
ATOM     23  C   LIG    1        5.111  -6.304  -5.382  0.00  0.00    +0.023 A 
ENDBRANCH  14  18
ENDBRANCH   9  14
BRANCH   1  24
ATOM     24  C   LIG    1       -0.498  -3.451  -0.757  0.00  0.00    +0.096 C 
BRANCH  24  25
ATOM     25  C   LIG    1       -1.247  -2.699   0.346  0.00  0.00    +0.009 C 
BRANCH  25  27
ATOM     26  C   LIG    1       -2.859  -2.930   2.240  0.00  0.00    +0.004 C 
ATOM     27  C   LIG    1       -2.111  -3.682   1.138  0.00  0.00    -0.003 C 
ENDBRANCH  25  27
ENDBRANCH  24  25
ENDBRANCH   1  24
TORSDOF 5
