REMARK  Name = ZINC04335977
REMARK                            x       y       z     vdW  Elec       q    Type
REMARK                         _______ _______ _______ _____ _____    ______ ____
ROOT
ATOM      1  C   LIG    1       -0.016   1.360   0.009  0.00  0.00    +0.001 A 
ATOM      2  C   LIG    1        1.171   2.086   0.002  0.00  0.00    +0.001 A 
ATOM      3  C   LIG    1        2.377   1.455  -0.012  0.00  0.00    +0.012 A 
ATOM      4  C   LIG    1        2.439   0.047  -0.021  0.00  0.00    +0.026 A 
ATOM      5  C   LIG    1        1.222  -0.687  -0.014  0.00  0.00    +0.013 A 
ATOM      6  C   LIG    1        1.262  -2.149  -0.025  0.00  0.00    +0.104 A 
ATOM      7  C   LIG    1        2.533  -2.712  -0.044  0.00  0.00    +0.040 A 
ATOM      8  C   LIG    1        3.777  -1.986  -0.054  0.00  0.00    +0.028 A 
ATOM      9  C   LIG    1        4.947  -2.759  -0.076  0.00  0.00    +0.012 A 
ATOM     10  C   LIG    1        4.828  -4.139  -0.083  0.00  0.00    +0.003 A 
ATOM     11  C   LIG    1        3.618  -4.816  -0.070  0.00  0.00    +0.030 A 
ATOM     12  C   LIG    1        2.416  -4.108  -0.052  0.00  0.00    +0.096 A 
ATOM     13  N   LIG    1        1.092  -4.320  -0.038  0.00  0.00    -0.149 NA
ATOM     14  N   LIG    1        0.437  -3.196  -0.022  0.00  0.00    -0.148 NA
ATOM     15  C   LIG    1        3.708  -0.582  -0.038  0.00  0.00    +0.132 A 
ATOM     16  C   LIG    1        0.002  -0.004   0.002  0.00  0.00    +0.011 A 
ENDROOT
BRANCH  15  17
ATOM     17  O   LIG    1        4.838   0.157  -0.039  0.00  0.00    -0.506 OA
ATOM     18  H   LIG    1        5.174   0.363   0.844  0.00  0.00    +0.292 HD
ENDBRANCH  15  17
TORSDOF 1
