REMARK  Name = ZINC04424097
REMARK                            x       y       z     vdW  Elec       q    Type
REMARK                         _______ _______ _______ _____ _____    ______ ____
ROOT
ATOM      1  C   LIG    1        3.269   0.529  -0.857  0.00  0.00    +0.023 A 
ATOM      2  C   LIG    1        4.316   1.390  -0.816  0.00  0.00    -0.036 A 
ATOM      3  C   LIG    1        5.630   0.892  -0.738  0.00  0.00    +0.055 A 
ATOM      4  C   LIG    1        6.900   1.654  -0.679  0.00  0.00    +0.204 A 
ATOM      5  C   LIG    1        8.155   0.898  -0.608  0.00  0.00    +0.122 A 
ATOM      6  C   LIG    1        8.120  -0.481  -0.599  0.00  0.00    +0.106 A 
ATOM      7  N   LIG    1        6.950  -1.139  -0.655  0.00  0.00    -0.336 N 
ATOM      8  O   LIG    1        6.902   2.874  -0.688  0.00  0.00    -0.286 OA
ATOM      9  C   LIG    1        5.755  -0.503  -0.721  0.00  0.00    +0.092 A 
ATOM     10  S   LIG    1        4.070  -1.065  -0.803  0.00  0.00    -0.070 S 
ENDROOT
BRANCH   1  14
ATOM     11  C   LIG    1       -0.883   1.406  -1.079  0.00  0.00    +0.033 A 
ATOM     12  C   LIG    1       -0.411   0.523  -0.114  0.00  0.00    +0.024 A 
ATOM     13  C   LIG    1        0.936   0.240  -0.036  0.00  0.00    +0.011 A 
ATOM     14  C   LIG    1        1.825   0.834  -0.934  0.00  0.00    -0.011 A 
ATOM     15  C   LIG    1        1.347   1.716  -1.905  0.00  0.00    +0.011 A 
ATOM     16  C   LIG    1        0.000   1.999  -1.974  0.00  0.00    +0.024 A 
BRANCH  11  18
ATOM     17  C   LIG    1       -2.991   1.733  -0.027  0.00  0.00    +0.220 C 
ATOM     18  N   LIG    1       -2.249   1.694  -1.152  0.00  0.00    -0.285 N 
ATOM     19  H   LIG    1       -2.663   1.866  -2.012  0.00  0.00    +0.155 HD
ATOM     20  O   LIG    1       -2.458   1.609   1.056  0.00  0.00    -0.275 OA
BRANCH  17  22
ATOM     21  C   LIG    1       -5.080   1.936   1.294  0.00  0.00    +0.017 C 
ATOM     22  C   LIG    1       -4.483   1.930  -0.114  0.00  0.00    +0.069 C 
ATOM     23  C   LIG    1       -4.782   3.264  -0.800  0.00  0.00    +0.017 C 
ENDBRANCH  17  22
ENDBRANCH  11  18
ENDBRANCH   1  14
BRANCH   5  24
ATOM     24  C   LIG    1        9.443   1.606  -0.548  0.00  0.00    +0.345 C 
ATOM     25  O   LIG    1        9.469   2.821  -0.556  0.00  0.00    -0.245 OA
BRANCH  24  26
ATOM     26  O   LIG    1       10.593   0.906  -0.483  0.00  0.00    -0.458 OA
BRANCH  26  27
ATOM     27  C   LIG    1       11.826   1.671  -0.426  0.00  0.00    +0.171 C 
ATOM     28  C   LIG    1       12.953   0.871  -1.083  0.00  0.00    +0.052 C 
ATOM     29  C   LIG    1       12.186   1.951   1.035  0.00  0.00    +0.052 C 
ENDBRANCH  26  27
ENDBRANCH  24  26
ENDBRANCH   5  24
BRANCH   2  30
ATOM     30  C   LIG    1        4.073   2.877  -0.849  0.00  0.00    -0.041 C 
BRANCH  30  31
ATOM     31  N   LIG    1        4.114   3.396   0.535  0.00  0.00    +0.383 N 
ATOM     32  H   LIG    1        4.929   2.997   1.016  0.00  0.00    -0.081 HD
ATOM     33  C   LIG    1        2.888   3.000   1.259  0.00  0.00    -0.095 C 
BRANCH  31  34
ATOM     34  C   LIG    1        4.238   4.868   0.519  0.00  0.00    -0.043 C 
BRANCH  34  35
ATOM     35  C   LIG    1        4.498   5.349   1.923  0.00  0.00    -0.064 A 
ATOM     36  C   LIG    1        3.440   5.694   2.743  0.00  0.00    +0.002 A 
ATOM     37  C   LIG    1        3.679   6.130   4.033  0.00  0.00    +0.000 A 
ATOM     38  C   LIG    1        4.976   6.232   4.499  0.00  0.00    +0.000 A 
ATOM     39  C   LIG    1        6.035   5.893   3.677  0.00  0.00    +0.000 A 
ATOM     40  C   LIG    1        5.796   5.451   2.389  0.00  0.00    +0.002 A 
ENDBRANCH  34  35
ENDBRANCH  31  34
ENDBRANCH  30  31
ENDBRANCH   2  30
BRANCH   7  41
ATOM     41  C   LIG    1        6.966  -2.603  -0.642  0.00  0.00    +0.163 C 
BRANCH  41  42
ATOM     42  C   LIG    1        6.920  -3.119  -2.057  0.00  0.00    +0.042 A 
ATOM     43  C   LIG    1        5.702  -3.374  -2.662  0.00  0.00    +0.131 A 
ATOM     44  F   LIG    1        4.553  -3.162  -1.983  0.00  0.00    -0.205 F 
ATOM     45  C   LIG    1        5.661  -3.842  -3.965  0.00  0.00    +0.039 A 
ATOM     46  C   LIG    1        6.836  -4.066  -4.657  0.00  0.00    +0.006 A 
ATOM     47  C   LIG    1        8.053  -3.816  -4.052  0.00  0.00    +0.039 A 
ATOM     48  C   LIG    1        8.097  -3.343  -2.751  0.00  0.00    +0.131 A 
ATOM     49  F   LIG    1        9.287  -3.099  -2.160  0.00  0.00    -0.205 F 
ENDBRANCH  41  42
ENDBRANCH   7  41
TORSDOF 12
