REMARK  Name = ZINC04668239
REMARK                            x       y       z     vdW  Elec       q    Type
REMARK                         _______ _______ _______ _____ _____    ______ ____
ROOT
ATOM      1  C   LIG    1       -0.891  -3.489   1.996  0.00  0.00    +0.060 A 
ATOM      2  C   LIG    1       -0.997  -4.833   1.647  0.00  0.00    +0.026 A 
ATOM      3  C   LIG    1       -1.498  -5.742   2.550  0.00  0.00    +0.015 A 
ATOM      4  C   LIG    1       -1.901  -5.316   3.819  0.00  0.00    +0.039 A 
ATOM      5  C   LIG    1       -1.792  -3.966   4.167  0.00  0.00    +0.047 A 
ATOM      6  C   LIG    1       -1.285  -3.062   3.261  0.00  0.00    +0.143 A 
ENDROOT
BRANCH   1  11
ATOM      7  C   LIG    1        1.342  -1.825  -2.735  0.00  0.00    +0.007 C 
ATOM      8  C   LIG    1        0.764  -1.643  -1.330  0.00  0.00    -0.011 C 
ATOM      9  C   LIG    1        1.604  -2.437  -0.327  0.00  0.00    +0.022 C 
ATOM     10  C   LIG    1        1.043  -2.224   1.083  0.00  0.00    +0.105 C 
ATOM     11  N   LIG    1       -0.384  -2.572   1.082  0.00  0.00    -0.328 N 
ATOM     12  C   LIG    1       -1.266  -1.933   0.096  0.00  0.00    +0.105 C 
ATOM     13  C   LIG    1       -0.680  -2.149  -1.303  0.00  0.00    +0.022 C 
ENDBRANCH   1  11
BRANCH   4  14
ATOM     14  C   LIG    1       -2.438  -6.288   4.789  0.00  0.00    +0.248 C 
ATOM     15  N   LIG    1       -2.542  -7.589   4.452  0.00  0.00    -0.281 N 
ATOM     16  H   LIG    1       -2.195  -7.899   3.601  0.00  0.00    +0.155 HD
ATOM     17  O   LIG    1       -2.788  -5.916   5.893  0.00  0.00    -0.270 OA
BRANCH  15  18
ATOM     18  C   LIG    1       -3.150  -8.492   5.330  0.00  0.00    +0.037 A 
ATOM     19  C   LIG    1       -2.702  -9.806   5.397  0.00  0.00    +0.023 A 
ATOM     20  C   LIG    1       -3.303 -10.698   6.264  0.00  0.00    +0.005 A 
ATOM     21  C   LIG    1       -4.351 -10.287   7.066  0.00  0.00    +0.046 A 
ATOM     22  C   LIG    1       -4.802  -8.976   7.004  0.00  0.00    +0.122 A 
ATOM     23  C   LIG    1       -4.198  -8.076   6.139  0.00  0.00    +0.069 A 
BRANCH  22  24
ATOM     24  O   LIG    1       -5.832  -8.573   7.793  0.00  0.00    -0.495 OA
ATOM     25  C   LIG    1       -6.404  -9.552   8.663  0.00  0.00    +0.277 C 
ENDBRANCH  22  24
ENDBRANCH  15  18
ENDBRANCH   4  14
BRANCH   6  26
ATOM     26  N   LIG    1       -1.165  -1.634   3.631  0.00  0.00    +0.008 N 
ATOM     27  O   LIG    1       -1.418  -1.278   4.758  0.00  0.00    -0.130 OA
BRANCH  26  28
ATOM     28  O   LIG    1       -0.813  -0.824   2.806  0.00  0.00    -0.396 OA
ATOM     29  H   LIG    1       -0.617  -1.100   1.932  0.00  0.00    +0.329 HD
ENDBRANCH  26  28
ENDBRANCH   6  26
TORSDOF 6
