REMARK  Name = ZINC04293617
REMARK                            x       y       z     vdW  Elec       q    Type
REMARK                         _______ _______ _______ _____ _____    ______ ____
ROOT
ATOM      1  C   LIG    1       -1.306   3.236   0.029  0.00  0.00    +0.112 C 
ATOM      2  C   LIG    1       -1.236   1.901  -0.104  0.00  0.00    +0.088 C 
ATOM      3  C   LIG    1       -0.006   1.224  -0.117  0.00  0.00    +0.159 C 
ATOM      4  C   LIG    1        1.288   1.985   0.011  0.00  0.00    +0.079 C 
ATOM      5  C   LIG    1        1.041   3.256   0.830  0.00  0.00    +0.015 C 
ATOM      6  O   LIG    1        0.016   0.015  -0.239  0.00  0.00    -0.293 OA
ATOM      7  C   LIG    1       -0.062   4.074   0.152  0.00  0.00    +0.075 C 
ENDROOT
BRANCH   1   8
ATOM      8  O   LIG    1       -2.513   3.837   0.047  0.00  0.00    -0.430 OA
BRANCH   8  10
ATOM      9  C   LIG    1       -4.083   5.449  -0.973  0.00  0.00    +0.136 C 
ATOM     10  C   LIG    1       -2.804   4.652  -0.982  0.00  0.00    +0.309 C 
ATOM     11  O   LIG    1       -2.040   4.745  -1.913  0.00  0.00    -0.251 OA
ENDBRANCH   8  10
ENDBRANCH   1   8
TORSDOF 2
