REMARK  Name = ZINC04349538
REMARK                            x       y       z     vdW  Elec       q    Type
REMARK                         _______ _______ _______ _____ _____    ______ ____
ROOT
ATOM      1  C   LIG    1        0.002  -0.004   0.002  0.00  0.00    +0.101 A 
ATOM      2  C   LIG    1        1.340  -0.307  -0.012  0.00  0.00    -0.015 A 
ATOM      3  C   LIG    1        2.241   0.777  -0.017  0.00  0.00    +0.042 A 
ATOM      4  C   LIG    1        3.659   0.565  -0.040  0.00  0.00    +0.165 C 
ATOM      5  C   LIG    1        4.174  -0.851  -0.086  0.00  0.00    +0.080 C 
ATOM      6  C   LIG    1        3.212  -1.782   0.652  0.00  0.00    +0.013 C 
ATOM      7  O   LIG    1        4.428   1.505  -0.024  0.00  0.00    -0.292 OA
ATOM      8  C   LIG    1        1.682   2.071  -0.003  0.00  0.00    +0.057 A 
ATOM      9  C   LIG    1        1.837  -1.750  -0.020  0.00  0.00    +0.037 C 
ATOM     10  S   LIG    1       -0.022   1.775   0.012  0.00  0.00    -0.075 S 
ENDROOT
BRANCH   1  11
ATOM     11  C   LIG    1       -1.134  -0.924   0.007  0.00  0.00    +0.346 C 
ATOM     12  O   LIG    1       -0.943  -2.126  -0.000  0.00  0.00    -0.244 OA
BRANCH  11  13
ATOM     13  O   LIG    1       -2.393  -0.441   0.021  0.00  0.00    -0.461 OA
BRANCH  13  15
ATOM     14  C   LIG    1       -4.800  -0.667   0.042  0.00  0.00    +0.048 C 
ATOM     15  C   LIG    1       -3.455  -1.397   0.026  0.00  0.00    +0.229 C 
ENDBRANCH  13  15
ENDBRANCH  11  13
ENDBRANCH   1  11
BRANCH   8  16
ATOM     16  S   LIG    1        2.520   3.621  -0.002  0.00  0.00    -0.115 S 
BRANCH  16  17
ATOM     17  C   LIG    1        1.101   4.745   0.019  0.00  0.00    +0.046 C 
ATOM     18  C   LIG    1        1.593   6.189  -0.103  0.00  0.00    +0.019 C 
ATOM     19  C   LIG    1        0.336   4.576   1.333  0.00  0.00    +0.019 C 
ENDBRANCH  16  17
ENDBRANCH   8  16
TORSDOF 5
