REMARK  Name = ZINC04215196
REMARK                            x       y       z     vdW  Elec       q    Type
REMARK                         _______ _______ _______ _____ _____    ______ ____
ROOT
ATOM      1  C   LIG    1        4.910   0.091  -0.213  0.00  0.00    +0.135 C 
ATOM      2  C   LIG    1        4.923   0.895  -1.516  0.00  0.00    +0.019 C 
ATOM      3  C   LIG    1        4.715  -0.058  -2.698  0.00  0.00    -0.076 C 
ATOM      4  N   LIG    1        5.809  -1.051  -2.712  0.00  0.00    +0.380 N 
ATOM      5  H   LIG    1        6.708  -0.556  -2.743  0.00  0.00    -0.082 HD
ATOM      6  C   LIG    1        5.760  -1.880  -1.489  0.00  0.00    -0.076 C 
ATOM      7  C   LIG    1        6.000  -0.983  -0.272  0.00  0.00    +0.019 C 
ENDROOT
BRANCH   1   9
ATOM      8  C   LIG    1        3.415  -1.453   0.936  0.00  0.00    +0.220 C 
ATOM      9  N   LIG    1        3.602  -0.548  -0.045  0.00  0.00    -0.255 N 
ATOM     10  O   LIG    1        4.296  -1.665   1.742  0.00  0.00    -0.275 OA
BRANCH   9  11
ATOM     11  C   LIG    1        2.547  -0.217  -0.902  0.00  0.00    +0.037 A 
ATOM     12  C   LIG    1        2.017  -1.177  -1.755  0.00  0.00    +0.023 A 
ATOM     13  C   LIG    1        0.975  -0.848  -2.600  0.00  0.00    +0.002 A 
ATOM     14  C   LIG    1        0.460   0.435  -2.598  0.00  0.00    +0.000 A 
ATOM     15  C   LIG    1        0.986   1.393  -1.750  0.00  0.00    +0.002 A 
ATOM     16  C   LIG    1        2.027   1.070  -0.902  0.00  0.00    +0.023 A 
ENDBRANCH   9  11
BRANCH   8  18
ATOM     17  C   LIG    1        2.107  -3.061   2.298  0.00  0.00    +0.013 C 
ATOM     18  C   LIG    1        2.111  -2.202   1.031  0.00  0.00    +0.093 C 
ENDBRANCH   8  18
ENDBRANCH   1   9
BRANCH   1  19
ATOM     19  C   LIG    1        5.173   1.012   0.950  0.00  0.00    +0.331 C 
ATOM     20  O   LIG    1        6.293   1.126   1.389  0.00  0.00    -0.248 OA
BRANCH  19  21
ATOM     21  O   LIG    1        4.164   1.707   1.498  0.00  0.00    -0.466 OA
ATOM     22  C   LIG    1        4.492   2.575   2.615  0.00  0.00    +0.280 C 
ENDBRANCH  19  21
ENDBRANCH   1  19
BRANCH   4  23
ATOM     23  C   LIG    1        5.694  -1.911  -3.909  0.00  0.00    -0.074 C 
BRANCH  23  24
ATOM     24  C   LIG    1        5.971  -1.064  -5.152  0.00  0.00    +0.016 C 
BRANCH  24  25
ATOM     25  C   LIG    1        5.880  -1.931  -6.381  0.00  0.00    -0.049 A 
ATOM     26  C   LIG    1        7.007  -2.574  -6.859  0.00  0.00    +0.003 A 
ATOM     27  C   LIG    1        6.922  -3.373  -7.983  0.00  0.00    +0.000 A 
ATOM     28  C   LIG    1        5.713  -3.522  -8.636  0.00  0.00    +0.000 A 
ATOM     29  C   LIG    1        4.587  -2.875  -8.162  0.00  0.00    +0.000 A 
ATOM     30  C   LIG    1        4.670  -2.080  -7.034  0.00  0.00    +0.003 A 
ENDBRANCH  24  25
ENDBRANCH  23  24
ENDBRANCH   4  23
TORSDOF 8
