REMARK  Name = ZINC04533914
REMARK                            x       y       z     vdW  Elec       q    Type
REMARK                         _______ _______ _______ _____ _____    ______ ____
ROOT
ATOM      1  C   LIG    1        1.358   1.873  -0.001  0.00  0.00    +0.226 C 
ATOM      2  C   LIG    1        2.044   0.890  -0.983  0.00  0.00    +0.088 C 
ATOM      3  C   LIG    1        1.318  -0.441  -0.670  0.00  0.00    +0.146 C 
ATOM      4  C   LIG    1        0.002  -0.004   0.002  0.00  0.00    +0.132 C 
ATOM      5  O   LIG    1       -0.017   1.433   0.010  0.00  0.00    -0.353 OA
ENDROOT
BRANCH   1   9
ATOM      6  C   LIG    1       -0.834   5.960  -1.676  0.00  0.00    +0.051 C 
ATOM      7  C   LIG    1        0.407   5.196  -1.293  0.00  0.00    +0.030 A 
ATOM      8  C   LIG    1        0.318   3.928  -0.838  0.00  0.00    +0.101 A 
ATOM      9  N   LIG    1        1.455   3.249  -0.496  0.00  0.00    -0.274 N 
ATOM     10  C   LIG    1        2.662   3.834  -0.604  0.00  0.00    +0.331 A 
ATOM     11  N   LIG    1        2.780   5.095  -1.060  0.00  0.00    -0.275 N 
ATOM     12  H   LIG    1        3.686   5.512  -1.141  0.00  0.00    +0.173 HD
ATOM     13  O   LIG    1        3.659   3.214  -0.290  0.00  0.00    -0.246 OA
ATOM     14  C   LIG    1        1.683   5.798  -1.407  0.00  0.00    +0.257 A 
ATOM     15  O   LIG    1        1.790   6.941  -1.815  0.00  0.00    -0.267 OA
ENDBRANCH   1   9
BRANCH   3  16
ATOM     16  O   LIG    1        1.050  -1.162  -1.874  0.00  0.00    -0.389 OA
ATOM     17  H   LIG    1        1.844  -1.461  -2.338  0.00  0.00    +0.210 HD
ENDBRANCH   3  16
BRANCH   4  18
ATOM     18  C   LIG    1       -1.190  -0.536  -0.795  0.00  0.00    -0.052 C 
BRANCH  18  19
ATOM     19  N   LIG    1       -2.437  -0.076  -0.159  0.00  0.00    +0.380 N 
ATOM     20  H   LIG    1       -2.466   0.951  -0.177  0.00  0.00    -0.090 HD
ATOM     21  H   LIG    1       -2.473  -0.392   0.808  0.00  0.00    -0.090 HD
ATOM     22  H   LIG    1       -3.243  -0.440  -0.665  0.00  0.00    -0.090 HD
ENDBRANCH  18  19
ENDBRANCH   4  18
TORSDOF 4
