REMARK  Name = ZINC04111883
REMARK                            x       y       z     vdW  Elec       q    Type
REMARK                         _______ _______ _______ _____ _____    ______ ____
ROOT
ATOM      1  C   LIG    1       -1.339   2.253  -3.423  0.00  0.00    +0.000 A 
ATOM      2  C   LIG    1       -2.600   2.630  -2.998  0.00  0.00    +0.000 A 
ATOM      3  C   LIG    1       -2.951   2.494  -1.668  0.00  0.00    +0.002 A 
ATOM      4  C   LIG    1       -2.042   1.982  -0.762  0.00  0.00    -0.063 A 
ATOM      5  C   LIG    1       -0.779   1.604  -1.187  0.00  0.00    -0.063 A 
ATOM      6  C   LIG    1       -0.013   1.086   0.008  0.00  0.00    -0.046 C 
ATOM      7  N   LIG    1       -0.755   1.573   1.162  0.00  0.00    +0.384 N 
ATOM      8  H   LIG    1       -0.697   0.898   1.934  0.00  0.00    -0.085 HD
ATOM      9  H   LIG    1       -0.381   2.478   1.470  0.00  0.00    -0.085 HD
ATOM     10  C   LIG    1       -2.139   1.721   0.724  0.00  0.00    -0.046 C 
ATOM     11  C   LIG    1       -0.430   1.740  -2.517  0.00  0.00    +0.002 A 
ENDROOT
TORSDOF 0
