REMARK  Name = ZINC04335977
REMARK                            x       y       z     vdW  Elec       q    Type
REMARK                         _______ _______ _______ _____ _____    ______ ____
ROOT
ATOM      1  C   LIG    1       -0.017   1.374   0.010  0.00  0.00    +0.001 A 
ATOM      2  C   LIG    1        1.171   2.092   0.002  0.00  0.00    +0.001 A 
ATOM      3  C   LIG    1        2.382   1.440  -0.015  0.00  0.00    +0.012 A 
ATOM      4  C   LIG    1        2.428   0.041  -0.026  0.00  0.00    +0.032 A 
ATOM      5  C   LIG    1        1.217  -0.685  -0.014  0.00  0.00    +0.014 A 
ATOM      6  C   LIG    1        1.251  -2.159  -0.020  0.00  0.00    +0.102 A 
ATOM      7  C   LIG    1        2.564  -2.774  -0.044  0.00  0.00    +0.038 A 
ATOM      8  C   LIG    1        3.779  -2.104  -0.060  0.00  0.00    +0.034 A 
ATOM      9  C   LIG    1        4.929  -2.888  -0.086  0.00  0.00    +0.012 A 
ATOM     10  C   LIG    1        4.789  -4.271  -0.091  0.00  0.00    +0.003 A 
ATOM     11  C   LIG    1        3.560  -4.910  -0.072  0.00  0.00    +0.028 A 
ATOM     12  C   LIG    1        2.392  -4.153  -0.048  0.00  0.00    +0.067 A 
ATOM     13  N   LIG    1        1.034  -4.313  -0.024  0.00  0.00    -0.276 N 
ATOM     14  H   LIG    1        0.587  -5.174  -0.018  0.00  0.00    +0.189 HD
ATOM     15  N   LIG    1        0.418  -3.170  -0.009  0.00  0.00    -0.173 NA
ATOM     16  C   LIG    1        3.744  -0.635  -0.049  0.00  0.00    +0.194 A 
ATOM     17  O   LIG    1        4.775   0.012  -0.059  0.00  0.00    -0.287 OA
ATOM     18  C   LIG    1        0.002  -0.004   0.002  0.00  0.00    +0.011 A 
ENDROOT
TORSDOF 0
