REMARK  Name = ZINC04098868
REMARK                            x       y       z     vdW  Elec       q    Type
REMARK                         _______ _______ _______ _____ _____    ______ ____
ROOT
ATOM      1  C   LIG    1        0.010   1.535   0.064  0.00  0.00    +0.005 C 
ATOM      2  C   LIG    1        0.023   0.005   0.043  0.00  0.00    -0.029 C 
ATOM      3  C   LIG    1        0.716  -0.477  -1.244  0.00  0.00    +0.031 C 
ATOM      4  C   LIG    1        0.810  -1.989  -1.153  0.00  0.00    +0.106 C 
ATOM      5  C   LIG    1        1.687  -2.313   0.088  0.00  0.00    -0.037 C 
ATOM      6  N   LIG    1        0.911  -1.954   1.265  0.00  0.00    +0.383 N 
ATOM      7  H   LIG    1        1.392  -2.258   2.099  0.00  0.00    -0.085 HD
ATOM      8  H   LIG    1       -0.001  -2.384   1.218  0.00  0.00    -0.085 HD
ATOM      9  C   LIG    1        1.961  -3.805  -0.133  0.00  0.00    +0.010 C 
ATOM     10  C   LIG    1        0.911  -4.660   0.581  0.00  0.00    +0.009 C 
ATOM     11  C   LIG    1        1.842  -3.954  -1.667  0.00  0.00    +0.092 C 
ATOM     12  C   LIG    1        0.772  -4.976  -2.013  0.00  0.00    +0.040 C 
ATOM     13  C   LIG    1        1.168  -6.403  -1.657  0.00  0.00    +0.011 C 
ATOM     14  C   LIG    1        2.564  -6.472  -1.045  0.00  0.00    +0.019 C 
ATOM     15  C   LIG    1        3.131  -7.888  -1.125  0.00  0.00    +0.004 C 
ATOM     16  C   LIG    1        2.942  -8.736   0.124  0.00  0.00    +0.031 C 
ATOM     17  C   LIG    1        3.754  -9.994  -0.078  0.00  0.00    -0.027 C 
ATOM     18  C   LIG    1        4.783 -10.074  -0.876  0.00  0.00    -0.065 C 
ATOM     19  C   LIG    1        5.473 -11.419  -1.015  0.00  0.00    +0.062 C 
ATOM     20  C   LIG    1        6.977 -11.225  -0.812  0.00  0.00    +0.119 C 
ATOM     21  C   LIG    1        7.487 -10.168  -1.795  0.00  0.00    +0.032 C 
ATOM     22  C   LIG    1        6.837  -8.822  -1.477  0.00  0.00    +0.014 C 
ATOM     23  C   LIG    1        5.322  -8.917  -1.683  0.00  0.00    -0.008 C 
ATOM     24  C   LIG    1        5.026  -9.152  -3.166  0.00  0.00    +0.016 C 
ATOM     25  C   LIG    1        4.657  -7.631  -1.274  0.00  0.00    +0.007 C 
ATOM     26  C   LIG    1        4.686  -6.490  -2.303  0.00  0.00    +0.035 C 
ATOM     27  C   LIG    1        3.496  -5.624  -1.913  0.00  0.00    -0.064 C 
ATOM     28  C   LIG    1        3.182  -4.389  -2.229  0.00  0.00    -0.042 C 
ATOM     29  C   LIG    1        4.062  -3.496  -3.064  0.00  0.00    +0.042 C 
ATOM     30  O   LIG    1        1.490  -2.661  -2.211  0.00  0.00    -0.367 OA
ATOM     31  C   LIG    1        0.750  -0.506   1.284  0.00  0.00    -0.079 C 
ENDROOT
BRANCH  20  32
ATOM     32  O   LIG    1        7.654 -12.461  -1.047  0.00  0.00    -0.391 OA
ATOM     33  H   LIG    1        7.378 -13.179  -0.460  0.00  0.00    +0.210 HD
ENDBRANCH  20  32
TORSDOF 1
