REMARK  Name = ZINC04471247
REMARK                            x       y       z     vdW  Elec       q    Type
REMARK                         _______ _______ _______ _____ _____    ______ ____
ROOT
ATOM      1  C   LIG    1        7.241  -0.654   0.007  0.00  0.00    +0.068 C 
ATOM      2  C   LIG    1        5.798  -0.975  -0.287  0.00  0.00    +0.069 C 
ATOM      3  N   LIG    1        4.865  -0.119  -0.571  0.00  0.00    -0.177 NA
ATOM      4  N   LIG    1        3.641  -0.751  -0.786  0.00  0.00    -0.156 N 
ATOM      5  C   LIG    1        3.776  -2.086  -0.647  0.00  0.00    +0.272 C 
ATOM      6  O   LIG    1        2.906  -2.929  -0.773  0.00  0.00    -0.268 OA
ATOM      7  C   LIG    1        5.194  -2.316  -0.312  0.00  0.00    +0.062 C 
ATOM      8  C   LIG    1        5.817  -3.526  -0.075  0.00  0.00    +0.023 C 
ENDROOT
BRANCH   4   9
ATOM      9  C   LIG    1        2.445  -0.095  -1.106  0.00  0.00    +0.061 A 
ATOM     10  C   LIG    1        1.281  -0.830  -1.305  0.00  0.00    +0.027 A 
ATOM     11  C   LIG    1        0.099  -0.189  -1.621  0.00  0.00    +0.023 A 
ATOM     12  C   LIG    1        0.064   1.187  -1.742  0.00  0.00    +0.055 A 
ATOM     13 CL   LIG    1       -1.423   1.986  -2.146  0.00  0.00    -0.083 Cl
ATOM     14  C   LIG    1        1.228   1.934  -1.543  0.00  0.00    +0.079 A 
ATOM     15  C   LIG    1        2.422   1.285  -1.223  0.00  0.00    +0.042 A 
BRANCH  14  16
ATOM     16  C   LIG    1        1.196   3.405  -1.671  0.00  0.00    +0.338 C 
ATOM     17  O   LIG    1        0.156   3.967  -1.948  0.00  0.00    -0.245 OA
BRANCH  16  18
ATOM     18  O   LIG    1        2.320   4.123  -1.479  0.00  0.00    -0.477 OA
ATOM     19  H   LIG    1        3.122   3.689  -1.265  0.00  0.00    +0.295 HD
ENDBRANCH  16  18
ENDBRANCH  14  16
ENDBRANCH   4   9
BRANCH   8  20
ATOM     20  C   LIG    1        5.022  -4.751   0.036  0.00  0.00    -0.024 A 
ATOM     21  C   LIG    1        3.769  -4.724   0.665  0.00  0.00    +0.008 A 
ATOM     22  C   LIG    1        3.026  -5.880   0.761  0.00  0.00    +0.004 A 
ATOM     23  C   LIG    1        3.517  -7.068   0.247  0.00  0.00    -0.045 A 
ATOM     24  C   LIG    1        4.755  -7.106  -0.370  0.00  0.00    +0.004 A 
ATOM     25  C   LIG    1        5.511  -5.959  -0.480  0.00  0.00    +0.008 A 
BRANCH  23  26
ATOM     26  C   LIG    1        2.698  -8.328   0.362  0.00  0.00    +0.013 C 
ATOM     27  C   LIG    1        1.362  -8.135  -0.358  0.00  0.00    +0.012 C 
ATOM     28  C   LIG    1        2.442  -8.638   1.838  0.00  0.00    +0.012 C 
ENDBRANCH  23  26
ENDBRANCH   8  20
TORSDOF 5
