REMARK  Name = ZINC04393014
REMARK                            x       y       z     vdW  Elec       q    Type
REMARK                         _______ _______ _______ _____ _____    ______ ____
ROOT
ATOM      1  C   LIG    1        1.663   9.311   0.037  0.00  0.00    +0.118 C 
ATOM      2  C   LIG    1        1.437  10.018   1.353  0.00  0.00    +0.029 C 
ATOM      3  C   LIG    1        2.062  11.412   1.353  0.00  0.00    +0.036 C 
ATOM      4  C   LIG    1        1.357  12.242   0.286  0.00  0.00    +0.068 C 
ATOM      5  C   LIG    1        1.927  13.658   0.222  0.00  0.00    -0.031 C 
ATOM      6  N   LIG    1        1.152  14.429  -0.781  0.00  0.00    +0.384 N 
ATOM      7  H   LIG    1        0.159  14.406  -0.520  0.00  0.00    -0.081 HD
ATOM      8  C   LIG    1        1.304  13.833  -2.130  0.00  0.00    -0.077 C 
ATOM      9  C   LIG    1        0.759  12.399  -2.124  0.00  0.00    -0.001 C 
ATOM     10  C   LIG    1        3.420  13.724  -0.052  0.00  0.00    +0.023 C 
ATOM     11  C   LIG    1        3.899  12.643  -0.966  0.00  0.00    -0.041 A 
ATOM     12  C   LIG    1        5.203  12.501  -1.407  0.00  0.00    +0.007 A 
ATOM     13  C   LIG    1        5.562  11.414  -2.186  0.00  0.00    +0.049 A 
ATOM     14  C   LIG    1        4.669  10.408  -2.551  0.00  0.00    +0.159 A 
ATOM     15  C   LIG    1        3.346  10.545  -2.117  0.00  0.00    +0.166 A 
ATOM     16  O   LIG    1        2.271   9.736  -2.234  0.00  0.00    -0.482 OA
ATOM     17  C   LIG    1        3.013  11.682  -1.394  0.00  0.00    +0.013 A 
ATOM     18  C   LIG    1        1.539  11.600  -1.078  0.00  0.00    +0.064 C 
ATOM     19  C   LIG    1        1.301  10.105  -1.201  0.00  0.00    +0.207 C 
ENDROOT
BRANCH   1  21
ATOM     20  C   LIG    1       -0.589   8.142   0.052  0.00  0.00    +0.132 C 
ATOM     21  N   LIG    1        0.874   8.076   0.038  0.00  0.00    -0.294 N 
ATOM     22  C   LIG    1        1.495   6.880   0.025  0.00  0.00    +0.240 C 
ATOM     23  O   LIG    1        2.711   6.825   0.014  0.00  0.00    -0.271 OA
BRANCH  22  24
ATOM     24  C   LIG    1        0.731   5.685   0.026  0.00  0.00    +0.068 C 
ATOM     25  C   LIG    1        1.353   4.486   0.014  0.00  0.00    +0.016 C 
BRANCH  25  26
ATOM     26  C   LIG    1        0.562   3.248   0.014  0.00  0.00    +0.013 A 
ATOM     27  C   LIG    1        1.070   1.868   0.002  0.00  0.00    +0.049 A 
ATOM     28  C   LIG    1       -0.013   1.076   0.008  0.00  0.00    +0.195 A 
ATOM     29  O   LIG    1       -1.117   1.838   0.017  0.00  0.00    -0.470 OA
ATOM     30  C   LIG    1       -0.800   3.138   0.027  0.00  0.00    +0.202 A 
ENDBRANCH  25  26
ENDBRANCH  22  24
ENDBRANCH   1  21
BRANCH   4  31
ATOM     31  O   LIG    1       -0.036  12.307   0.596  0.00  0.00    -0.389 OA
ATOM     32  H   LIG    1       -0.230  12.706   1.455  0.00  0.00    +0.210 HD
ENDBRANCH   4  31
BRANCH  14  33
ATOM     33  O   LIG    1        5.066   9.341  -3.296  0.00  0.00    -0.503 OA
ATOM     34  H   LIG    1        5.377   8.590  -2.772  0.00  0.00    +0.292 HD
ENDBRANCH  14  33
BRANCH   6  35
ATOM     35  C   LIG    1        1.609  15.831  -0.800  0.00  0.00    -0.075 C 
BRANCH  35  36
ATOM     36  C   LIG    1        0.658  16.643  -1.681  0.00  0.00    -0.028 C 
ATOM     37  C   LIG    1        1.241  17.298  -2.935  0.00  0.00    +0.002 C 
ATOM     38  C   LIG    1        0.859  18.159  -1.728  0.00  0.00    +0.002 C 
ENDBRANCH  35  36
ENDBRANCH   6  35
TORSDOF 7
