REMARK  Name = ZINC04746497
REMARK                            x       y       z     vdW  Elec       q    Type
REMARK                         _______ _______ _______ _____ _____    ______ ____
ROOT
ATOM      1  C   LIG    1        3.711  -0.707  -0.038  0.00  0.00    +0.100 C 
ENDROOT
BRANCH   1   2
ATOM      2  C   LIG    1        3.884  -1.591  -1.246  0.00  0.00    +0.091 A 
ATOM      3  C   LIG    1        3.743  -2.946  -1.131  0.00  0.00    +0.138 A 
ATOM      4  C   LIG    1        3.922  -3.765  -2.340  0.00  0.00    +0.059 A 
ATOM      5  C   LIG    1        3.793  -5.154  -2.296  0.00  0.00    +0.015 A 
ATOM      6  C   LIG    1        3.966  -5.891  -3.446  0.00  0.00    +0.001 A 
ATOM      7  C   LIG    1        4.267  -5.260  -4.644  0.00  0.00    +0.004 A 
ATOM      8  C   LIG    1        4.398  -3.888  -4.702  0.00  0.00    +0.047 A 
ATOM      9  C   LIG    1        4.227  -3.126  -3.553  0.00  0.00    +0.143 A 
ATOM     10  O   LIG    1        4.350  -1.782  -3.592  0.00  0.00    -0.422 OA
ATOM     11  C   LIG    1        4.184  -1.026  -2.495  0.00  0.00    +0.345 A 
ATOM     12  O   LIG    1        4.301   0.183  -2.585  0.00  0.00    -0.245 OA
BRANCH   3  13
ATOM     13  O   LIG    1        3.450  -3.518   0.059  0.00  0.00    -0.506 OA
ATOM     14  H   LIG    1        3.339  -2.983   0.821  0.00  0.00    +0.292 HD
ENDBRANCH   3  13
ENDBRANCH   1   2
BRANCH   1  15
ATOM     15  C   LIG    1        4.050  -1.486   1.207  0.00  0.00    +0.091 A 
ATOM     16  C   LIG    1        5.317  -1.965   1.394  0.00  0.00    +0.138 A 
ATOM     17  C   LIG    1        5.595  -2.720   2.626  0.00  0.00    +0.059 A 
ATOM     18  C   LIG    1        6.867  -3.237   2.882  0.00  0.00    +0.015 A 
ATOM     19  C   LIG    1        7.095  -3.938   4.046  0.00  0.00    +0.001 A 
ATOM     20  C   LIG    1        6.069  -4.131   4.959  0.00  0.00    +0.004 A 
ATOM     21  C   LIG    1        4.809  -3.626   4.718  0.00  0.00    +0.047 A 
ATOM     22  C   LIG    1        4.558  -2.916   3.552  0.00  0.00    +0.143 A 
ATOM     23  O   LIG    1        3.329  -2.413   3.301  0.00  0.00    -0.422 OA
ATOM     24  C   LIG    1        3.067  -1.719   2.182  0.00  0.00    +0.345 A 
ATOM     25  O   LIG    1        1.943  -1.282   2.006  0.00  0.00    -0.245 OA
BRANCH  16  26
ATOM     26  O   LIG    1        6.285  -1.752   0.474  0.00  0.00    -0.506 OA
ATOM     27  H   LIG    1        6.092  -1.270  -0.305  0.00  0.00    +0.292 HD
ENDBRANCH  16  26
ENDBRANCH   1  15
BRANCH   1  31
ATOM     28  C   LIG    1       -0.339   0.635   0.176  0.00  0.00    +0.000 A 
ATOM     29  C   LIG    1        0.691   1.482   0.541  0.00  0.00    +0.000 A 
ATOM     30  C   LIG    1        2.001   1.048   0.472  0.00  0.00    +0.004 A 
ATOM     31  C   LIG    1        2.282  -0.234   0.039  0.00  0.00    -0.035 A 
ATOM     32  C   LIG    1        1.253  -1.082  -0.325  0.00  0.00    +0.004 A 
ATOM     33  C   LIG    1       -0.057  -0.647  -0.257  0.00  0.00    +0.000 A 
ENDBRANCH   1  31
TORSDOF 5
