REMARK  Name = ZINC04522248
REMARK                            x       y       z     vdW  Elec       q    Type
REMARK                         _______ _______ _______ _____ _____    ______ ____
ROOT
ATOM      1  C   LIG    1        0.002  -0.004   0.002  0.00  0.00    +0.137 C 
ENDROOT
BRANCH   1   5
ATOM      2  C   LIG    1       -0.846   4.133   0.642  0.00  0.00    +0.000 A 
ATOM      3  C   LIG    1        0.406   3.744   0.204  0.00  0.00    +0.000 A 
ATOM      4  C   LIG    1        0.680   2.405  -0.003  0.00  0.00    +0.005 A 
ATOM      5  C   LIG    1       -0.297   1.456   0.228  0.00  0.00    -0.031 A 
ATOM      6  C   LIG    1       -1.551   1.845   0.661  0.00  0.00    +0.005 A 
ATOM      7  C   LIG    1       -1.824   3.183   0.873  0.00  0.00    +0.000 A 
ENDBRANCH   1   5
BRANCH   1   8
ATOM      8  C   LIG    1       -0.817  -0.511  -1.157  0.00  0.00    -0.031 A 
ATOM      9  C   LIG    1       -2.184  -0.668  -1.021  0.00  0.00    +0.005 A 
ATOM     10  C   LIG    1       -2.936  -1.129  -2.086  0.00  0.00    +0.000 A 
ATOM     11  C   LIG    1       -2.320  -1.442  -3.283  0.00  0.00    +0.000 A 
ATOM     12  C   LIG    1       -0.952  -1.291  -3.417  0.00  0.00    +0.000 A 
ATOM     13  C   LIG    1       -0.201  -0.825  -2.354  0.00  0.00    +0.005 A 
ENDBRANCH   1   8
BRANCH   1  14
ATOM     14  C   LIG    1       -0.345  -0.786   1.243  0.00  0.00    +0.247 C 
ATOM     15  N   LIG    1       -0.159  -2.121   1.272  0.00  0.00    -0.197 N 
ATOM     16  H   LIG    1        0.198  -2.578   0.495  0.00  0.00    +0.182 HD
ATOM     17  O   LIG    1       -0.791  -0.214   2.215  0.00  0.00    -0.273 OA
BRANCH  15  18
ATOM     18  O   LIG    1       -0.485  -2.855   2.438  0.00  0.00    -0.295 OA
ATOM     19  H   LIG    1       -0.318  -3.805   2.364  0.00  0.00    +0.241 HD
ENDBRANCH  15  18
ENDBRANCH   1  14
TORSDOF 4
