REMARK  Name = ZINC04575768
REMARK                            x       y       z     vdW  Elec       q    Type
REMARK                         _______ _______ _______ _____ _____    ______ ____
ROOT
ATOM      1  C   LIG    1        0.348   5.858  -2.820  0.00  0.00    -0.056 A 
ATOM      2  C   LIG    1       -0.829   6.505  -3.043  0.00  0.00    +0.002 A 
ATOM      3  C   LIG    1       -1.219   6.861  -4.332  0.00  0.00    +0.001 A 
ATOM      4  C   LIG    1       -0.435   6.572  -5.407  0.00  0.00    +0.008 A 
ATOM      5  C   LIG    1        0.787   5.905  -5.216  0.00  0.00    -0.018 A 
ATOM      6  C   LIG    1        1.623   5.589  -6.301  0.00  0.00    +0.008 A 
ATOM      7  C   LIG    1        2.799   4.942  -6.078  0.00  0.00    +0.001 A 
ATOM      8  C   LIG    1        3.190   4.587  -4.788  0.00  0.00    +0.001 A 
ATOM      9  C   LIG    1        2.406   4.876  -3.714  0.00  0.00    +0.009 A 
ATOM     10  C   LIG    1        1.186   5.547  -3.904  0.00  0.00    -0.017 A 
ENDROOT
BRANCH   1  11
ATOM     11  C   LIG    1        0.752   5.481  -1.418  0.00  0.00    -0.042 C 
BRANCH  11  16
ATOM     12  C   LIG    1       -0.357   0.096   0.142  0.00  0.00    +0.007 C 
ATOM     13  C   LIG    1       -0.263   1.623   0.118  0.00  0.00    -0.018 C 
ATOM     14  C   LIG    1       -0.998   2.162  -1.112  0.00  0.00    -0.016 C 
ATOM     15  C   LIG    1       -0.849   3.684  -1.163  0.00  0.00    -0.078 C 
ATOM     16  N   LIG    1        0.587   4.023  -1.253  0.00  0.00    +0.382 N 
ATOM     17  H   LIG    1        0.991   3.547  -2.068  0.00  0.00    -0.081 HD
ATOM     18  C   LIG    1        1.292   3.570  -0.035  0.00  0.00    -0.078 C 
ATOM     19  C   LIG    1        1.207   2.044   0.050  0.00  0.00    -0.016 C 
ENDBRANCH  11  16
ENDBRANCH   1  11
TORSDOF 2
