REMARK  Name = ZINC04532033
REMARK                            x       y       z     vdW  Elec       q    Type
REMARK                         _______ _______ _______ _____ _____    ______ ____
ROOT
ATOM      1  C   LIG    1        0.763  -2.064  -1.275  0.00  0.00    -0.002 C 
ATOM      2  C   LIG    1       -0.623  -2.755  -1.301  0.00  0.00    +0.004 C 
ATOM      3  C   LIG    1       -0.559  -3.831  -2.419  0.00  0.00    +0.004 C 
ATOM      4  C   LIG    1        0.946  -3.953  -2.699  0.00  0.00    -0.001 C 
ATOM      5  C   LIG    1        1.353  -4.623  -3.974  0.00  0.00    -0.004 C 
ATOM      6  C   LIG    1        0.228  -4.795  -4.986  0.00  0.00    +0.004 C 
ATOM      7  C   LIG    1        0.819  -5.315  -6.308  0.00  0.00    +0.004 C 
ATOM      8  C   LIG    1        2.185  -5.917  -6.018  0.00  0.00    -0.002 C 
ATOM      9  C   LIG    1        3.192  -4.828  -5.643  0.00  0.00    -0.026 C 
ATOM     10  C   LIG    1        3.530  -3.974  -6.868  0.00  0.00    +0.012 C 
ATOM     11  C   LIG    1        4.463  -5.492  -5.127  0.00  0.00    +0.010 C 
ATOM     12  C   LIG    1        5.043  -6.403  -6.214  0.00  0.00    +0.032 C 
ATOM     13  C   LIG    1        4.024  -7.440  -6.676  0.00  0.00    +0.115 C 
ATOM     14  C   LIG    1        2.731  -6.770  -7.154  0.00  0.00    +0.035 C 
ATOM     15  C   LIG    1        2.545  -3.908  -4.611  0.00  0.00    -0.001 C 
ATOM     16  C   LIG    1        3.527  -3.465  -3.536  0.00  0.00    +0.005 C 
ATOM     17  C   LIG    1        2.914  -2.386  -2.633  0.00  0.00    +0.007 C 
ATOM     18  C   LIG    1        1.410  -2.485  -2.615  0.00  0.00    -0.026 C 
ATOM     19  C   LIG    1        0.787  -1.607  -3.702  0.00  0.00    +0.012 C 
ENDROOT
BRANCH   1  21
ATOM     20  C   LIG    1        1.987   0.107  -1.146  0.00  0.00    +0.008 C 
ATOM     21  C   LIG    1        0.606  -0.546  -1.232  0.00  0.00    -0.010 C 
BRANCH  21  22
ATOM     22  C   LIG    1       -0.221  -0.154  -0.006  0.00  0.00    +0.014 C 
BRANCH  22  23
ATOM     23  C   LIG    1       -0.484   1.353  -0.029  0.00  0.00    +0.121 C 
BRANCH  23  24
ATOM     24  C   LIG    1       -1.298   1.739   1.179  0.00  0.00    +0.305 C 
ATOM     25  O   LIG    1       -1.634   0.896   1.976  0.00  0.00    -0.251 OA
BRANCH  24  26
ATOM     26  O   LIG    1       -1.651   3.021   1.369  0.00  0.00    -0.481 OA
ATOM     27  H   LIG    1       -1.390   3.675   0.750  0.00  0.00    +0.295 HD
ENDBRANCH  24  26
ENDBRANCH  23  24
ENDBRANCH  22  23
ENDBRANCH  21  22
ENDBRANCH   1  21
BRANCH  13  28
ATOM     28  O   LIG    1        4.581  -8.203  -7.750  0.00  0.00    -0.392 OA
ATOM     29  H   LIG    1        5.404  -8.658  -7.524  0.00  0.00    +0.210 HD
ENDBRANCH  13  28
TORSDOF 6
