REMARK  Name = ZINC04428377
REMARK                            x       y       z     vdW  Elec       q    Type
REMARK                         _______ _______ _______ _____ _____    ______ ____
ROOT
ATOM      1  C   LIG    1       -0.523   3.115   1.418  0.00  0.00    +0.014 C 
ATOM      2  C   LIG    1       -0.691   1.599   1.307  0.00  0.00    +0.001 C 
ATOM      3  C   LIG    1        0.022   0.907   2.452  0.00  0.00    +0.014 C 
ATOM      4  C   LIG    1        1.429   1.512   2.532  0.00  0.00    +0.036 C 
ATOM      5  C   LIG    1        2.042   1.772   1.182  0.00  0.00    -0.036 A 
ATOM      6  C   LIG    1        3.377   2.236   1.154  0.00  0.00    -0.014 A 
ATOM      7  C   LIG    1        4.104   2.383   2.349  0.00  0.00    +0.012 A 
ATOM      8  C   LIG    1        5.385   2.838   2.306  0.00  0.00    +0.046 A 
ATOM      9  C   LIG    1        5.993   3.162   1.089  0.00  0.00    +0.117 A 
ATOM     10  C   LIG    1        5.316   3.027  -0.089  0.00  0.00    +0.054 A 
ATOM     11  C   LIG    1        3.992   2.557  -0.078  0.00  0.00    -0.014 A 
ATOM     12  C   LIG    1        3.266   2.401  -1.272  0.00  0.00    +0.009 A 
ATOM     13  C   LIG    1        1.992   1.934  -1.216  0.00  0.00    +0.005 A 
ATOM     14  C   LIG    1        1.382   1.612  -0.003  0.00  0.00    -0.040 A 
ATOM     15  C   LIG    1       -2.157   1.246   1.092  0.00  0.00    +0.121 C 
ATOM     16  C   LIG    1       -2.369   1.309  -0.442  0.00  0.00    +0.032 C 
ATOM     17  C   LIG    1       -0.964   1.600  -1.074  0.00  0.00    +0.011 C 
ATOM     18  C   LIG    1       -0.013   1.086   0.008  0.00  0.00    +0.028 C 
ENDROOT
BRANCH   9  19
ATOM     19  O   LIG    1        7.274   3.616   1.079  0.00  0.00    -0.507 OA
ATOM     20  H   LIG    1        7.938   2.917   1.002  0.00  0.00    +0.292 HD
ENDBRANCH   9  19
BRANCH  15  21
ATOM     21  O   LIG    1       -2.427  -0.070   1.579  0.00  0.00    -0.391 OA
ATOM     22  H   LIG    1       -3.346  -0.349   1.469  0.00  0.00    +0.210 HD
ENDBRANCH  15  21
TORSDOF 2
