REMARK  Name = ZINC04692584
REMARK                            x       y       z     vdW  Elec       q    Type
REMARK                         _______ _______ _______ _____ _____    ______ ____
ROOT
ATOM      1  C   LIG    1       -0.021   1.405  -0.149  0.00  0.00    +0.154 A 
ATOM      2  N   LIG    1        1.119   2.068  -0.320  0.00  0.00    -0.218 NA
ATOM      3  C   LIG    1        2.263   1.428  -0.486  0.00  0.00    +0.225 A 
ATOM      4  N   LIG    1        2.344   0.116  -0.493  0.00  0.00    -0.216 NA
ATOM      5  C   LIG    1        1.249  -0.634  -0.329  0.00  0.00    +0.163 A 
ATOM      6  N   LIG    1        1.009  -1.958  -0.289  0.00  0.00    -0.329 N 
ATOM      7  C   LIG    1       -0.263  -2.171  -0.100  0.00  0.00    +0.198 A 
ATOM      8  N   LIG    1       -0.922  -0.994  -0.007  0.00  0.00    -0.231 NA
ATOM      9  H   LIG    1        1.703  -2.671  -0.388  0.00  0.00    +0.168 HD
ATOM     10  C   LIG    1        0.013   0.009  -0.149  0.00  0.00    +0.148 A 
ENDROOT
BRANCH   1  11
ATOM     11  N   LIG    1       -1.217   2.084   0.025  0.00  0.00    -0.298 N 
ATOM     12  H   LIG    1       -1.607   1.679   0.852  0.00  0.00    +0.154 HD
BRANCH  11  19
ATOM     13  C   LIG    1       -0.151   4.125   0.755  0.00  0.00    +0.026 A 
ATOM     14  C   LIG    1       -0.153   5.502   0.867  0.00  0.00    +0.040 A 
ATOM     15  C   LIG    1       -1.222   6.236   0.381  0.00  0.00    +0.124 A 
ATOM     16  F   LIG    1       -1.223   7.582   0.496  0.00  0.00    -0.205 F 
ATOM     17  C   LIG    1       -2.289   5.593  -0.223  0.00  0.00    +0.040 A 
ATOM     18  C   LIG    1       -2.289   4.217  -0.342  0.00  0.00    +0.026 A 
ATOM     19  C   LIG    1       -1.218   3.478   0.144  0.00  0.00    +0.033 A 
ENDBRANCH  11  19
ENDBRANCH   1  11
TORSDOF 2
