REMARK  Name = ZINC04228232
REMARK                            x       y       z     vdW  Elec       q    Type
REMARK                         _______ _______ _______ _____ _____    ______ ____
ROOT
ATOM      1  C   UNK    1        1.249  -0.412   0.604  0.00  0.00    +0.253 C 
ATOM      2  C   UNK    1        2.274   0.603   0.037  0.00  0.00    +0.195 C 
ATOM      3  C   UNK    1        1.448   1.911  -0.002  0.00  0.00    +0.177 C 
ATOM      4  C   UNK    1       -0.017   1.433   0.010  0.00  0.00    +0.162 C 
ATOM      5  O   UNK    1        0.002  -0.004   0.002  0.00  0.00    -0.347 OA
ENDROOT
BRANCH   1  11
ATOM      6  C   UNK    1        3.818  -3.613   2.422  0.00  0.00    +0.225 A 
ATOM      7  N   UNK    1        3.881  -4.743   1.742  0.00  0.00    -0.219 NA
ATOM      8  C   UNK    1        3.220  -4.897   0.599  0.00  0.00    +0.147 A 
ATOM      9  C   UNK    1        2.445  -3.825   0.124  0.00  0.00    +0.147 A 
ATOM     10  C   UNK    1        2.415  -2.642   0.882  0.00  0.00    +0.167 A 
ATOM     11  N   UNK    1        1.594  -1.778   0.202  0.00  0.00    -0.286 N 
ATOM     12  C   UNK    1        1.162  -2.422  -0.919  0.00  0.00    +0.203 A 
ATOM     13  N   UNK    1        1.663  -3.622  -0.963  0.00  0.00    -0.231 NA
ATOM     14  N   UNK    1        3.106  -2.583   2.016  0.00  0.00    -0.216 NA
BRANCH   8  15
ATOM     15  N   UNK    1        3.293  -6.085  -0.107  0.00  0.00    -0.341 N 
ATOM     16  H   UNK    1        3.831  -6.817   0.231  0.00  0.00    +0.144 HD
ATOM     17  H   UNK    1        2.377  -6.477  -0.194  0.00  0.00    +0.144 HD
ENDBRANCH   8  15
ENDBRANCH   1  11
BRANCH   2  18
ATOM     18  O   UNK    1        3.398   0.735   0.909  0.00  0.00    -0.385 OA
ATOM     19  H   UNK    1        4.067   1.359   0.597  0.00  0.00    +0.210 HD
ENDBRANCH   2  18
BRANCH   3  20
ATOM     20  O   UNK    1        1.722   2.710   1.151  0.00  0.00    -0.386 OA
ATOM     21  H   UNK    1        2.631   3.038   1.195  0.00  0.00    +0.210 HD
ENDBRANCH   3  20
BRANCH   4  22
ATOM     22  C   UNK    1       -0.743   1.950  -1.234  0.00  0.00    +0.103 C 
BRANCH  22  23
ATOM     23  S   UNK    1       -2.495   1.489  -1.147  0.00  0.00    -0.158 S 
BRANCH  23  24
ATOM     24  C   UNK    1       -3.204   2.167  -2.673  0.00  0.00    +0.068 C 
BRANCH  24  25
ATOM     25  C   UNK    1       -4.699   1.845  -2.728  0.00  0.00    +0.005 C 
BRANCH  25  26
ATOM     26  C   UNK    1       -5.296   2.417  -4.016  0.00  0.00    +0.036 C 
BRANCH  26  27
ATOM     27  N   UNK    1       -5.226   3.889  -4.006  0.00  0.00    +0.387 N 
ATOM     28  H   UNK    1       -5.662   4.253  -4.862  0.00  0.00    -0.089 HD
ATOM     29  H   UNK    1       -4.255   4.192  -3.972  0.00  0.00    -0.089 HD
ATOM     30  H   UNK    1       -5.725   4.257  -3.197  0.00  0.00    -0.089 HD
ENDBRANCH  26  27
BRANCH  26  31
ATOM     31  C   UNK    1       -6.739   1.996  -4.130  0.00  0.00    +0.290 C 
ATOM     32  O   UNK    1       -7.619   2.765  -3.823  0.00  0.00    -0.253 OA
BRANCH  31  33
ATOM     33  O   UNK    1       -7.045   0.767  -4.573  0.00  0.00    -0.482 OA
ATOM     34  H   UNK    1       -6.363   0.170  -4.811  0.00  0.00    +0.295 HD
ENDBRANCH  31  33
ENDBRANCH  26  31
ENDBRANCH  25  26
ENDBRANCH  24  25
ENDBRANCH  23  24
ENDBRANCH  22  23
ENDBRANCH   4  22
TORSDOF 12
