REMARK  Name = ZINC04617749
REMARK                            x       y       z     vdW  Elec       q    Type
REMARK                         _______ _______ _______ _____ _____    ______ ____
ROOT
ATOM      1  C   LIG    1        2.111   0.046  -1.593  0.00  0.00    +0.090 A 
ATOM      2  C   LIG    1        3.006   0.085  -0.534  0.00  0.00    +0.030 A 
ATOM      3  C   LIG    1        4.283   0.579  -0.726  0.00  0.00    +0.034 A 
ATOM      4  C   LIG    1        4.670   1.036  -1.972  0.00  0.00    +0.125 A 
ATOM      5  C   LIG    1        3.784   1.002  -3.032  0.00  0.00    +0.080 A 
ATOM      6  C   LIG    1        2.505   0.502  -2.850  0.00  0.00    +0.153 A 
ENDROOT
BRANCH   1   7
ATOM      7  N   LIG    1        0.818  -0.454  -1.401  0.00  0.00    -0.217 N 
ATOM      8  H   LIG    1        0.382  -0.955  -2.108  0.00  0.00    +0.173 HD
BRANCH   7  10
ATOM      9  C   LIG    1       -0.079   1.614   0.179  0.00  0.00    +0.218 C 
ATOM     10  S   LIG    1        0.033  -0.191   0.033  0.00  0.00    +0.040 S 
ATOM     11  O   LIG    1       -1.261  -0.748  -0.155  0.00  0.00    -0.155 OA
ATOM     12  O   LIG    1        0.908  -0.709   1.026  0.00  0.00    -0.155 OA
ENDBRANCH   7  10
ENDBRANCH   1   7
BRANCH   4  13
ATOM     13  N   LIG    1        6.039   1.565  -2.171  0.00  0.00    +0.006 N 
ATOM     14  O   LIG    1        6.815   1.597  -1.245  0.00  0.00    -0.130 OA
BRANCH  13  15
ATOM     15  O   LIG    1        6.380   1.966  -3.260  0.00  0.00    -0.396 OA
ATOM     16  H   LIG    1        5.778   1.941  -3.977  0.00  0.00    +0.329 HD
ENDBRANCH  13  15
ENDBRANCH   4  13
BRANCH   6  17
ATOM     17  O   LIG    1        1.633   0.462  -3.893  0.00  0.00    -0.454 OA
BRANCH  17  18
ATOM     18  C   LIG    1        2.097   0.800  -5.125  0.00  0.00    +0.129 A 
ATOM     19  C   LIG    1        3.018  -0.013  -5.768  0.00  0.00    +0.046 A 
ATOM     20  C   LIG    1        3.487   0.333  -7.021  0.00  0.00    +0.004 A 
ATOM     21  C   LIG    1        3.040   1.489  -7.632  0.00  0.00    +0.000 A 
ATOM     22  C   LIG    1        2.122   2.302  -6.993  0.00  0.00    +0.004 A 
ATOM     23  C   LIG    1        1.645   1.957  -5.743  0.00  0.00    +0.046 A 
ENDBRANCH  17  18
ENDBRANCH   6  17
TORSDOF 6
