REMARK  Name = ZINC04428526
REMARK                            x       y       z     vdW  Elec       q    Type
REMARK                         _______ _______ _______ _____ _____    ______ ____
ROOT
ATOM      1  C   LIG    1       -0.011   1.526   0.015  0.00  0.00    +0.016 C 
ATOM      2  C   LIG    1        0.011  -0.004   0.008  0.00  0.00    -0.007 C 
ATOM      3  C   LIG    1       -1.425  -0.460  -0.078  0.00  0.00    +0.019 C 
ATOM      4  C   LIG    1       -1.645  -1.814   0.596  0.00  0.00    +0.080 C 
ATOM      5  C   LIG    1       -1.148  -1.700   2.025  0.00  0.00    +0.156 C 
ATOM      6  C   LIG    1        0.217  -1.185   2.196  0.00  0.00    +0.046 C 
ATOM      7  O   LIG    1       -1.838  -2.016   2.972  0.00  0.00    -0.293 OA
ATOM      8  C   LIG    1        0.804  -0.423  -1.231  0.00  0.00    +0.002 C 
ATOM      9  C   LIG    1        0.086   0.063  -2.486  0.00  0.00    +0.005 C 
ATOM     10  C   LIG    1        0.908  -0.217  -3.754  0.00  0.00    +0.015 C 
ATOM     11  C   LIG    1        2.251   0.464  -3.578  0.00  0.00    +0.029 C 
ATOM     12  C   LIG    1        2.039   1.943  -3.248  0.00  0.00    +0.019 C 
ATOM     13  C   LIG    1        2.978  -0.216  -2.389  0.00  0.00    +0.006 C 
ATOM     14  C   LIG    1        4.392   0.367  -2.515  0.00  0.00    +0.012 C 
ATOM     15  C   LIG    1        4.625   0.356  -4.050  0.00  0.00    +0.075 C 
ATOM     16  C   LIG    1        3.231   0.333  -4.707  0.00  0.00    +0.139 C 
ATOM     17  O   LIG    1        2.977   0.256  -5.885  0.00  0.00    -0.297 OA
ATOM     18  C   LIG    1        2.223   0.162  -1.127  0.00  0.00    -0.003 C 
ATOM     19  C   LIG    1        2.934  -0.409   0.099  0.00  0.00    +0.008 C 
ATOM     20  C   LIG    1        2.195   0.012   1.375  0.00  0.00    +0.032 C 
ATOM     21  C   LIG    1        0.749  -0.431   1.238  0.00  0.00    -0.060 C 
ENDROOT
TORSDOF 0
