REMARK  Name = ZINC04598917
REMARK                            x       y       z     vdW  Elec       q    Type
REMARK                         _______ _______ _______ _____ _____    ______ ____
ROOT
ATOM      1  CA  LEU A  1       -0.172   1.201   4.824  0.00  0.00    +0.162 C 
ENDROOT
BRANCH   1   2
ATOM      2  N   LEU A  1       -0.747   1.594   3.535  0.00  0.00    -0.270 N 
ATOM      3  H   LEU A  1       -1.546   2.143   3.507  0.00  0.00    +0.153 HD
ATOM      4  C   UNK A  0       -0.165   1.193   2.387  0.00  0.00    +0.401 C 
ATOM      5  O   UNK A  0        0.837   0.505   2.422  0.00  0.00    -0.226 OA
BRANCH   4   6
ATOM      6  O   UNK A  0       -0.692   1.554   1.203  0.00  0.00    -0.446 OA
BRANCH   6   7
ATOM      7  C   UNK A  0       -0.013   1.086   0.008  0.00  0.00    +0.269 C 
BRANCH   7   8
ATOM      8  C   UNK A  0       -0.742   1.585  -1.213  0.00  0.00    -0.010 A 
ATOM      9  C   UNK A  0       -1.750   0.825  -1.775  0.00  0.00    +0.007 A 
ATOM     10  C   UNK A  0       -2.422   1.285  -2.892  0.00  0.00    +0.000 A 
ATOM     11  C   UNK A  0       -2.079   2.501  -3.453  0.00  0.00    +0.000 A 
ATOM     12  C   UNK A  0       -1.066   3.259  -2.894  0.00  0.00    +0.000 A 
ATOM     13  C   UNK A  0       -0.398   2.801  -1.774  0.00  0.00    +0.007 A 
ENDBRANCH   7   8
ENDBRANCH   6   7
ENDBRANCH   4   6
ENDBRANCH   1   2
BRANCH   1  14
ATOM     14  C   LEU A  1       -0.569   2.203   5.877  0.00  0.00    +0.234 C 
ATOM     15  N   LEU A  2       -0.152   2.045   7.149  0.00  0.00    -0.301 N 
ATOM     16  H   LEU A  2        0.403   1.286   7.387  0.00  0.00    +0.150 HD
ATOM     17  O   LEU A  1       -1.263   3.152   5.580  0.00  0.00    -0.274 OA
BRANCH  15  18
ATOM     18  CA  LEU A  2       -0.538   3.019   8.173  0.00  0.00    +0.182 C 
BRANCH  18  19
ATOM     19  C   LEU A  2       -1.893   2.659   8.724  0.00  0.00    +0.325 C 
ATOM     20  O   LEU A  2       -2.477   1.688   8.305  0.00  0.00    -0.249 OA
BRANCH  19  21
ATOM     21  OXT LEU A  2       -2.452   3.417   9.681  0.00  0.00    -0.479 OA
ATOM     22  HXT LEU A  2       -1.999   4.170  10.006  0.00  0.00    +0.295 HD
ENDBRANCH  19  21
ENDBRANCH  18  19
BRANCH  18  23
ATOM     23  CB  LEU A  2        0.492   3.006   9.304  0.00  0.00    +0.036 C 
BRANCH  23  24
ATOM     24  CG  LEU A  2        1.841   3.492   8.770  0.00  0.00    -0.015 C 
ATOM     25  CD2 LEU A  2        2.901   3.362   9.866  0.00  0.00    +0.007 C 
ATOM     26  CD1 LEU A  2        1.724   4.958   8.346  0.00  0.00    +0.007 C 
ENDBRANCH  23  24
ENDBRANCH  18  23
ENDBRANCH  15  18
ENDBRANCH   1  14
BRANCH   1  27
ATOM     27  CB  LEU A  1       -0.695  -0.183   5.215  0.00  0.00    +0.035 C 
BRANCH  27  29
ATOM     28  CD1 LEU A  1        1.336  -1.321   4.309  0.00  0.00    +0.007 C 
ATOM     29  CG  LEU A  1       -0.187  -1.221   4.212  0.00  0.00    -0.015 C 
ATOM     30  CD2 LEU A  1       -0.809  -2.583   4.529  0.00  0.00    +0.007 C 
ENDBRANCH  27  29
ENDBRANCH   1  27
TORSDOF 12
