REMARK  Name = ZINC04521479
REMARK                            x       y       z     vdW  Elec       q    Type
REMARK                         _______ _______ _______ _____ _____    ______ ____
ROOT
ATOM      1  C   LIG    1        1.074   3.379  -0.003  0.00  0.00    +0.135 A 
ATOM      2  C   LIG    1        2.290   4.140   0.283  0.00  0.00    +0.015 A 
ATOM      3  C   LIG    1        3.509   3.500   0.536  0.00  0.00    +0.011 A 
ATOM      4  C   LIG    1        4.621   4.246   0.794  0.00  0.00    +0.001 A 
ATOM      5  C   LIG    1        4.561   5.638   0.804  0.00  0.00    +0.001 A 
ATOM      6  C   LIG    1        3.393   6.291   0.557  0.00  0.00    +0.010 A 
ATOM      7  C   LIG    1        2.227   5.554   0.287  0.00  0.00    +0.012 A 
ATOM      8  C   LIG    1        1.002   6.195   0.028  0.00  0.00    +0.128 A 
ATOM      9  C   LIG    1       -0.120   5.473  -0.232  0.00  0.00    +0.077 A 
ATOM     10  C   LIG    1       -0.108   4.079  -0.253  0.00  0.00    +0.146 A 
ENDROOT
BRANCH   8  11
ATOM     11  S   LIG    1        0.921   7.955   0.040  0.00  0.00    +0.110 S 
ATOM     12  O   LIG    1       -0.295   8.310  -0.603  0.00  0.00    -0.142 OA
ATOM     13  O   LIG    1        2.186   8.423  -0.409  0.00  0.00    -0.142 OA
BRANCH  11  14
ATOM     14  O   LIG    1        0.788   8.389   1.493  0.00  0.00    -0.250 OA
ATOM     15  H   LIG    1        1.600   8.165   1.973  0.00  0.00    +0.245 HD
ENDBRANCH  11  14
ENDBRANCH   8  11
BRANCH   1  17
ATOM     16  N   LIG    1        0.012   1.362  -0.270  0.00  0.00    -0.145 NA
ATOM     17  N   LIG    1        1.093   2.019  -0.021  0.00  0.00    -0.145 NA
BRANCH  16  25
ATOM     18  C   LIG    1       -1.002  -4.886  -0.595  0.00  0.00    +0.001 A 
ATOM     19  C   LIG    1       -2.201  -4.225  -0.848  0.00  0.00    +0.001 A 
ATOM     20  C   LIG    1       -2.266  -2.865  -0.840  0.00  0.00    +0.012 A 
ATOM     21  C   LIG    1       -1.108  -2.115  -0.573  0.00  0.00    +0.026 A 
ATOM     22  C   LIG    1        0.113  -2.787  -0.315  0.00  0.00    -0.014 A 
ATOM     23  C   LIG    1        1.277  -2.043  -0.046  0.00  0.00    +0.011 A 
ATOM     24  C   LIG    1        1.234  -0.687  -0.039  0.00  0.00    +0.034 A 
ATOM     25  C   LIG    1        0.031  -0.001  -0.287  0.00  0.00    +0.128 A 
ATOM     26  C   LIG    1       -1.141  -0.707  -0.557  0.00  0.00    +0.152 A 
ATOM     27  C   LIG    1        0.140  -4.191  -0.332  0.00  0.00    +0.008 A 
BRANCH  26  28
ATOM     28  O   LIG    1       -2.299  -0.046  -0.801  0.00  0.00    -0.504 OA
ATOM     29  H   LIG    1       -2.445   0.161  -1.734  0.00  0.00    +0.292 HD
ENDBRANCH  26  28
ENDBRANCH  16  25
ENDBRANCH   1  17
BRANCH  10  30
ATOM     30  O   LIG    1       -1.252   3.399  -0.516  0.00  0.00    -0.505 OA
ATOM     31  H   LIG    1       -1.774   3.188   0.270  0.00  0.00    +0.292 HD
ENDBRANCH  10  30
TORSDOF 6
