REMARK  Name = ZINC04399653
REMARK                            x       y       z     vdW  Elec       q    Type
REMARK                         _______ _______ _______ _____ _____    ______ ____
ROOT
ATOM      1  N   LIG    1       -1.199  -0.722   0.010  0.00  0.00    -0.284 N 
ATOM      2  H   LIG    1       -1.186  -1.689  -0.072  0.00  0.00    +0.155 HD
ATOM      3  C   LIG    1       -2.373  -0.071   0.127  0.00  0.00    +0.240 C 
ATOM      4  O   LIG    1       -2.396   1.142   0.134  0.00  0.00    -0.273 OA
ENDROOT
BRANCH   1  13
ATOM      5  C   LIG    1        0.122   1.156   0.761  0.00  0.00    +0.023 A 
ATOM      6  C   LIG    1        1.309   1.860   0.755  0.00  0.00    +0.006 A 
ATOM      7  C   LIG    1        2.382   1.414   0.002  0.00  0.00    -0.044 A 
ATOM      8  C   LIG    1        2.266   0.258  -0.750  0.00  0.00    -0.042 A 
ATOM      9  C   LIG    1        3.567  -0.011  -1.477  0.00  0.00    +0.036 C 
ATOM     10  C   LIG    1        4.336   1.326  -1.438  0.00  0.00    +0.009 C 
ATOM     11  C   LIG    1        1.078  -0.450  -0.747  0.00  0.00    +0.027 A 
ATOM     12  C   LIG    1        3.768   1.998  -0.170  0.00  0.00    +0.036 C 
ATOM     13  C   LIG    1        0.002  -0.004   0.008  0.00  0.00    +0.034 A 
ENDBRANCH   1  13
BRANCH   3  14
ATOM     14  C   LIG    1       -3.657  -0.849   0.249  0.00  0.00    +0.264 C 
BRANCH  14  15
ATOM     15  N   LIG    1       -4.783   0.081   0.362  0.00  0.00    -0.154 N 
ATOM     16  N   LIG    1       -5.251   0.554   1.466  0.00  0.00    -0.130 NA
ATOM     17  C   LIG    1       -6.257   1.353   1.168  0.00  0.00    +0.205 A 
ATOM     18  N   LIG    1       -6.375   1.340  -0.167  0.00  0.00    -0.108 NA
ATOM     19  N   LIG    1       -5.457   0.558  -0.625  0.00  0.00    -0.045 NA
BRANCH  17  20
ATOM     20  C   LIG    1       -7.096   2.117   2.126  0.00  0.00    +0.026 A 
ATOM     21  C   LIG    1       -6.861   2.045   3.501  0.00  0.00    +0.031 A 
ATOM     22  C   LIG    1       -7.665   2.772   4.356  0.00  0.00    +0.111 A 
ATOM     23  N   LIG    1       -8.642   3.526   3.890  0.00  0.00    -0.263 NA
ATOM     24  C   LIG    1       -8.896   3.621   2.599  0.00  0.00    +0.111 A 
ATOM     25  C   LIG    1       -8.137   2.932   1.675  0.00  0.00    +0.031 A 
ENDBRANCH  17  20
ENDBRANCH  14  15
ENDBRANCH   3  14
TORSDOF 4
