REMARK  Name = ZINC04474604
REMARK                            x       y       z     vdW  Elec       q    Type
REMARK                         _______ _______ _______ _____ _____    ______ ____
ROOT
ATOM      1  N   LIG    1       -1.718  -1.030  -1.368  0.00  0.00    -0.216 N 
ATOM      2  C   LIG    1       -2.584  -0.144  -2.161  0.00  0.00    +0.222 C 
ATOM      3  C   LIG    1       -2.715  -0.869  -3.514  0.00  0.00    +0.219 C 
ATOM      4  N   LIG    1       -1.909  -2.087  -3.342  0.00  0.00    -0.233 N 
ATOM      5  H   LIG    1       -1.778  -2.785  -4.023  0.00  0.00    +0.245 HD
ATOM      6  C   LIG    1       -1.381  -2.094  -2.110  0.00  0.00    +0.400 C 
ATOM      7  N   LIG    1       -0.586  -3.083  -1.657  0.00  0.00    +0.090 NA
ENDROOT
BRANCH   7   8
ATOM      8  N   LIG    1       -0.299  -4.081  -2.422  0.00  0.00    +0.176 N 
ATOM      9  O   LIG    1       -0.783  -4.134  -3.646  0.00  0.00    -0.095 OA
BRANCH   8  10
ATOM     10  O   LIG    1        0.478  -5.048  -1.979  0.00  0.00    -0.370 OA
ATOM     11  H   LIG    1        0.822  -5.011  -1.109  0.00  0.00    +0.332 HD
ENDBRANCH   8  10
ENDBRANCH   7   8
BRANCH   1  12
ATOM     12  C   LIG    1       -1.287  -0.784   0.010  0.00  0.00    +0.225 C 
BRANCH  12  19
ATOM     13  C   LIG    1       -0.017   1.383   0.010  0.00  0.00    +0.011 A 
ATOM     14  C   LIG    1        1.193   2.059   0.002  0.00  0.00    +0.040 A 
ATOM     15  C   LIG    1        2.371   1.333  -0.013  0.00  0.00    +0.129 A 
ATOM     16 CL   LIG    1        3.893   2.168  -0.024  0.00  0.00    -0.062 Cl
ATOM     17  N   LIG    1        2.350   0.014  -0.021  0.00  0.00    -0.243 NA
ATOM     18  C   LIG    1        1.217  -0.662  -0.014  0.00  0.00    +0.119 A 
ATOM     19  C   LIG    1        0.002  -0.004   0.002  0.00  0.00    +0.002 A 
ENDBRANCH  12  19
ENDBRANCH   1  12
TORSDOF 4
