REMARK  Name = ZINC04475234
REMARK                            x       y       z     vdW  Elec       q    Type
REMARK                         _______ _______ _______ _____ _____    ______ ____
ROOT
ATOM      1  C   LIG    1       -0.018   1.503   0.010  0.00  0.00    +0.035 C 
ATOM      2  C   LIG    1        0.002  -0.004   0.002  0.00  0.00    -0.023 C 
ATOM      3  C   LIG    1       -1.139  -0.683   0.009  0.00  0.00    -0.003 C 
ATOM      4  C   LIG    1       -2.520  -0.147   0.010  0.00  0.00    +0.160 C 
ATOM      5  C   LIG    1       -3.473  -1.314   0.298  0.00  0.00    +0.084 C 
ATOM      6  C   LIG    1       -2.520  -2.333   0.940  0.00  0.00    +0.010 C 
ATOM      7  C   LIG    1       -2.998  -3.753   1.080  0.00  0.00    -0.002 C 
ATOM      8  C   LIG    1       -3.843  -4.227  -0.078  0.00  0.00    +0.008 C 
ATOM      9  C   LIG    1       -3.579  -5.684  -0.447  0.00  0.00    +0.032 C 
ATOM     10  C   LIG    1       -3.401  -6.454   0.837  0.00  0.00    -0.060 C 
ATOM     11  C   LIG    1       -4.243  -7.420   1.179  0.00  0.00    +0.046 C 
ATOM     12  C   LIG    1       -4.093  -8.139   2.442  0.00  0.00    +0.156 C 
ATOM     13  C   LIG    1       -3.091  -7.679   3.469  0.00  0.00    +0.080 C 
ATOM     14  C   LIG    1       -2.665  -6.239   3.186  0.00  0.00    +0.019 C 
ATOM     15  O   LIG    1       -4.792  -9.106   2.672  0.00  0.00    -0.293 OA
ATOM     16  C   LIG    1       -2.235  -6.087   1.722  0.00  0.00    -0.007 C 
ATOM     17  C   LIG    1       -1.081  -7.051   1.440  0.00  0.00    +0.016 C 
ATOM     18  C   LIG    1       -1.824  -4.647   1.464  0.00  0.00    +0.002 C 
ATOM     19  C   LIG    1       -0.614  -4.493   0.565  0.00  0.00    +0.005 C 
ATOM     20  C   LIG    1       -0.159  -3.019   0.513  0.00  0.00    +0.012 C 
ATOM     21  O   LIG    1       -2.842   1.008  -0.170  0.00  0.00    -0.292 OA
ATOM     22  C   LIG    1       -1.304  -2.186   0.003  0.00  0.00    -0.001 C 
ATOM     23  C   LIG    1       -1.603  -2.579  -1.444  0.00  0.00    +0.016 C 
ENDROOT
TORSDOF 0
