REMARK  Name = ZINC04632552
REMARK                            x       y       z     vdW  Elec       q    Type
REMARK                         _______ _______ _______ _____ _____    ______ ____
ROOT
ATOM      1  C   LIG    1        2.111  -0.037   1.193  0.00  0.00    -0.036 C 
ATOM      2  N   LIG    1        1.399  -0.508  -0.014  0.00  0.00    +0.384 N 
ATOM      3  H   LIG    1        1.391  -1.535  -0.016  0.00  0.00    -0.081 HD
ATOM      4  C   LIG    1        2.093  -0.030  -1.229  0.00  0.00    -0.078 C 
ATOM      5  C   LIG    1        2.124   1.500  -1.260  0.00  0.00    -0.015 C 
ATOM      6  C   LIG    1        1.419   2.036  -0.007  0.00  0.00    -0.016 C 
ATOM      7  C   LIG    1       -0.023   1.514   0.002  0.00  0.00    -0.015 C 
ATOM      8  C   LIG    1        0.004  -0.017  -0.002  0.00  0.00    -0.078 C 
ATOM      9  C   LIG    1        2.143   1.494   1.232  0.00  0.00    -0.007 C 
ENDROOT
BRANCH   1  12
ATOM     10  C   LIG    1        0.776  -0.365   4.707  0.00  0.00    +0.020 A 
ATOM     11  C   LIG    1        1.446   0.151   3.607  0.00  0.00    +0.005 A 
ATOM     12  C   LIG    1        1.400  -0.556   2.416  0.00  0.00    -0.043 A 
ATOM     13  C   LIG    1        0.689  -1.740   2.362  0.00  0.00    +0.112 A 
ATOM     14  N   LIG    1        0.068  -2.203   3.429  0.00  0.00    -0.263 NA
ATOM     15  C   LIG    1        0.089  -1.557   4.579  0.00  0.00    +0.111 A 
ENDBRANCH   1  12
TORSDOF 1
