REMARK  Name = ZINC04561732
REMARK                            x       y       z     vdW  Elec       q    Type
REMARK                         _______ _______ _______ _____ _____    ______ ____
ROOT
ATOM      1  C   LIG    1        0.088   0.066  -0.303  0.00  0.00    +0.086 C 
ATOM      2  C   LIG    1        1.569  -0.065   0.077  0.00  0.00    +0.031 C 
ATOM      3  C   LIG    1        1.877  -1.519   0.441  0.00  0.00    +0.011 C 
ATOM      4  C   LIG    1        2.424   0.359  -1.116  0.00  0.00    +0.107 C 
ATOM      5  C   LIG    1        1.988   1.708  -1.625  0.00  0.00    -0.006 A 
ATOM      6  C   LIG    1        2.870   2.453  -2.390  0.00  0.00    +0.007 A 
ATOM      7  C   LIG    1        2.498   3.692  -2.873  0.00  0.00    +0.000 A 
ATOM      8  C   LIG    1        1.241   4.197  -2.596  0.00  0.00    +0.002 A 
ATOM      9  C   LIG    1        0.356   3.462  -1.833  0.00  0.00    +0.024 A 
ATOM     10  C   LIG    1        0.729   2.215  -1.345  0.00  0.00    +0.042 A 
ATOM     11  N   LIG    1       -0.182   1.486  -0.569  0.00  0.00    -0.264 N 
ATOM     12  C   LIG    1       -1.292   2.075  -0.081  0.00  0.00    +0.251 C 
ATOM     13  O   LIG    1       -2.221   1.394   0.307  0.00  0.00    -0.270 OA
ENDROOT
BRANCH  12  14
ATOM     14  C   LIG    1       -1.378   3.547  -0.017  0.00  0.00    +0.037 A 
ATOM     15  C   LIG    1       -0.224   4.308   0.188  0.00  0.00    +0.016 A 
ATOM     16  C   LIG    1       -0.308   5.681   0.242  0.00  0.00    +0.046 A 
ATOM     17  C   LIG    1       -1.540   6.310   0.105  0.00  0.00    +0.120 A 
ATOM     18  C   LIG    1       -2.691   5.557  -0.093  0.00  0.00    +0.046 A 
ATOM     19  C   LIG    1       -2.615   4.183  -0.154  0.00  0.00    +0.016 A 
BRANCH  17  20
ATOM     20  O   LIG    1       -1.619   7.664   0.165  0.00  0.00    -0.495 OA
ATOM     21  C   LIG    1       -0.398   8.377   0.370  0.00  0.00    +0.277 C 
ENDBRANCH  17  20
ENDBRANCH  12  14
BRANCH   1  23
ATOM     22  C   LIG    1       -0.512   0.428   2.095  0.00  0.00    +0.006 C 
ATOM     23  C   LIG    1       -0.789  -0.420   0.852  0.00  0.00    +0.020 C 
ENDBRANCH   1  23
BRANCH   4  24
ATOM     24  N   LIG    1        3.828   0.430  -0.704  0.00  0.00    -0.337 N 
ATOM     25  H   LIG    1        4.053   0.583   0.228  0.00  0.00    +0.147 HD
BRANCH  24  26
ATOM     26  C   LIG    1        4.843   0.277  -1.651  0.00  0.00    +0.028 A 
ATOM     27  C   LIG    1        4.523   0.053  -2.984  0.00  0.00    +0.023 A 
ATOM     28  C   LIG    1        5.529  -0.093  -3.919  0.00  0.00    +0.002 A 
ATOM     29  C   LIG    1        6.854  -0.026  -3.528  0.00  0.00    +0.000 A 
ATOM     30  C   LIG    1        7.176   0.192  -2.201  0.00  0.00    +0.002 A 
ATOM     31  C   LIG    1        6.175   0.344  -1.261  0.00  0.00    +0.023 A 
ENDBRANCH  24  26
ENDBRANCH   4  24
TORSDOF 5
