REMARK  Name = ZINC04259675
REMARK                            x       y       z     vdW  Elec       q    Type
REMARK                         _______ _______ _______ _____ _____    ______ ____
ROOT
ATOM      1  C   LIG    1        1.166  -2.184  -0.225  0.00  0.00    +0.182 A 
ATOM      2  N   LIG    1        2.208  -2.935  -0.510  0.00  0.00    -0.108 NA
ATOM      3  N   LIG    1        1.997  -4.151  -0.155  0.00  0.00    -0.023 NA
ATOM      4  N   LIG    1        0.828  -4.267   0.374  0.00  0.00    -0.043 NA
ATOM      5  N   LIG    1        0.242  -2.989   0.355  0.00  0.00    -0.217 N 
ENDROOT
BRANCH   5   6
ATOM      6  C   LIG    1       -1.083  -2.610   0.852  0.00  0.00    +0.168 C 
ATOM      7  C   LIG    1       -2.183  -3.333   0.058  0.00  0.00    +0.189 C 
ATOM      8  O   LIG    1       -2.675  -4.408   0.857  0.00  0.00    -0.373 OA
ATOM      9  C   LIG    1       -1.998  -4.466   2.115  0.00  0.00    +0.137 C 
ATOM     10  C   LIG    1       -3.054  -4.490   3.244  0.00  0.00    -0.014 C 
ATOM     11  C   LIG    1       -2.860  -3.112   3.957  0.00  0.00    +0.147 C 
ATOM     12  O   LIG    1       -2.245  -2.262   2.964  0.00  0.00    -0.373 OA
ATOM     13  C   LIG    1       -1.277  -3.099   2.300  0.00  0.00    +0.172 C 
BRANCH  10  14
ATOM     14  N   LIG    1       -2.791  -5.600   4.171  0.00  0.00    +0.384 N 
ATOM     15  H   LIG    1       -1.913  -5.444   4.642  0.00  0.00    -0.085 HD
ATOM     16  H   LIG    1       -2.747  -6.465   3.655  0.00  0.00    -0.085 HD
BRANCH  14  17
ATOM     17  C   LIG    1       -3.872  -5.676   5.163  0.00  0.00    -0.079 C 
BRANCH  17  18
ATOM     18  C   LIG    1       -3.598  -6.831   6.128  0.00  0.00    -0.028 C 
ATOM     19  C   LIG    1       -3.655  -8.156   5.366  0.00  0.00    +0.002 C 
ATOM     20  C   LIG    1       -3.381  -9.312   6.330  0.00  0.00    +0.000 C 
ATOM     21  C   LIG    1       -4.438  -9.314   7.436  0.00  0.00    +0.000 C 
ATOM     22  C   LIG    1       -4.382  -7.989   8.199  0.00  0.00    +0.000 C 
ATOM     23  C   LIG    1       -4.655  -6.833   7.234  0.00  0.00    +0.002 C 
ENDBRANCH  17  18
ENDBRANCH  14  17
ENDBRANCH  10  14
ENDBRANCH   5   6
BRANCH   1  28
ATOM     24  C   LIG    1       -0.342   1.171  -0.991  0.00  0.00    +0.001 A 
ATOM     25  C   LIG    1        0.778   1.982  -0.965  0.00  0.00    +0.002 A 
ATOM     26  C   LIG    1        2.024   1.443  -0.699  0.00  0.00    -0.063 A 
ATOM     27  C   LIG    1        2.156   0.091  -0.458  0.00  0.00    +0.013 A 
ATOM     28  C   LIG    1        1.031  -0.732  -0.482  0.00  0.00    +0.021 A 
ATOM     29  C   LIG    1       -0.223  -0.182  -0.750  0.00  0.00    +0.011 A 
BRANCH  26  30
ATOM     30  C   LIG    1        3.239   2.334  -0.674  0.00  0.00    -0.043 C 
BRANCH  30  31
ATOM     31  N   LIG    1        3.442   2.847   0.688  0.00  0.00    +0.382 N 
ATOM     32  H   LIG    1        2.596   3.282   1.026  0.00  0.00    -0.081 HD
ATOM     33  C   LIG    1        3.849   1.744   1.595  0.00  0.00    -0.078 C 
ATOM     34  C   LIG    1        4.547   2.485   2.763  0.00  0.00    -0.020 C 
ATOM     35  C   LIG    1        5.294   3.633   2.047  0.00  0.00    -0.020 C 
ATOM     36  C   LIG    1        4.558   3.817   0.707  0.00  0.00    -0.078 C 
ENDBRANCH  30  31
ENDBRANCH  26  30
ENDBRANCH   1  28
TORSDOF 7
