REMARK  Name = ZINC04474613
REMARK                            x       y       z     vdW  Elec       q    Type
REMARK                         _______ _______ _______ _____ _____    ______ ____
ROOT
ATOM      1  C   LIG    1       -1.481  -4.908  -6.615  0.00  0.00    +0.027 C 
ENDROOT
BRANCH   1   3
ATOM      2  C   LIG    1        0.845  -4.483  -6.007  0.00  0.00    -0.027 C 
ATOM      3  C   LIG    1        0.003  -5.043  -6.840  0.00  0.00    -0.031 C 
BRANCH   2   4
ATOM      4  C   LIG    1        0.340  -3.851  -4.736  0.00  0.00    +0.053 C 
BRANCH   4   6
ATOM      5  C   LIG    1        1.695  -3.590  -2.722  0.00  0.00    -0.031 C 
ATOM      6  C   LIG    1        1.105  -4.404  -3.561  0.00  0.00    -0.027 C 
BRANCH   5   7
ATOM      7  C   LIG    1        1.470  -2.103  -2.830  0.00  0.00    +0.027 C 
BRANCH   7   8
ATOM      8  C   LIG    1        1.036  -1.553  -1.470  0.00  0.00    +0.004 C 
BRANCH   8   9
ATOM      9  C   LIG    1        0.807  -0.044  -1.579  0.00  0.00    +0.000 C 
BRANCH   9  11
ATOM     10  C   LIG    1        0.144   2.015  -0.329  0.00  0.00    +0.004 C 
ATOM     11  C   LIG    1        0.372   0.506  -0.220  0.00  0.00    -0.003 C 
ENDBRANCH   9  11
ENDBRANCH   8   9
ENDBRANCH   7   8
ENDBRANCH   5   7
ENDBRANCH   4   6
ENDBRANCH   2   4
ENDBRANCH   1   3
BRANCH   1  12
ATOM     12  C   LIG    1       -2.141  -4.359  -7.882  0.00  0.00    +0.004 C 
BRANCH  12  13
ATOM     13  C   LIG    1       -3.648  -4.222  -7.654  0.00  0.00    +0.000 C 
BRANCH  13  14
ATOM     14  C   LIG    1       -4.308  -3.674  -8.921  0.00  0.00    +0.000 C 
BRANCH  14  15
ATOM     15  C   LIG    1       -5.814  -3.536  -8.692  0.00  0.00    +0.001 C 
BRANCH  15  16
ATOM     16  C   LIG    1       -6.474  -2.988  -9.959  0.00  0.00    +0.011 C 
BRANCH  16  17
ATOM     17  C   LIG    1       -7.981  -2.851  -9.731  0.00  0.00    +0.120 C 
BRANCH  17  18
ATOM     18  C   LIG    1       -8.631  -2.311 -10.979  0.00  0.00    +0.305 C 
ATOM     19  O   LIG    1       -7.952  -2.059 -11.960  0.00  0.00    -0.251 OA
BRANCH  18  20
ATOM     20  O   LIG    1       -9.835  -2.125 -11.007  0.00  0.00    -0.481 OA
ATOM     21  H   LIG    1      -10.357  -2.319 -10.253  0.00  0.00    +0.295 HD
ENDBRANCH  18  20
ENDBRANCH  17  18
ENDBRANCH  16  17
ENDBRANCH  15  16
ENDBRANCH  14  15
ENDBRANCH  13  14
ENDBRANCH  12  13
ENDBRANCH   1  12
TORSDOF 15
