REMARK  Name = ZINC04249250
REMARK                            x       y       z     vdW  Elec       q    Type
REMARK                         _______ _______ _______ _____ _____    ______ ____
ROOT
ATOM      1  C   LIG    1       -1.296   2.095   0.020  0.00  0.00    +0.155 C 
ATOM      2  N   LIG    1       -0.017   1.381   0.010  0.00  0.00    -0.280 N 
ATOM      3  C   LIG    1        0.002  -0.004   0.002  0.00  0.00    +0.170 A 
ATOM      4  C   LIG    1        1.231  -0.658  -0.013  0.00  0.00    +0.153 A 
ATOM      5  N   LIG    1        0.945  -2.011  -0.017  0.00  0.00    -0.306 N 
ATOM      6  C   LIG    1       -0.411  -2.137  -0.003  0.00  0.00    +0.201 A 
ATOM      7  N   LIG    1       -1.081  -3.342  -0.000  0.00  0.00    -0.294 N 
ATOM      8  C   LIG    1       -0.202  -4.431  -0.452  0.00  0.00    +0.110 C 
ATOM      9  C   LIG    1        1.105  -4.403   0.346  0.00  0.00    +0.041 C 
ATOM     10  C   LIG    1        1.886  -3.135  -0.031  0.00  0.00    +0.127 C 
ATOM     11  C   LIG    1        2.412   0.105  -0.021  0.00  0.00    +0.282 A 
ATOM     12  N   LIG    1        2.330   1.451  -0.013  0.00  0.00    -0.262 N 
ATOM     13  C   LIG    1        3.559   2.249  -0.020  0.00  0.00    +0.157 C 
ATOM     14  O   LIG    1        3.500  -0.445  -0.035  0.00  0.00    -0.265 OA
ATOM     15  N   LIG    1       -0.953  -0.937   0.007  0.00  0.00    -0.196 NA
ATOM     16  C   LIG    1        1.139   2.072   0.002  0.00  0.00    +0.333 A 
ATOM     17  O   LIG    1        1.103   3.288   0.009  0.00  0.00    -0.246 OA
ENDROOT
BRANCH   7  18
ATOM     18  C   LIG    1       -2.296  -3.271  -0.823  0.00  0.00    +0.182 C 
BRANCH  18  19
ATOM     19  C   LIG    1       -1.914  -3.077  -2.268  0.00  0.00    +0.122 A 
ATOM     20  C   LIG    1       -1.685  -4.058  -3.159  0.00  0.00    +0.046 A 
ATOM     21  C   LIG    1       -1.358  -3.430  -4.383  0.00  0.00    +0.041 A 
ATOM     22  C   LIG    1       -1.407  -2.103  -4.167  0.00  0.00    +0.195 A 
ATOM     23  O   LIG    1       -1.750  -1.895  -2.885  0.00  0.00    -0.466 OA
ENDBRANCH  18  19
ENDBRANCH   7  18
TORSDOF 2
