REMARK  Name = ZINC04163146
REMARK                            x       y       z     vdW  Elec       q    Type
REMARK                         _______ _______ _______ _____ _____    ______ ____
ROOT
ATOM      1  N   LIG    1        1.489  -2.679   1.333  0.00  0.00    -0.305 N 
ATOM      2  H   LIG    1        1.615  -2.051   2.062  0.00  0.00    +0.149 HD
ATOM      3  C   LIG    1        1.552  -4.005   1.567  0.00  0.00    +0.285 C 
ATOM      4  O   LIG    1        1.393  -4.790   0.656  0.00  0.00    -0.267 OA
ENDROOT
BRANCH   3   5
ATOM      5  C   LIG    1        1.817  -4.506   2.947  0.00  0.00    +0.249 C 
ATOM      6  O   LIG    1        1.976  -3.719   3.860  0.00  0.00    -0.282 OA
BRANCH   5   7
ATOM      7  C   LIG    1        1.885  -5.944   3.201  0.00  0.00    +0.052 A 
ATOM      8  C   LIG    1        1.733  -6.960   2.276  0.00  0.00    +0.095 A 
ATOM      9  N   LIG    1        1.863  -8.151   2.887  0.00  0.00    -0.360 N 
ATOM     10  C   LIG    1        2.105  -7.984   4.237  0.00  0.00    +0.047 A 
ATOM     11  C   LIG    1        2.308  -8.879   5.282  0.00  0.00    +0.026 A 
ATOM     12  C   LIG    1        2.546  -8.407   6.555  0.00  0.00    +0.002 A 
ATOM     13  C   LIG    1        2.574  -7.045   6.811  0.00  0.00    +0.001 A 
ATOM     14  C   LIG    1        2.370  -6.142   5.788  0.00  0.00    +0.011 A 
ATOM     15  H   LIG    1        1.796  -9.009   2.441  0.00  0.00    +0.165 HD
ATOM     16  C   LIG    1        2.136  -6.605   4.497  0.00  0.00    +0.011 A 
ENDBRANCH   5   7
ENDBRANCH   3   5
BRANCH   1  17
ATOM     17  C   LIG    1        1.229  -2.186  -0.022  0.00  0.00    +0.141 C 
BRANCH  17  23
ATOM     18  C   LIG    1       -0.017   1.378   0.010  0.00  0.00    +0.000 A 
ATOM     19  C   LIG    1        1.171   2.086   0.002  0.00  0.00    +0.001 A 
ATOM     20  C   LIG    1        2.377   1.412  -0.013  0.00  0.00    +0.020 A 
ATOM     21  C   LIG    1        2.397   0.029  -0.021  0.00  0.00    +0.046 A 
ATOM     22 CL   LIG    1        3.912  -0.818  -0.041  0.00  0.00    -0.083 Cl
ATOM     23  C   LIG    1        1.208  -0.679  -0.013  0.00  0.00    -0.012 A 
ATOM     24  C   LIG    1        0.002  -0.004   0.002  0.00  0.00    +0.006 A 
ENDBRANCH  17  23
ENDBRANCH   1  17
TORSDOF 4
