REMARK  Name = ZINC04098322
REMARK                            x       y       z     vdW  Elec       q    Type
REMARK                         _______ _______ _______ _____ _____    ______ ____
ROOT
ATOM      1  C   LIG    1       -4.871   0.257   0.037  0.00  0.00    +0.211 C 
ATOM      2  C   LIG    1       -5.363   0.420   1.483  0.00  0.00    +0.129 C 
ATOM      3  C   LIG    1       -6.662   1.204   1.430  0.00  0.00    +0.174 C 
ATOM      4  C   LIG    1       -7.588   0.868   0.343  0.00  0.00    +0.101 A 
ATOM      5  C   LIG    1       -8.908   1.345   0.352  0.00  0.00    +0.134 A 
ATOM      6  C   LIG    1       -9.756   1.023  -0.692  0.00  0.00    +0.091 A 
ATOM      7  C   LIG    1       -9.302   0.231  -1.739  0.00  0.00    +0.124 A 
ATOM      8  C   LIG    1       -7.999  -0.249  -1.751  0.00  0.00    +0.092 A 
ATOM      9  C   LIG    1       -7.134   0.059  -0.716  0.00  0.00    +0.139 A 
ATOM     10  O   LIG    1       -6.922   2.064   2.246  0.00  0.00    -0.292 OA
ATOM     11  O   LIG    1       -5.868  -0.421  -0.727  0.00  0.00    -0.483 OA
ENDROOT
BRANCH   1  14
ATOM     12  C   LIG    1       -1.201  -0.638   0.010  0.00  0.00    +0.162 A 
ATOM     13  C   LIG    1       -2.374   0.099   0.019  0.00  0.00    +0.056 A 
ATOM     14  C   LIG    1       -3.596  -0.546   0.027  0.00  0.00    -0.003 A 
ATOM     15  C   LIG    1       -3.652  -1.928   0.026  0.00  0.00    +0.011 A 
ATOM     16  C   LIG    1       -2.485  -2.669   0.017  0.00  0.00    +0.049 A 
ATOM     17  C   LIG    1       -1.257  -2.028   0.003  0.00  0.00    +0.158 A 
BRANCH  12  19
ATOM     18  C   LIG    1       -0.017   1.425   0.010  0.00  0.00    +0.277 C 
ATOM     19  O   LIG    1        0.002  -0.004   0.002  0.00  0.00    -0.491 OA
ENDBRANCH  12  19
BRANCH  17  20
ATOM     20  O   LIG    1       -0.108  -2.756  -0.012  0.00  0.00    -0.503 OA
ATOM     21  H   LIG    1        0.232  -2.972   0.867  0.00  0.00    +0.292 HD
ENDBRANCH  17  20
ENDBRANCH   1  14
BRANCH   5  22
ATOM     22  O   LIG    1       -9.348   2.116   1.378  0.00  0.00    -0.506 OA
ATOM     23  H   LIG    1       -9.217   3.064   1.242  0.00  0.00    +0.292 HD
ENDBRANCH   5  22
BRANCH   7  24
ATOM     24  O   LIG    1      -10.140  -0.077  -2.760  0.00  0.00    -0.507 OA
ATOM     25  H   LIG    1      -10.121   0.557  -3.490  0.00  0.00    +0.292 HD
ENDBRANCH   7  24
TORSDOF 5
