REMARK  Name = ZINC04222622
REMARK                            x       y       z     vdW  Elec       q    Type
REMARK                         _______ _______ _______ _____ _____    ______ ____
ROOT
ATOM      1  C   LIG    1       -0.013   1.086   0.008  0.00  0.00    +0.044 C 
ATOM      2  C   LIG    1       -0.718   1.572   1.248  0.00  0.00    -0.044 A 
ATOM      3  C   LIG    1       -2.080   1.786   1.219  0.00  0.00    +0.049 A 
ATOM      4  C   LIG    1       -2.730   2.229   2.362  0.00  0.00    +0.124 A 
ATOM      5  C   LIG    1       -2.003   2.463   3.517  0.00  0.00    -0.005 A 
ATOM      6  C   LIG    1       -2.707   2.950   4.757  0.00  0.00    +0.048 C 
ATOM      7  C   LIG    1       -0.632   2.254   3.540  0.00  0.00    -0.037 A 
ATOM      8  C   LIG    1        0.098   2.537   4.828  0.00  0.00    +0.040 C 
ATOM      9  C   LIG    1        1.466   1.858   4.830  0.00  0.00    +0.005 C 
ATOM     10  C   LIG    1        2.194   2.234   3.534  0.00  0.00    +0.009 C 
ATOM     11  C   LIG    1        1.493   1.541   2.368  0.00  0.00    +0.036 C 
ATOM     12  C   LIG    1        0.011   1.805   2.407  0.00  0.00    -0.041 A 
ENDROOT
BRANCH   4  13
ATOM     13  O   LIG    1       -4.073   2.436   2.346  0.00  0.00    -0.495 OA
ATOM     14  C   LIG    1       -4.756   2.173   1.119  0.00  0.00    +0.277 C 
ENDBRANCH   4  13
BRANCH   9  15
ATOM     15  C   LIG    1        2.277   2.337   6.035  0.00  0.00    +0.075 C 
ATOM     16  C   LIG    1        3.647   1.654   6.032  0.00  0.00    +0.017 C 
BRANCH  15  17
ATOM     17  C   LIG    1        1.545   1.988   7.305  0.00  0.00    +0.217 C 
ATOM     18  N   LIG    1        2.074   2.316   8.500  0.00  0.00    -0.310 N 
ATOM     19  H   LIG    1        2.927   2.776   8.543  0.00  0.00    +0.149 HD
ATOM     20  O   LIG    1        0.478   1.413   7.251  0.00  0.00    -0.276 OA
BRANCH  18  21
ATOM     21  C   LIG    1        1.362   1.976   9.734  0.00  0.00    +0.026 C 
ATOM     22  C   LIG    1       -0.007   2.659   9.737  0.00  0.00    +0.031 C 
ATOM     23  C   LIG    1        2.173   2.456  10.940  0.00  0.00    +0.031 C 
ATOM     24  C   LIG    1        1.176   0.460   9.815  0.00  0.00    +0.031 C 
ENDBRANCH  18  21
ENDBRANCH  15  17
ENDBRANCH   9  15
TORSDOF 4
