REMARK  Name = ZINC04099897
REMARK                            x       y       z     vdW  Elec       q    Type
REMARK                         _______ _______ _______ _____ _____    ______ ____
ROOT
ATOM      1  C   LIG    1        0.002  -0.004   0.002  0.00  0.00    +0.186 C 
ATOM      2  O   LIG    1        1.065  -0.599  -0.011  0.00  0.00    -0.287 OA
ENDROOT
BRANCH   1   3
ATOM      3  C   LIG    1       -0.018   1.472   0.010  0.00  0.00    +0.022 A 
ATOM      4  C   LIG    1       -1.237   2.156   0.020  0.00  0.00    +0.013 A 
ATOM      5  C   LIG    1       -1.253   3.532   0.032  0.00  0.00    +0.023 A 
ATOM      6  C   LIG    1       -0.056   4.243   0.024  0.00  0.00    +0.025 A 
ATOM      7  C   LIG    1        1.160   3.565   0.010  0.00  0.00    +0.023 A 
ATOM      8  C   LIG    1        1.182   2.189   0.003  0.00  0.00    +0.013 A 
BRANCH   6   9
ATOM      9  N   LIG    1       -0.074   5.633   0.031  0.00  0.00    -0.358 N 
ATOM     10  H   LIG    1       -0.921   6.107   0.041  0.00  0.00    +0.142 HD
ATOM     11  H   LIG    1        0.759   6.130   0.025  0.00  0.00    +0.142 HD
ENDBRANCH   6   9
ENDBRANCH   1   3
BRANCH   1  13
ATOM     12  C   LIG    1       -1.235  -2.104   0.003  0.00  0.00    +0.012 C 
ATOM     13  C   LIG    1       -1.253  -0.752   0.010  0.00  0.00    +0.052 C 
BRANCH  12  19
ATOM     14  C   LIG    1       -3.720  -2.174   0.032  0.00  0.00    +0.011 A 
ATOM     15  C   LIG    1       -4.900  -2.884   0.033  0.00  0.00    +0.046 A 
ATOM     16  C   LIG    1       -4.878  -4.274   0.025  0.00  0.00    +0.117 A 
ATOM     17  C   LIG    1       -3.666  -4.955   0.010  0.00  0.00    +0.046 A 
ATOM     18  C   LIG    1       -2.481  -4.256   0.003  0.00  0.00    +0.011 A 
ATOM     19  C   LIG    1       -2.497  -2.855   0.011  0.00  0.00    -0.025 A 
BRANCH  16  20
ATOM     20  O   LIG    1       -6.045  -4.968   0.032  0.00  0.00    -0.507 OA
ATOM     21  H   LIG    1       -6.374  -5.174   0.917  0.00  0.00    +0.292 HD
ENDBRANCH  16  20
ENDBRANCH  12  19
ENDBRANCH   1  13
TORSDOF 5
