REMARK  Name = ZINC04204116
REMARK                            x       y       z     vdW  Elec       q    Type
REMARK                         _______ _______ _______ _____ _____    ______ ____
ROOT
ATOM      1  C   LIG    1        1.446   2.961  -0.542  0.00  0.00    +0.263 C 
ATOM      2  N   LIG    1        0.719   3.804  -1.242  0.00  0.00    -0.290 N 
ATOM      3  H   LIG    1       -0.243   3.558  -1.503  0.00  0.00    +0.301 HD
ATOM      4  H   LIG    1        1.110   4.703  -1.524  0.00  0.00    +0.301 HD
ENDROOT
BRANCH   1   7
ATOM      5  C   LIG    1       -1.103   0.231  -0.551  0.00  0.00    +0.031 C 
ATOM      6  C   LIG    1       -0.734   1.722  -0.360  0.00  0.00    +0.046 C 
ATOM      7  C   LIG    1        0.802   1.653  -0.161  0.00  0.00    +0.228 C 
ATOM      8  O   LIG    1        1.212   0.603  -1.062  0.00  0.00    -0.365 OA
ATOM      9  C   LIG    1        0.220  -0.434  -0.977  0.00  0.00    +0.161 C 
ENDBRANCH   1   7
BRANCH   1  10
ATOM     10  N   LIG    1        2.735   3.227  -0.161  0.00  0.00    -0.252 N 
ATOM     11  H   LIG    1        3.149   4.069  -0.407  0.00  0.00    +0.288 HD
ATOM     12  H   LIG    1        3.232   2.574   0.355  0.00  0.00    +0.288 HD
ENDBRANCH   1  10
TORSDOF 2
