REMARK  Name = ZINC04103788
REMARK                            x       y       z     vdW  Elec       q    Type
REMARK                         _______ _______ _______ _____ _____    ______ ____
ROOT
ATOM      1  C   LIG    1       -4.905   7.910   0.334  0.00  0.00    +0.173 C 
ATOM      2  C   LIG    1       -4.904   9.442   0.353  0.00  0.00    +0.172 C 
ATOM      3  C   LIG    1       -4.402   9.958  -0.999  0.00  0.00    +0.176 C 
ATOM      4  C   LIG    1       -3.012   9.379  -1.273  0.00  0.00    +0.179 C 
ATOM      5  O   LIG    1       -3.078   7.952  -1.246  0.00  0.00    -0.332 OA
ATOM      6  C   LIG    1       -3.495   7.411   0.008  0.00  0.00    +0.331 C 
ENDROOT
BRANCH   1   9
ATOM      7  C   LIG    1       -8.110   6.796  -1.438  0.00  0.00    +0.109 C 
ATOM      8  C   LIG    1       -7.147   7.285  -0.387  0.00  0.00    +0.210 C 
ATOM      9  N   LIG    1       -5.842   7.434  -0.687  0.00  0.00    -0.304 N 
ATOM     10  H   LIG    1       -5.522   7.227  -1.579  0.00  0.00    +0.149 HD
ATOM     11  O   LIG    1       -7.547   7.545   0.728  0.00  0.00    -0.276 OA
ENDBRANCH   1   9
BRANCH   2  12
ATOM     12  O   LIG    1       -4.041   9.908   1.393  0.00  0.00    -0.387 OA
ATOM     13  H   LIG    1       -3.988  10.871   1.458  0.00  0.00    +0.210 HD
ENDBRANCH   2  12
BRANCH   3  14
ATOM     14  O   LIG    1       -5.302   9.549  -2.031  0.00  0.00    -0.387 OA
ATOM     15  H   LIG    1       -5.042   9.839  -2.917  0.00  0.00    +0.210 HD
ENDBRANCH   3  14
BRANCH   4  16
ATOM     16  C   LIG    1       -2.529   9.842  -2.649  0.00  0.00    +0.190 C 
BRANCH  16  17
ATOM     17  O   LIG    1       -1.186   9.398  -2.857  0.00  0.00    -0.392 OA
ATOM     18  H   LIG    1       -0.815   9.656  -3.712  0.00  0.00    +0.210 HD
ENDBRANCH  16  17
ENDBRANCH   4  16
BRANCH   6  19
ATOM     19  O   LIG    1       -3.501   5.984  -0.067  0.00  0.00    -0.462 OA
BRANCH  19  20
ATOM     20  C   LIG    1       -2.294   5.365  -0.142  0.00  0.00    +0.125 A 
ATOM     21  C   LIG    1       -1.124   6.132  -0.143  0.00  0.00    +0.046 A 
ATOM     22  C   LIG    1        0.099   5.542  -0.218  0.00  0.00    +0.012 A 
ATOM     23  C   LIG    1        0.193   4.141  -0.295  0.00  0.00    -0.018 A 
ATOM     24  C   LIG    1        1.441   3.499  -0.374  0.00  0.00    +0.008 A 
ATOM     25  C   LIG    1        1.496   2.141  -0.448  0.00  0.00    +0.001 A 
ATOM     26  C   LIG    1        0.332   1.374  -0.447  0.00  0.00    +0.001 A 
ATOM     27  C   LIG    1       -0.894   1.962  -0.377  0.00  0.00    +0.008 A 
ATOM     28  C   LIG    1       -0.991   3.362  -0.294  0.00  0.00    -0.014 A 
ATOM     29  C   LIG    1       -2.238   4.002  -0.216  0.00  0.00    +0.054 A 
ENDBRANCH  19  20
ENDBRANCH   6  19
TORSDOF 7
