REMARK  Name = ZINC04536236
REMARK                            x       y       z     vdW  Elec       q    Type
REMARK                         _______ _______ _______ _____ _____    ______ ____
ROOT
ATOM      1  C   LIG    1        9.685   0.554  -0.664  0.00  0.00    +0.046 C 
ATOM      2  C   LIG    1       10.067  -0.447  -1.783  0.00  0.00    +0.124 C 
ATOM      3  C   LIG    1       11.584  -0.655  -1.553  0.00  0.00    +0.063 C 
ATOM      4  C   LIG    1       12.100   0.742  -1.150  0.00  0.00    +0.121 C 
ATOM      5  C   LIG    1       10.892   1.511  -0.582  0.00  0.00    +0.031 C 
ENDROOT
BRANCH   1   7
ATOM      6  C   LIG    1        7.394   1.284  -0.244  0.00  0.00    +0.003 C 
ATOM      7  C   LIG    1        8.437   1.310  -1.037  0.00  0.00    -0.022 C 
BRANCH   6   8
ATOM      8  C   LIG    1        6.145   2.040  -0.617  0.00  0.00    +0.174 C 
BRANCH   8   9
ATOM      9  O   LIG    1        6.301   2.606  -1.920  0.00  0.00    -0.384 OA
ATOM     10  H   LIG    1        6.457   1.952  -2.616  0.00  0.00    +0.210 HD
ENDBRANCH   8   9
BRANCH   8  11
ATOM     11  C   LIG    1        4.950   1.085  -0.615  0.00  0.00    +0.264 C 
BRANCH  11  12
ATOM     12  O   LIG    1        3.749   1.823  -0.854  0.00  0.00    -0.489 OA
BRANCH  12  15
ATOM     13  C   LIG    1        0.205   1.052  -1.141  0.00  0.00    +0.005 A 
ATOM     14  C   LIG    1        1.385   1.770  -1.111  0.00  0.00    +0.046 A 
ATOM     15  C   LIG    1        2.588   1.118  -0.884  0.00  0.00    +0.122 A 
ATOM     16  C   LIG    1        2.603  -0.256  -0.688  0.00  0.00    +0.065 A 
ATOM     17  C   LIG    1        1.420  -0.970  -0.720  0.00  0.00    +0.044 A 
ATOM     18 CL   LIG    1        1.438  -2.689  -0.476  0.00  0.00    -0.083 Cl
ATOM     19  C   LIG    1        0.222  -0.316  -0.947  0.00  0.00    +0.020 A 
ENDBRANCH  12  15
ENDBRANCH  11  12
ENDBRANCH   8  11
ENDBRANCH   6   8
ENDBRANCH   1   7
BRANCH   2  20
ATOM     20  O   LIG    1        9.355  -1.676  -1.627  0.00  0.00    -0.391 OA
ATOM     21  H   LIG    1        9.558  -2.337  -2.303  0.00  0.00    +0.210 HD
ENDBRANCH   2  20
BRANCH   4  22
ATOM     22  O   LIG    1       13.115   0.620  -0.152  0.00  0.00    -0.391 OA
ATOM     23  H   LIG    1       13.895   0.127  -0.442  0.00  0.00    +0.210 HD
ENDBRANCH   4  22
BRANCH   5  24
ATOM     24  C   LIG    1       11.153   1.901   0.875  0.00  0.00    +0.033 C 
BRANCH  24  25
ATOM     25  C   LIG    1       12.254   2.929   0.930  0.00  0.00    -0.031 C 
ATOM     26  C   LIG    1       12.068   4.052   1.579  0.00  0.00    -0.031 C 
BRANCH  26  27
ATOM     27  C   LIG    1       10.826   4.246   2.410  0.00  0.00    +0.027 C 
BRANCH  27  28
ATOM     28  C   LIG    1       11.222   4.651   3.831  0.00  0.00    +0.015 C 
BRANCH  28  29
ATOM     29  C   LIG    1        9.961   4.848   4.675  0.00  0.00    +0.121 C 
BRANCH  29  30
ATOM     30  C   LIG    1       10.351   5.247   6.075  0.00  0.00    +0.305 C 
ATOM     31  O   LIG    1       11.528   5.363   6.370  0.00  0.00    -0.251 OA
BRANCH  30  32
ATOM     32  O   LIG    1        9.489   5.454   6.912  0.00  0.00    -0.481 OA
ATOM     33  H   LIG    1        8.584   5.365   6.685  0.00  0.00    +0.295 HD
ENDBRANCH  30  32
ENDBRANCH  29  30
ENDBRANCH  28  29
ENDBRANCH  27  28
ENDBRANCH  26  27
ENDBRANCH  24  25
ENDBRANCH   5  24
TORSDOF 15
