REMARK  Name = ZINC04783187
REMARK                            x       y       z     vdW  Elec       q    Type
REMARK                         _______ _______ _______ _____ _____    ______ ____
ROOT
ATOM      1  C   LIG    1       -1.199  -0.637   0.010  0.00  0.00    +0.124 A 
ATOM      2  C   LIG    1       -2.373   0.113   0.020  0.00  0.00    +0.046 A 
ATOM      3  C   LIG    1       -3.587  -0.512   0.023  0.00  0.00    +0.019 A 
ATOM      4  C   LIG    1       -3.648  -1.907   0.019  0.00  0.00    +0.065 A 
ATOM      5  C   LIG    1       -2.471  -2.674   0.017  0.00  0.00    +0.143 A 
ATOM      6  O   LIG    1       -2.517  -4.021   0.031  0.00  0.00    -0.454 OA
ATOM      7  C   LIG    1       -3.642  -4.699  -0.270  0.00  0.00    +0.139 A 
ATOM      8  C   LIG    1       -3.577  -6.057  -0.568  0.00  0.00    +0.047 A 
ATOM      9  C   LIG    1       -4.727  -6.754  -0.871  0.00  0.00    +0.004 A 
ATOM     10  C   LIG    1       -5.960  -6.119  -0.882  0.00  0.00    +0.001 A 
ATOM     11  C   LIG    1       -6.048  -4.774  -0.592  0.00  0.00    +0.015 A 
ATOM     12  C   LIG    1       -4.891  -4.059  -0.289  0.00  0.00    +0.065 A 
ATOM     13  C   LIG    1       -4.946  -2.612   0.012  0.00  0.00    +0.200 A 
ATOM     14  O   LIG    1       -5.995  -2.038   0.239  0.00  0.00    -0.286 OA
ATOM     15  C   LIG    1       -1.244  -2.021   0.003  0.00  0.00    +0.092 A 
ENDROOT
BRANCH   1  17
ATOM     16  C   LIG    1       -0.017   1.425   0.010  0.00  0.00    +0.277 C 
ATOM     17  O   LIG    1        0.002  -0.004   0.002  0.00  0.00    -0.495 OA
ENDBRANCH   1  17
TORSDOF 1
