REMARK  Name = ZINC04163149
REMARK                            x       y       z     vdW  Elec       q    Type
REMARK                         _______ _______ _______ _____ _____    ______ ____
ROOT
ATOM      1  C   LIG    1       -1.155  -0.898   0.009  0.00  0.00    +0.249 C 
ATOM      2  O   LIG    1       -2.279  -0.437   0.022  0.00  0.00    -0.282 OA
ENDROOT
BRANCH   1   8
ATOM      3  C   LIG    1       -0.710   3.764   0.029  0.00  0.00    +0.001 A 
ATOM      4  C   LIG    1        0.618   4.164   0.018  0.00  0.00    +0.002 A 
ATOM      5  C   LIG    1        1.632   3.230   0.004  0.00  0.00    +0.026 A 
ATOM      6  C   LIG    1        1.327   1.873  -0.001  0.00  0.00    +0.047 A 
ATOM      7  C   LIG    1       -0.018   1.472   0.010  0.00  0.00    +0.011 A 
ATOM      8  C   LIG    1        0.002  -0.004   0.002  0.00  0.00    +0.052 A 
ATOM      9  C   LIG    1        1.335  -0.370  -0.013  0.00  0.00    +0.095 A 
ATOM     10  N   LIG    1        2.105   0.733  -0.014  0.00  0.00    -0.360 N 
ATOM     11  H   LIG    1        3.075   0.727  -0.023  0.00  0.00    +0.165 HD
ATOM     12  C   LIG    1       -1.032   2.424   0.030  0.00  0.00    +0.011 A 
ENDBRANCH   1   8
BRANCH   1  13
ATOM     13  C   LIG    1       -0.955  -2.377  -0.001  0.00  0.00    +0.285 C 
ATOM     14  N   LIG    1       -2.021  -3.201   0.005  0.00  0.00    -0.305 N 
ATOM     15  H   LIG    1       -2.918  -2.833   0.016  0.00  0.00    +0.149 HD
ATOM     16  O   LIG    1        0.169  -2.837  -0.015  0.00  0.00    -0.267 OA
BRANCH  14  17
ATOM     17  C   LIG    1       -1.824  -4.653  -0.005  0.00  0.00    +0.140 C 
BRANCH  17  18
ATOM     18  C   LIG    1       -3.165  -5.341   0.005  0.00  0.00    -0.030 A 
ATOM     19  C   LIG    1       -3.765  -5.668   1.207  0.00  0.00    +0.008 A 
ATOM     20  C   LIG    1       -4.996  -6.295   1.217  0.00  0.00    +0.038 A 
ATOM     21  C   LIG    1       -5.624  -6.605   0.022  0.00  0.00    +0.123 A 
ATOM     22  F   LIG    1       -6.826  -7.223   0.031  0.00  0.00    -0.205 F 
ATOM     23  C   LIG    1       -5.020  -6.282  -1.181  0.00  0.00    +0.038 A 
ATOM     24  C   LIG    1       -3.791  -5.650  -1.188  0.00  0.00    +0.008 A 
ENDBRANCH  17  18
ENDBRANCH  14  17
ENDBRANCH   1  13
TORSDOF 4
