REMARK  Name = ZINC04257980
REMARK                            x       y       z     vdW  Elec       q    Type
REMARK                         _______ _______ _______ _____ _____    ______ ____
ROOT
ATOM      1  N   LIG    1       -4.633  -3.032  -2.858  0.00  0.00    +0.380 N 
ATOM      2  H   LIG    1       -5.321  -2.398  -2.478  0.00  0.00    -0.082 HD
ATOM      3  C   LIG    1       -4.588  -4.249  -2.039  0.00  0.00    -0.076 C 
ATOM      4  C   LIG    1       -5.980  -4.883  -1.983  0.00  0.00    +0.021 C 
ATOM      5  C   LIG    1       -6.430  -5.237  -3.404  0.00  0.00    +0.088 C 
ATOM      6  C   LIG    1       -6.402  -3.973  -4.268  0.00  0.00    +0.021 C 
ATOM      7  C   LIG    1       -4.995  -3.373  -4.239  0.00  0.00    -0.076 C 
ENDROOT
BRANCH   5   8
ATOM      8  C   LIG    1       -7.832  -5.790  -3.364  0.00  0.00    -0.016 A 
ATOM      9  C   LIG    1       -8.714  -5.367  -2.388  0.00  0.00    +0.008 A 
ATOM     10  C   LIG    1      -10.000  -5.873  -2.352  0.00  0.00    +0.020 A 
ATOM     11  C   LIG    1      -10.403  -6.804  -3.293  0.00  0.00    +0.041 A 
ATOM     12 CL   LIG    1      -12.017  -7.441  -3.247  0.00  0.00    -0.084 Cl
ATOM     13  C   LIG    1       -9.519  -7.227  -4.269  0.00  0.00    +0.020 A 
ATOM     14  C   LIG    1       -8.236  -6.716  -4.308  0.00  0.00    +0.008 A 
ENDBRANCH   5   8
BRANCH   5  15
ATOM     15  O   LIG    1       -5.545  -6.213  -3.956  0.00  0.00    -0.384 OA
ATOM     16  H   LIG    1       -5.771  -6.485  -4.856  0.00  0.00    +0.211 HD
ENDBRANCH   5  15
BRANCH   1  17
ATOM     17  C   LIG    1       -3.314  -2.385  -2.844  0.00  0.00    -0.079 C 
BRANCH  17  18
ATOM     18  C   LIG    1       -2.990  -1.917  -1.424  0.00  0.00    -0.016 C 
BRANCH  18  19
ATOM     19  C   LIG    1       -1.617  -1.243  -1.410  0.00  0.00    +0.034 C 
BRANCH  19  20
ATOM     20  C   LIG    1       -1.293  -0.775   0.010  0.00  0.00    +0.144 C 
BRANCH  20  27
ATOM     21  C   LIG    1       -0.017   1.378   0.010  0.00  0.00    +0.009 A 
ATOM     22  C   LIG    1        1.170   2.086   0.002  0.00  0.00    +0.039 A 
ATOM     23  C   LIG    1        2.379   1.410  -0.013  0.00  0.00    +0.123 A 
ATOM     24  F   LIG    1        3.540   2.101  -0.021  0.00  0.00    -0.205 F 
ATOM     25  C   LIG    1        2.396   0.026  -0.021  0.00  0.00    +0.039 A 
ATOM     26  C   LIG    1        1.208  -0.680  -0.013  0.00  0.00    +0.009 A 
ATOM     27  C   LIG    1        0.002  -0.004   0.002  0.00  0.00    -0.019 A 
ENDBRANCH  20  27
BRANCH  20  28
ATOM     28  O   LIG    1       -1.166  -1.910   0.869  0.00  0.00    -0.387 OA
ATOM     29  H   LIG    1       -0.469  -2.526   0.606  0.00  0.00    +0.210 HD
ENDBRANCH  20  28
ENDBRANCH  19  20
ENDBRANCH  18  19
ENDBRANCH  17  18
ENDBRANCH   1  17
TORSDOF 8
