REMARK  Name = ZINC04212651
REMARK                            x       y       z     vdW  Elec       q    Type
REMARK                         _______ _______ _______ _____ _____    ______ ____
ROOT
ATOM      1  C   LIG    1        1.610   0.081   0.392  0.00  0.00    +0.045 C 
ATOM      2  C   LIG    1        1.852   1.567   0.317  0.00  0.00    -0.029 A 
ATOM      3  C   LIG    1        3.140   2.053   0.210  0.00  0.00    +0.011 A 
ATOM      4  C   LIG    1        3.364   3.415   0.142  0.00  0.00    -0.008 A 
ATOM      5  C   LIG    1        2.298   4.297   0.181  0.00  0.00    +0.047 A 
ATOM      6 CL   LIG    1        2.583   6.007   0.096  0.00  0.00    -0.083 Cl
ATOM      7  C   LIG    1        1.006   3.817   0.283  0.00  0.00    +0.044 A 
ATOM      8  C   LIG    1        0.779   2.448   0.357  0.00  0.00    +0.038 A 
ENDROOT
BRANCH   8   9
ATOM      9  N   LIG    1       -0.526   1.959   0.466  0.00  0.00    -0.281 N 
ATOM     10  H   LIG    1       -0.766   1.120   0.043  0.00  0.00    +0.155 HD
ATOM     11  C   LIG    1       -1.452   2.656   1.154  0.00  0.00    +0.252 C 
ATOM     12  O   LIG    1       -1.173   3.746   1.615  0.00  0.00    -0.270 OA
BRANCH  11  13
ATOM     13  C   LIG    1       -2.803   2.097   1.347  0.00  0.00    +0.080 A 
ATOM     14  C   LIG    1       -3.128   0.845   0.818  0.00  0.00    +0.031 A 
ATOM     15  C   LIG    1       -4.392   0.328   1.002  0.00  0.00    +0.015 A 
ATOM     16  I   LIG    1       -4.876  -1.550   0.209  0.00  0.00    -0.044 I 
ATOM     17  C   LIG    1       -5.344   1.044   1.710  0.00  0.00    +0.032 A 
ATOM     18  C   LIG    1       -5.037   2.283   2.237  0.00  0.00    +0.056 A 
ATOM     19  I   LIG    1       -6.486   3.354   3.305  0.00  0.00    -0.040 I 
ATOM     20  C   LIG    1       -3.767   2.816   2.066  0.00  0.00    +0.142 A 
BRANCH  20  21
ATOM     21  O   LIG    1       -3.462   4.030   2.588  0.00  0.00    -0.505 OA
ATOM     22  H   LIG    1       -3.641   4.771   1.993  0.00  0.00    +0.292 HD
ENDBRANCH  20  21
ENDBRANCH  11  13
ENDBRANCH   8   9
BRANCH   4  23
ATOM     23  C   LIG    1        4.771   3.942   0.024  0.00  0.00    +0.153 C 
BRANCH  23  24
ATOM     24  C   LIG    1        5.534   3.622   1.284  0.00  0.00    -0.026 A 
ATOM     25  C   LIG    1        5.837   2.310   1.594  0.00  0.00    +0.006 A 
ATOM     26  C   LIG    1        6.542   2.017   2.747  0.00  0.00    +0.020 A 
ATOM     27  C   LIG    1        6.933   3.036   3.596  0.00  0.00    +0.041 A 
ATOM     28 CL   LIG    1        7.812   2.669   5.047  0.00  0.00    -0.084 Cl
ATOM     29  C   LIG    1        6.624   4.349   3.288  0.00  0.00    +0.020 A 
ATOM     30  C   LIG    1        5.925   4.641   2.132  0.00  0.00    +0.006 A 
ENDBRANCH  23  24
BRANCH  23  31
ATOM     31  C   LIG    1        5.437   3.309  -1.126  0.00  0.00    +0.075 C 
ATOM     32  N   LIG    1        5.951   2.821  -2.014  0.00  0.00    -0.196 NA
ENDBRANCH  23  31
ENDBRANCH   4  23
TORSDOF 6
