REMARK  Name = ZINC04532104
REMARK                            x       y       z     vdW  Elec       q    Type
REMARK                         _______ _______ _______ _____ _____    ______ ____
ROOT
ATOM      1  C   LIG    1        0.104  -0.944  -1.471  0.00  0.00    +0.043 C 
ATOM      2  C   LIG    1       -1.266  -0.715  -2.142  0.00  0.00    +0.010 C 
ATOM      3  C   LIG    1       -1.990  -2.079  -2.135  0.00  0.00    +0.005 C 
ATOM      4  C   LIG    1       -1.328  -2.847  -0.953  0.00  0.00    -0.001 C 
ATOM      5  C   LIG    1       -1.955  -2.291   0.330  0.00  0.00    +0.000 C 
ATOM      6  C   LIG    1       -3.335  -2.943   0.495  0.00  0.00    +0.031 C 
ATOM      7  C   LIG    1       -3.927  -2.564   1.819  0.00  0.00    -0.027 C 
ATOM      8  C   LIG    1       -3.225  -2.159   2.829  0.00  0.00    -0.065 C 
ATOM      9  C   LIG    1       -1.699  -2.007   2.806  0.00  0.00    -0.008 C 
ATOM     10  C   LIG    1       -1.131  -2.734   4.027  0.00  0.00    +0.016 C 
ATOM     11  C   LIG    1       -1.317  -0.534   2.925  0.00  0.00    +0.014 C 
ATOM     12  C   LIG    1       -2.394   0.225   3.699  0.00  0.00    +0.032 C 
ATOM     13  C   LIG    1       -3.013  -0.652   4.785  0.00  0.00    +0.119 C 
ATOM     14  C   LIG    1       -3.921  -1.772   4.124  0.00  0.00    +0.062 C 
ATOM     15  C   LIG    1       -1.091  -2.630   1.554  0.00  0.00    +0.003 C 
ATOM     16  C   LIG    1        0.316  -2.046   1.364  0.00  0.00    +0.005 C 
ATOM     17  C   LIG    1        0.961  -2.701   0.144  0.00  0.00    +0.008 C 
ATOM     18  C   LIG    1        0.147  -2.433  -1.101  0.00  0.00    -0.021 C 
ATOM     19  C   LIG    1        0.769  -3.215  -2.259  0.00  0.00    +0.012 C 
ENDROOT
BRANCH   1  21
ATOM     20  C   LIG    1       -0.942   0.746   0.221  0.00  0.00    +0.064 C 
ATOM     21  C   LIG    1        0.223  -0.097  -0.231  0.00  0.00    +0.058 C 
ATOM     22  N   LIG    1        1.313  -0.093   0.439  0.00  0.00    -0.097 NA
BRANCH  22  23
ATOM     23  O   LIG    1        1.405   0.653   1.639  0.00  0.00    -0.409 OA
ATOM     24  H   LIG    1        2.239   0.535   2.113  0.00  0.00    +0.328 HD
ENDBRANCH  22  23
ENDBRANCH   1  21
BRANCH  13  25
ATOM     25  O   LIG    1       -1.973  -1.270   5.548  0.00  0.00    -0.391 OA
ATOM     26  H   LIG    1       -2.292  -1.892   6.215  0.00  0.00    +0.210 HD
ENDBRANCH  13  25
TORSDOF 3
