REMARK  Name = ZINC04492895
REMARK                            x       y       z     vdW  Elec       q    Type
REMARK                         _______ _______ _______ _____ _____    ______ ____
ROOT
ATOM      1  C   LIG    1       -1.010  -0.032   4.628  0.00  0.00    +0.150 A 
ATOM      2  C   LIG    1       -1.922  -0.620   5.522  0.00  0.00    +0.147 A 
ATOM      3  C   LIG    1       -2.054  -0.056   6.801  0.00  0.00    +0.163 A 
ATOM      4  N   LIG    1       -1.318   1.004   7.119  0.00  0.00    -0.216 NA
ATOM      5  C   LIG    1       -0.476   1.521   6.250  0.00  0.00    +0.225 A 
ATOM      6  N   LIG    1       -2.994  -0.814   7.453  0.00  0.00    -0.329 N 
ATOM      7  C   LIG    1       -3.402  -1.788   6.592  0.00  0.00    +0.198 A 
ATOM      8  H   LIG    1       -3.311  -0.680   8.360  0.00  0.00    +0.168 HD
ATOM      9  N   LIG    1       -2.772  -1.673   5.460  0.00  0.00    -0.231 NA
ATOM     10  N   LIG    1       -0.314   1.023   5.037  0.00  0.00    -0.219 NA
ENDROOT
BRANCH   1  11
ATOM     11  N   LIG    1       -0.837  -0.544   3.354  0.00  0.00    -0.324 N 
ATOM     12  H   LIG    1       -1.350  -1.315   3.067  0.00  0.00    +0.148 HD
BRANCH  11  13
ATOM     13  C   LIG    1        0.123   0.078   2.439  0.00  0.00    +0.130 C 
BRANCH  13  16
ATOM     14  C   LIG    1       -0.201   1.487   0.018  0.00  0.00    +0.041 C 
ATOM     15  C   LIG    1       -0.088  -0.015   0.009  0.00  0.00    -0.050 C 
ATOM     16  C   LIG    1        0.121  -0.664   1.128  0.00  0.00    -0.007 C 
BRANCH  15  17
ATOM     17  C   LIG    1       -0.214  -0.772  -1.288  0.00  0.00    +0.186 C 
BRANCH  17  18
ATOM     18  O   LIG    1       -0.072  -2.172  -1.039  0.00  0.00    -0.391 OA
ATOM     19  H   LIG    1       -0.143  -2.722  -1.831  0.00  0.00    +0.210 HD
ENDBRANCH  17  18
ENDBRANCH  15  17
ENDBRANCH  13  16
ENDBRANCH  11  13
ENDBRANCH   1  11
TORSDOF 5
