REMARK  Name = ZINC04654860
REMARK                            x       y       z     vdW  Elec       q    Type
REMARK                         _______ _______ _______ _____ _____    ______ ____
ROOT
ATOM      1  C   LIG    1        1.338   2.180  -0.194  0.00  0.00    +0.021 C 
ATOM      2  C   LIG    1       -0.018   1.503   0.010  0.00  0.00    +0.015 C 
ATOM      3  C   LIG    1       -0.873   1.682  -1.246  0.00  0.00    +0.021 C 
ENDROOT
BRANCH   2   4
ATOM      4  C   LIG    1        0.188   0.033   0.272  0.00  0.00    -0.035 A 
ATOM      5  C   LIG    1        1.044  -0.375   1.278  0.00  0.00    +0.023 A 
ATOM      6  C   LIG    1        1.232  -1.723   1.523  0.00  0.00    +0.061 A 
ATOM      7 BR   LIG    1        2.396  -2.280   2.905  0.00  0.00    -0.046 Br
ATOM      8  C   LIG    1        0.569  -2.666   0.751  0.00  0.00    +0.145 A 
ATOM      9  C   LIG    1       -0.285  -2.253  -0.262  0.00  0.00    +0.061 A 
ATOM     10 BR   LIG    1       -1.192  -3.535  -1.316  0.00  0.00    -0.046 Br
ATOM     11  C   LIG    1       -0.474  -0.905  -0.499  0.00  0.00    +0.023 A 
BRANCH   8  12
ATOM     12  O   LIG    1        0.755  -3.992   0.987  0.00  0.00    -0.505 OA
ATOM     13  H   LIG    1        1.483  -4.382   0.484  0.00  0.00    +0.292 HD
ENDBRANCH   8  12
ENDBRANCH   2   4
BRANCH   2  14
ATOM     14  C   LIG    1       -0.720   2.129   1.188  0.00  0.00    -0.036 A 
ATOM     15  C   LIG    1       -1.190   1.331   2.215  0.00  0.00    +0.008 A 
ATOM     16  C   LIG    1       -1.829   1.902   3.299  0.00  0.00    +0.047 A 
ATOM     17  C   LIG    1       -2.009   3.277   3.351  0.00  0.00    +0.131 A 
ATOM     18  C   LIG    1       -1.542   4.075   2.316  0.00  0.00    +0.060 A 
ATOM     19 BR   LIG    1       -1.784   5.949   2.383  0.00  0.00    -0.047 Br
ATOM     20  C   LIG    1       -0.898   3.499   1.237  0.00  0.00    +0.023 A 
BRANCH  17  21
ATOM     21  O   LIG    1       -2.643   3.840   4.413  0.00  0.00    -0.506 OA
ATOM     22  H   LIG    1       -3.600   3.917   4.304  0.00  0.00    +0.292 HD
ENDBRANCH  17  21
ENDBRANCH   2  14
TORSDOF 4
