REMARK  Name = ZINC04292977
REMARK                            x       y       z     vdW  Elec       q    Type
REMARK                         _______ _______ _______ _____ _____    ______ ____
ROOT
ATOM      1  C   LIG    1       -0.016   1.357   0.009  0.00  0.00    +0.001 A 
ATOM      2  C   LIG    1        1.169   2.090   0.002  0.00  0.00    +0.001 A 
ATOM      3  C   LIG    1        2.379   1.467  -0.013  0.00  0.00    +0.012 A 
ATOM      4  C   LIG    1        2.437   0.064  -0.021  0.00  0.00    +0.024 A 
ATOM      5  C   LIG    1        1.233  -0.683  -0.013  0.00  0.00    -0.014 A 
ATOM      6  C   LIG    1        1.292  -2.087  -0.021  0.00  0.00    +0.009 A 
ATOM      7  C   LIG    1        2.501  -2.713  -0.035  0.00  0.00    +0.004 A 
ATOM      8  C   LIG    1        3.687  -1.984  -0.043  0.00  0.00    +0.046 A 
ATOM      9  C   LIG    1        3.671  -0.617  -0.036  0.00  0.00    +0.125 A 
ATOM     10  C   LIG    1        0.002  -0.004   0.002  0.00  0.00    +0.008 A 
ENDROOT
BRANCH   9  11
ATOM     11  O   LIG    1        4.837   0.080  -0.043  0.00  0.00    -0.506 OA
ATOM     12  H   LIG    1        5.183   0.278   0.838  0.00  0.00    +0.292 HD
ENDBRANCH   9  11
TORSDOF 1
