REMARK  Name = ZINC04687384
REMARK                            x       y       z     vdW  Elec       q    Type
REMARK                         _______ _______ _______ _____ _____    ______ ____
ROOT
ATOM      1  C   LIG    1       -1.620   3.567  -2.266  0.00  0.00    +0.031 A 
ATOM      2  C   LIG    1       -1.805   2.703  -3.339  0.00  0.00    +0.025 A 
ATOM      3  C   LIG    1       -2.205   3.197  -4.565  0.00  0.00    +0.036 A 
ATOM      4  C   LIG    1       -2.411   4.553  -4.732  0.00  0.00    +0.142 A 
ATOM      5  C   LIG    1       -2.223   5.423  -3.665  0.00  0.00    +0.059 A 
ATOM      6  C   LIG    1       -1.827   4.929  -2.430  0.00  0.00    +0.048 A 
ENDROOT
BRANCH   1  12
ATOM      7  C   LIG    1       -1.077   0.965   2.638  0.00  0.00    -0.096 C 
ATOM      8  N   LIG    1       -1.521   1.482   1.326  0.00  0.00    +0.380 N 
ATOM      9  H   LIG    1       -2.434   1.071   1.098  0.00  0.00    -0.082 HD
ATOM     10  C   LIG    1       -1.657   2.953   1.382  0.00  0.00    -0.060 C 
ATOM     11  C   LIG    1       -2.169   3.453   0.029  0.00  0.00    +0.086 C 
ATOM     12  N   LIG    1       -1.222   3.065  -1.025  0.00  0.00    -0.333 N 
ATOM     13  C   LIG    1       -1.062   1.605  -1.074  0.00  0.00    +0.086 C 
ATOM     14  C   LIG    1       -0.549   1.104   0.279  0.00  0.00    -0.060 C 
ENDBRANCH   1  12
BRANCH   4  15
ATOM     15  N   LIG    1       -2.834   5.080  -6.049  0.00  0.00    +0.008 N 
ATOM     16  O   LIG    1       -3.616   4.447  -6.736  0.00  0.00    -0.130 OA
BRANCH  15  17
ATOM     17  O   LIG    1       -2.399   6.146  -6.447  0.00  0.00    -0.396 OA
ATOM     18  H   LIG    1       -1.797   6.633  -5.919  0.00  0.00    +0.329 HD
ENDBRANCH  15  17
ENDBRANCH   4  15
BRANCH   5  19
ATOM     19  N   LIG    1       -2.432   6.794  -3.835  0.00  0.00    -0.342 N 
ATOM     20  H   LIG    1       -2.790   7.130  -4.671  0.00  0.00    +0.146 HD
BRANCH  19  21
ATOM     21  C   LIG    1       -2.111   7.724  -2.749  0.00  0.00    +0.106 C 
BRANCH  21  22
ATOM     22  C   LIG    1       -2.431   9.153  -3.191  0.00  0.00    +0.054 C 
BRANCH  22  23
ATOM     23  C   LIG    1       -2.101  10.110  -2.074  0.00  0.00    -0.046 A 
ATOM     24  C   LIG    1       -3.063  10.436  -1.137  0.00  0.00    +0.004 A 
ATOM     25  C   LIG    1       -2.758  11.310  -0.109  0.00  0.00    +0.000 A 
ATOM     26  C   LIG    1       -1.495  11.865  -0.026  0.00  0.00    +0.000 A 
ATOM     27  C   LIG    1       -0.535  11.543  -0.967  0.00  0.00    +0.000 A 
ATOM     28  C   LIG    1       -0.838  10.665  -1.991  0.00  0.00    +0.004 A 
ENDBRANCH  22  23
ENDBRANCH  21  22
ENDBRANCH  19  21
ENDBRANCH   5  19
TORSDOF 7
