REMARK  Name = ZINC04657315
REMARK                            x       y       z     vdW  Elec       q    Type
REMARK                         _______ _______ _______ _____ _____    ______ ____
ROOT
ATOM      1  C   LIG    1       -1.296  -1.922  -0.923  0.00  0.00    +0.131 A 
ATOM      2  C   LIG    1       -2.414  -2.741  -0.907  0.00  0.00    +0.048 A 
ATOM      3  C   LIG    1       -3.412  -2.532   0.024  0.00  0.00    +0.036 A 
ATOM      4  C   LIG    1       -3.306  -1.506   0.947  0.00  0.00    +0.122 A 
ATOM      5  C   LIG    1       -2.198  -0.685   0.949  0.00  0.00    +0.047 A 
ATOM      6  C   LIG    1       -1.184  -0.882   0.009  0.00  0.00    +0.061 A 
ENDROOT
BRANCH   6   7
ATOM      7  C   LIG    1        0.002  -0.004   0.002  0.00  0.00    +0.140 A 
ATOM      8  C   LIG    1       -0.017   1.372   0.010  0.00  0.00    +0.051 A 
ATOM      9  C   LIG    1        1.314   1.798  -0.001  0.00  0.00    +0.057 A 
ATOM     10  C   LIG    1        2.097   0.663  -0.014  0.00  0.00    +0.212 A 
ATOM     11  O   LIG    1        1.282  -0.413  -0.012  0.00  0.00    -0.448 OA
BRANCH  10  12
ATOM     12  C   LIG    1        3.559   0.630  -0.028  0.00  0.00    +0.372 C 
ATOM     13  O   LIG    1        4.190   1.670  -0.028  0.00  0.00    -0.242 OA
BRANCH  12  14
ATOM     14  O   LIG    1        4.207  -0.553  -0.040  0.00  0.00    -0.475 OA
ATOM     15  H   LIG    1        3.721  -1.354  -0.040  0.00  0.00    +0.296 HD
ENDBRANCH  12  14
ENDBRANCH  10  12
ENDBRANCH   6   7
BRANCH   1  17
ATOM     16  C   LIG    1       -0.497  -3.206  -2.756  0.00  0.00    +0.277 C 
ATOM     17  O   LIG    1       -0.313  -2.127  -1.838  0.00  0.00    -0.494 OA
ENDBRANCH   1  17
BRANCH   4  18
ATOM     18  N   LIG    1       -4.383  -1.292   1.940  0.00  0.00    +0.006 N 
ATOM     19  O   LIG    1       -5.360  -2.019   1.944  0.00  0.00    -0.130 OA
BRANCH  18  20
ATOM     20  O   LIG    1       -4.291  -0.390   2.753  0.00  0.00    -0.396 OA
ATOM     21  H   LIG    1       -3.540   0.169   2.750  0.00  0.00    +0.329 HD
ENDBRANCH  18  20
ENDBRANCH   4  18
TORSDOF 6
