REMARK  Name = ZINC04676170
REMARK                            x       y       z     vdW  Elec       q    Type
REMARK                         _______ _______ _______ _____ _____    ______ ____
ROOT
ATOM      1  C   LIG    1        0.848  -0.411  -1.489  0.00  0.00    +0.122 C 
ATOM      2  N   LIG    1        1.565  -1.532  -1.564  0.00  0.00    -0.382 N 
ATOM      3  H   LIG    1        2.031  -1.756  -2.385  0.00  0.00    +0.158 HD
ATOM      4  H   LIG    1        1.621  -2.124  -0.797  0.00  0.00    +0.158 HD
ENDROOT
BRANCH   1   5
ATOM      5  N   LIG    1        0.772   0.403  -2.542  0.00  0.00    -0.340 N 
ATOM      6  H   LIG    1        1.238   0.179  -3.363  0.00  0.00    +0.144 HD
ATOM      7  H   LIG    1        0.250   1.219  -2.487  0.00  0.00    +0.144 HD
ENDBRANCH   1   5
BRANCH   1   9
ATOM      8  C   LIG    1       -0.022   1.810   0.012  0.00  0.00    +0.092 C 
ATOM      9  S   LIG    1        0.002  -0.004   0.002  0.00  0.00    -0.097 S 
ENDBRANCH   1   9
TORSDOF 2
