REMARK  Name = ZINC04676424
REMARK                            x       y       z     vdW  Elec       q    Type
REMARK                         _______ _______ _______ _____ _____    ______ ____
ROOT
ATOM      1  C   LIG    1       -2.780  -6.493  -1.527  0.00  0.00    +0.198 A 
ATOM      2  N   LIG    1       -1.717  -7.339  -1.456  0.00  0.00    -0.331 N 
ATOM      3  C   LIG    1       -2.218  -8.619  -1.330  0.00  0.00    +0.070 A 
ATOM      4  C   LIG    1       -1.640  -9.876  -1.217  0.00  0.00    +0.073 A 
ATOM      5  C   LIG    1       -2.448 -10.993  -1.104  0.00  0.00    +0.129 A 
ATOM      6  C   LIG    1       -3.834 -10.861  -1.105  0.00  0.00    +0.048 A 
ATOM      7  C   LIG    1       -4.415  -9.631  -1.216  0.00  0.00    +0.033 A 
ATOM      8  C   LIG    1       -3.617  -8.490  -1.331  0.00  0.00    +0.090 A 
ATOM      9  H   LIG    1       -0.780  -7.089  -1.488  0.00  0.00    +0.168 HD
ATOM     10  N   LIG    1       -3.892  -7.164  -1.448  0.00  0.00    -0.220 NA
ENDROOT
BRANCH   1  11
ATOM     11  S   LIG    1       -2.668  -4.742  -1.694  0.00  0.00    +0.095 S 
ATOM     12  O   LIG    1       -1.403  -4.536  -2.307  0.00  0.00    -0.249 OA
BRANCH  11  13
ATOM     13  C   LIG    1       -2.617  -4.141   0.016  0.00  0.00    +0.171 C 
BRANCH  13  18
ATOM     14  C   LIG    1       -1.200  -0.637   0.010  0.00  0.00    +0.165 A 
ATOM     15  C   LIG    1       -2.387   0.087   0.019  0.00  0.00    +0.069 A 
ATOM     16  C   LIG    1       -3.589  -0.593   0.027  0.00  0.00    +0.115 A 
ATOM     17  N   LIG    1       -3.622  -1.912   0.026  0.00  0.00    -0.255 NA
ATOM     18  C   LIG    1       -2.520  -2.637   0.017  0.00  0.00    +0.099 A 
ATOM     19  C   LIG    1       -1.275  -2.032   0.003  0.00  0.00    +0.184 A 
BRANCH  14  21
ATOM     20  C   LIG    1       -0.017   1.425   0.010  0.00  0.00    +0.277 C 
ATOM     21  O   LIG    1        0.002  -0.004   0.002  0.00  0.00    -0.491 OA
ENDBRANCH  14  21
BRANCH  19  22
ATOM     22  O   LIG    1       -0.142  -2.784  -0.011  0.00  0.00    -0.490 OA
ATOM     23  C   LIG    1        0.410  -3.150   1.255  0.00  0.00    +0.277 C 
ENDBRANCH  19  22
ENDBRANCH  13  18
ENDBRANCH  11  13
ENDBRANCH   1  11
BRANCH   5  24
ATOM     24  O   LIG    1       -1.885 -12.226  -0.993  0.00  0.00    -0.434 OA
BRANCH  24  25
ATOM     25  C   LIG    1       -2.776 -13.338  -0.880  0.00  0.00    +0.541 C 
ATOM     26  F   LIG    1       -3.593 -13.398  -2.015  0.00  0.00    -0.166 F 
ATOM     27  F   LIG    1       -3.572 -13.183   0.260  0.00  0.00    -0.166 F 
ENDBRANCH  24  25
ENDBRANCH   5  24
TORSDOF 7
