REMARK  Name = ZINC04258305
REMARK                            x       y       z     vdW  Elec       q    Type
REMARK                         _______ _______ _______ _____ _____    ______ ____
ROOT
ATOM      1  C   LIG    1        3.686  -0.687  -0.045  0.00  0.00    +0.039 C 
ATOM      2  C   LIG    1        3.714  -2.038   0.060  0.00  0.00    +0.115 C 
ENDROOT
BRANCH   1   6
ATOM      3  C   LIG    1       -0.005   1.385   0.203  0.00  0.00    +0.000 A 
ATOM      4  C   LIG    1        0.124   0.136   0.786  0.00  0.00    +0.001 A 
ATOM      5  C   LIG    1        1.320  -0.544   0.710  0.00  0.00    +0.008 A 
ATOM      6  C   LIG    1        2.406   0.031   0.041  0.00  0.00    -0.023 A 
ATOM      7  C   LIG    1        2.268   1.294  -0.546  0.00  0.00    +0.008 A 
ATOM      8  C   LIG    1        1.064   1.961  -0.460  0.00  0.00    +0.001 A 
ENDBRANCH   1   6
BRANCH   2   9
ATOM      9  N   LIG    1        2.516  -2.763   0.088  0.00  0.00    -0.217 N 
ATOM     10  C   LIG    1        2.119  -3.630   1.039  0.00  0.00    +0.225 A 
ATOM     11  N   LIG    1        0.944  -4.095   0.699  0.00  0.00    -0.222 NA
ATOM     12  C   LIG    1        0.560  -3.552  -0.456  0.00  0.00    +0.245 A 
ATOM     13  N   LIG    1        1.486  -2.725  -0.866  0.00  0.00    -0.153 NA
ENDBRANCH   2   9
BRANCH   2  14
ATOM     14  C   LIG    1        4.999  -2.742   0.144  0.00  0.00    +0.213 C 
ATOM     15  O   LIG    1        5.718  -2.582   1.113  0.00  0.00    -0.285 OA
BRANCH  14  16
ATOM     16  C   LIG    1        5.420  -3.643  -0.948  0.00  0.00    +0.042 A 
ATOM     17  C   LIG    1        4.655  -3.739  -2.114  0.00  0.00    +0.014 A 
ATOM     18  C   LIG    1        5.053  -4.581  -3.129  0.00  0.00    +0.021 A 
ATOM     19  C   LIG    1        6.210  -5.334  -2.996  0.00  0.00    +0.042 A 
ATOM     20 CL   LIG    1        6.703  -6.393  -4.280  0.00  0.00    -0.083 Cl
ATOM     21  C   LIG    1        6.972  -5.245  -1.844  0.00  0.00    +0.040 A 
ATOM     22  C   LIG    1        6.588  -4.401  -0.822  0.00  0.00    +0.053 A 
ATOM     23 CL   LIG    1        7.549  -4.284   0.619  0.00  0.00    -0.083 Cl
ENDBRANCH  14  16
ENDBRANCH   2  14
TORSDOF 4
