REMARK  Name = ZINC04534208
REMARK                            x       y       z     vdW  Elec       q    Type
REMARK                         _______ _______ _______ _____ _____    ______ ____
ROOT
ATOM      1  C   LIG    1        5.394   3.628  -3.025  0.00  0.00    +0.160 C 
ENDROOT
BRANCH   1   3
ATOM      2  C   LIG    1        4.207   1.631  -2.289  0.00  0.00    +0.234 C 
ATOM      3  N   LIG    1        5.252   2.172  -2.947  0.00  0.00    -0.302 N 
ATOM      4  H   LIG    1        5.910   1.597  -3.368  0.00  0.00    +0.150 HD
ATOM      5  O   LIG    1        3.385   2.350  -1.762  0.00  0.00    -0.274 OA
BRANCH   2   6
ATOM      6  C   LIG    1        4.061   0.134  -2.209  0.00  0.00    +0.166 C 
BRANCH   6   8
ATOM      7  C   LIG    1        2.116   0.238  -0.745  0.00  0.00    +0.401 C 
ATOM      8  N   LIG    1        2.672  -0.205  -1.890  0.00  0.00    -0.269 N 
ATOM      9  H   LIG    1        2.153  -0.749  -2.503  0.00  0.00    +0.153 HD
ATOM     10  O   LIG    1        2.767   0.918   0.023  0.00  0.00    -0.226 OA
BRANCH   7  11
ATOM     11  O   LIG    1        0.839  -0.073  -0.453  0.00  0.00    -0.445 OA
BRANCH  11  13
ATOM     12  C   LIG    1        0.373   1.959   0.769  0.00  0.00    +0.055 C 
ATOM     13  C   LIG    1        0.314   0.430   0.778  0.00  0.00    +0.107 C 
ATOM     14  C   LIG    1       -1.138  -0.024   0.936  0.00  0.00    +0.055 C 
ATOM     15  C   LIG    1        1.146  -0.106   1.944  0.00  0.00    +0.055 C 
ENDBRANCH  11  13
ENDBRANCH   7  11
ENDBRANCH   6   8
BRANCH   6  16
ATOM     16  C   LIG    1        4.983  -0.411  -1.115  0.00  0.00    +0.069 C 
BRANCH  16  17
ATOM     17  C   LIG    1        4.929  -1.917  -1.117  0.00  0.00    -0.020 A 
ATOM     18  C   LIG    1        4.143  -2.689  -0.350  0.00  0.00    +0.087 A 
ATOM     19  N   LIG    1        4.370  -4.009  -0.629  0.00  0.00    -0.360 N 
ATOM     20  C   LIG    1        5.333  -4.122  -1.608  0.00  0.00    +0.047 A 
ATOM     21  C   LIG    1        5.926  -5.205  -2.247  0.00  0.00    +0.026 A 
ATOM     22  C   LIG    1        6.875  -4.988  -3.223  0.00  0.00    +0.002 A 
ATOM     23  C   LIG    1        7.257  -3.698  -3.564  0.00  0.00    +0.001 A 
ATOM     24  C   LIG    1        6.691  -2.619  -2.945  0.00  0.00    +0.010 A 
ATOM     25  H   LIG    1        3.921  -4.755  -0.202  0.00  0.00    +0.165 HD
ATOM     26  C   LIG    1        5.721  -2.816  -1.960  0.00  0.00    +0.003 A 
ENDBRANCH  16  17
ENDBRANCH   6  16
ENDBRANCH   2   6
ENDBRANCH   1   3
BRANCH   1  27
ATOM     27  C   LIG    1        6.202   3.990  -4.244  0.00  0.00    +0.234 C 
ATOM     28  N   LIG    1        6.462   5.283  -4.522  0.00  0.00    -0.302 N 
ATOM     29  H   LIG    1        6.070   5.984  -3.978  0.00  0.00    +0.150 HD
ATOM     30  O   LIG    1        6.618   3.117  -4.977  0.00  0.00    -0.274 OA
BRANCH  28  31
ATOM     31  C   LIG    1        7.336   5.630  -5.645  0.00  0.00    +0.169 C 
BRANCH  31  32
ATOM     32  C   LIG    1        8.776   5.507  -5.218  0.00  0.00    +0.234 C 
ATOM     33  N   LIG    1        9.764   5.779  -6.093  0.00  0.00    -0.302 N 
ATOM     34  H   LIG    1        9.548   6.053  -6.998  0.00  0.00    +0.150 HD
ATOM     35  O   LIG    1        9.045   5.163  -4.087  0.00  0.00    -0.274 OA
BRANCH  33  36
ATOM     36  C   LIG    1       11.164   5.659  -5.678  0.00  0.00    +0.163 C 
BRANCH  36  37
ATOM     37  C   LIG    1       11.600   6.937  -5.010  0.00  0.00    +0.231 C 
ATOM     38  N   LIG    1       12.859   7.058  -4.543  0.00  0.00    -0.328 N 
ATOM     39  H   LIG    1       13.140   7.881  -4.113  0.00  0.00    +0.145 HD
ATOM     40  H   LIG    1       13.483   6.322  -4.638  0.00  0.00    +0.145 HD
ATOM     41  O   LIG    1       10.819   7.858  -4.892  0.00  0.00    -0.274 OA
ENDBRANCH  36  37
BRANCH  36  42
ATOM     42  C   LIG    1       12.039   5.400  -6.906  0.00  0.00    +0.067 C 
BRANCH  42  43
ATOM     43  C   LIG    1       11.685   4.063  -7.503  0.00  0.00    -0.045 A 
ATOM     44  C   LIG    1       12.338   2.921  -7.077  0.00  0.00    +0.004 A 
ATOM     45  C   LIG    1       12.013   1.694  -7.624  0.00  0.00    +0.000 A 
ATOM     46  C   LIG    1       11.035   1.609  -8.597  0.00  0.00    +0.000 A 
ATOM     47  C   LIG    1       10.381   2.750  -9.023  0.00  0.00    +0.000 A 
ATOM     48  C   LIG    1       10.703   3.977  -8.472  0.00  0.00    +0.004 A 
ENDBRANCH  42  43
ENDBRANCH  36  42
ENDBRANCH  33  36
ENDBRANCH  31  32
BRANCH  31  49
ATOM     49  C   LIG    1        7.055   7.068  -6.085  0.00  0.00    +0.152 C 
BRANCH  49  50
ATOM     50  C   LIG    1        5.657   7.160  -6.641  0.00  0.00    +0.307 C 
ATOM     51  O   LIG    1        4.988   6.150  -6.776  0.00  0.00    -0.251 OA
BRANCH  50  52
ATOM     52  O   LIG    1        5.196   8.243  -6.956  0.00  0.00    -0.481 OA
ATOM     53  H   LIG    1        5.711   9.020  -6.852  0.00  0.00    +0.295 HD
ENDBRANCH  50  52
ENDBRANCH  49  50
ENDBRANCH  31  49
ENDBRANCH  28  31
ENDBRANCH   1  27
BRANCH   1  54
ATOM     54  C   LIG    1        6.107   4.139  -1.771  0.00  0.00    +0.042 C 
BRANCH  54  55
ATOM     55  C   LIG    1        5.229   3.883  -0.544  0.00  0.00    +0.071 C 
BRANCH  55  56
ATOM     56  S   LIG    1        6.075   4.489   0.942  0.00  0.00    -0.164 S 
ATOM     57  C   LIG    1        4.918   4.115   2.288  0.00  0.00    +0.084 C 
ENDBRANCH  55  56
ENDBRANCH  54  55
ENDBRANCH   1  54
TORSDOF 20
