REMARK  Name = ZINC04475082
REMARK                            x       y       z     vdW  Elec       q    Type
REMARK                         _______ _______ _______ _____ _____    ______ ____
ROOT
ATOM      1  C   LIG    1       -0.016   1.356   0.040  0.00  0.00    +0.001 A 
ATOM      2  C   LIG    1        1.169   2.090   0.033  0.00  0.00    +0.001 A 
ATOM      3  C   LIG    1        2.379   1.468   0.007  0.00  0.00    +0.009 A 
ATOM      4  C   LIG    1        2.438   0.064  -0.011  0.00  0.00    -0.014 A 
ATOM      5  C   LIG    1        1.233  -0.683  -0.003  0.00  0.00    -0.018 A 
ATOM      6  C   LIG    1        1.292  -2.087  -0.021  0.00  0.00    +0.008 A 
ATOM      7  C   LIG    1        2.502  -2.709  -0.046  0.00  0.00    +0.001 A 
ATOM      8  C   LIG    1        3.687  -1.976  -0.053  0.00  0.00    +0.005 A 
ATOM      9  C   LIG    1        3.668  -0.615  -0.037  0.00  0.00    -0.026 A 
ATOM     10  C   LIG    1        0.002  -0.004   0.022  0.00  0.00    +0.008 A 
ENDROOT
BRANCH   9  11
ATOM     11  C   LIG    1        4.960   0.161  -0.046  0.00  0.00    +0.129 C 
ATOM     12  C   LIG    1        5.824  -0.292  -1.230  0.00  0.00    +0.027 C 
ATOM     13  C   LIG    1        7.193   0.394  -1.135  0.00  0.00    +0.076 C 
ATOM     14  C   LIG    1        7.776   0.114   0.233  0.00  0.00    +0.116 C 
ATOM     15  O   LIG    1        6.990   0.353   1.325  0.00  0.00    -0.429 OA
ATOM     16  C   LIG    1        9.004  -0.346   0.367  0.00  0.00    +0.092 C 
ATOM     17 BR   LIG    1       10.067  -0.665  -1.164  0.00  0.00    -0.055 Br
ATOM     18  C   LIG    1        5.718  -0.101   1.237  0.00  0.00    +0.320 C 
ATOM     19  O   LIG    1        5.205  -0.700   2.152  0.00  0.00    -0.250 OA
ENDBRANCH   9  11
TORSDOF 1
