REMARK  Name = ZINC04165898
REMARK                            x       y       z     vdW  Elec       q    Type
REMARK                         _______ _______ _______ _____ _____    ______ ____
ROOT
ATOM      1  C   LIG    1       -0.041   1.418   0.049  0.00  0.00    +0.015 C 
ATOM      2  C   LIG    1       -0.001  -0.109  -0.022  0.00  0.00    +0.006 C 
ATOM      3  C   LIG    1       -1.386  -0.683   0.014  0.00  0.00    +0.011 C 
ATOM      4  C   LIG    1       -1.915  -0.865   1.443  0.00  0.00    +0.009 C 
ATOM      5  C   LIG    1       -1.176  -0.014   2.460  0.00  0.00    +0.025 C 
ATOM      6  C   LIG    1        0.296  -0.310   2.424  0.00  0.00    -0.031 C 
ATOM      7  C   LIG    1        1.067  -0.295   3.508  0.00  0.00    +0.049 C 
ATOM      8  C   LIG    1        0.443  -0.062   4.818  0.00  0.00    +0.160 C 
ATOM      9  C   LIG    1       -0.989  -0.546   4.947  0.00  0.00    +0.069 C 
ATOM     10  C   LIG    1       -1.010  -2.071   4.856  0.00  0.00    +0.046 C 
ATOM     11  C   LIG    1       -2.453  -2.559   5.001  0.00  0.00    +0.144 C 
ATOM     12  C   LIG    1       -3.291  -2.002   3.853  0.00  0.00    +0.144 C 
ATOM     13  C   LIG    1       -3.236  -0.482   3.842  0.00  0.00    +0.041 C 
ATOM     14  O   LIG    1        1.034   0.441   5.749  0.00  0.00    -0.292 OA
ATOM     15  C   LIG    1       -1.814   0.062   3.820  0.00  0.00    -0.013 C 
ATOM     16  C   LIG    1       -1.927   1.568   4.143  0.00  0.00    +0.012 C 
ATOM     17  C   LIG    1        0.844  -0.460  -1.261  0.00  0.00    +0.032 C 
ATOM     18  C   LIG    1        2.304  -0.232  -0.791  0.00  0.00    +0.010 C 
ATOM     19  C   LIG    1        2.257  -0.142   0.759  0.00  0.00    +0.040 C 
ATOM     20  C   LIG    1        0.876  -0.716   1.103  0.00  0.00    +0.093 C 
ENDROOT
BRANCH  11  21
ATOM     21  O   LIG    1       -2.984  -2.123   6.251  0.00  0.00    -0.389 OA
ATOM     22  H   LIG    1       -3.896  -2.401   6.410  0.00  0.00    +0.210 HD
ENDBRANCH  11  21
BRANCH  12  23
ATOM     23  O   LIG    1       -4.649  -2.423   4.025  0.00  0.00    -0.389 OA
ATOM     24  H   LIG    1       -4.764  -3.383   4.042  0.00  0.00    +0.210 HD
ENDBRANCH  12  23
BRANCH  17  25
ATOM     25  C   LIG    1        0.495   0.489  -2.408  0.00  0.00    +0.092 C 
ATOM     26  C   LIG    1       -1.014   0.452  -2.660  0.00  0.00    +0.044 C 
BRANCH  25  27
ATOM     27  O   LIG    1        0.888   1.819  -2.062  0.00  0.00    -0.386 OA
ATOM     28  H   LIG    1        1.834   1.917  -1.888  0.00  0.00    +0.210 HD
ENDBRANCH  25  27
BRANCH  25  29
ATOM     29  C   LIG    1        1.234   0.052  -3.674  0.00  0.00    +0.146 C 
BRANCH  29  30
ATOM     30  O   LIG    1        2.644   0.086  -3.439  0.00  0.00    -0.389 OA
ATOM     31  H   LIG    1        2.981   0.960  -3.199  0.00  0.00    +0.210 HD
ENDBRANCH  29  30
BRANCH  29  32
ATOM     32  C   LIG    1        0.886   1.001  -4.822  0.00  0.00    +0.037 C 
BRANCH  32  33
ATOM     33  C   LIG    1        1.525   0.493  -6.116  0.00  0.00    +0.037 C 
BRANCH  33  34
ATOM     34  C   LIG    1        1.176   1.443  -7.264  0.00  0.00    +0.061 C 
ATOM     35  C   LIG    1       -0.344   1.598  -7.353  0.00  0.00    +0.041 C 
ATOM     36  C   LIG    1        1.709   0.871  -8.579  0.00  0.00    +0.041 C 
BRANCH  34  37
ATOM     37  O   LIG    1        1.772   2.720  -7.023  0.00  0.00    -0.389 OA
ATOM     38  H   LIG    1        2.736   2.697  -6.955  0.00  0.00    +0.210 HD
ENDBRANCH  34  37
ENDBRANCH  33  34
ENDBRANCH  32  33
ENDBRANCH  29  32
ENDBRANCH  25  29
ENDBRANCH  17  25
BRANCH  20  39
ATOM     39  O   LIG    1        0.909  -2.154   0.997  0.00  0.00    -0.384 OA
ATOM     40  H   LIG    1        1.444  -2.586   1.677  0.00  0.00    +0.211 HD
ENDBRANCH  20  39
TORSDOF 11
