REMARK  Name = ZINC04623758
REMARK                            x       y       z     vdW  Elec       q    Type
REMARK                         _______ _______ _______ _____ _____    ______ ____
ROOT
ATOM      1  C   LIG    1       -0.017   1.384   0.010  0.00  0.00    +0.026 A 
ATOM      2  C   LIG    1        1.170   2.091   0.002  0.00  0.00    +0.047 A 
ATOM      3  C   LIG    1        2.380   1.414  -0.013  0.00  0.00    +0.117 A 
ATOM      4  C   LIG    1        2.400   0.027  -0.021  0.00  0.00    +0.047 A 
ATOM      5  C   LIG    1        1.214  -0.681  -0.013  0.00  0.00    +0.026 A 
ATOM      6  C   LIG    1        0.002  -0.004   0.002  0.00  0.00    +0.025 A 
ENDROOT
BRANCH   6   7
ATOM      7  N   LIG    1       -1.200  -0.721   0.010  0.00  0.00    -0.358 N 
ATOM      8  H   LIG    1       -1.186  -1.690   0.005  0.00  0.00    +0.142 HD
ATOM      9  H   LIG    1       -2.047  -0.247   0.021  0.00  0.00    +0.142 HD
ENDBRANCH   6   7
BRANCH   3  10
ATOM     10  O   LIG    1        3.549   2.110  -0.021  0.00  0.00    -0.507 OA
ATOM     11  H   LIG    1        3.895   2.307   0.860  0.00  0.00    +0.292 HD
ENDBRANCH   3  10
TORSDOF 2
