REMARK  Name = ZINC04603291
REMARK                            x       y       z     vdW  Elec       q    Type
REMARK                         _______ _______ _______ _____ _____    ______ ____
ROOT
ATOM      1  C   LIG    1        2.183  -6.022  -3.380  0.00  0.00    +0.034 A 
ATOM      2  C   LIG    1        1.049  -6.686  -2.929  0.00  0.00    +0.025 A 
ATOM      3  C   LIG    1        1.028  -8.066  -2.890  0.00  0.00    +0.030 A 
ATOM      4  C   LIG    1        2.135  -8.787  -3.299  0.00  0.00    +0.105 A 
ATOM      5  C   LIG    1        3.266  -8.130  -3.747  0.00  0.00    +0.030 A 
ATOM      6  C   LIG    1        3.291  -6.750  -3.794  0.00  0.00    +0.025 A 
ENDROOT
BRANCH   1   8
ATOM      7  C   LIG    1        1.563  -3.911  -2.475  0.00  0.00    +0.220 C 
ATOM      8  N   LIG    1        2.208  -4.624  -3.420  0.00  0.00    -0.285 N 
ATOM      9  H   LIG    1        2.688  -4.168  -4.129  0.00  0.00    +0.155 HD
ATOM     10  O   LIG    1        1.042  -4.477  -1.538  0.00  0.00    -0.275 OA
BRANCH   7  11
ATOM     11  C   LIG    1        1.490  -2.409  -2.583  0.00  0.00    +0.075 C 
BRANCH  11  12
ATOM     12  C   LIG    1        0.782  -2.025  -3.884  0.00  0.00    +0.009 C 
ATOM     13  C   LIG    1        0.838  -0.507  -4.066  0.00  0.00    +0.004 C 
ENDBRANCH  11  12
BRANCH  11  14
ATOM     14  C   LIG    1        0.710  -1.850  -1.393  0.00  0.00    +0.013 C 
BRANCH  14  15
ATOM     15  C   LIG    1        1.498  -2.096  -0.105  0.00  0.00    +0.000 C 
BRANCH  15  17
ATOM     16  C   LIG    1        1.568  -1.673   2.357  0.00  0.00    +0.004 C 
ATOM     17  C   LIG    1        0.780  -1.426   1.069  0.00  0.00    -0.003 C 
ENDBRANCH  15  17
ENDBRANCH  14  15
ENDBRANCH  11  14
ENDBRANCH   7  11
ENDBRANCH   1   8
BRANCH   4  18
ATOM     18  S   LIG    1        2.104 -10.549  -3.247  0.00  0.00    +0.056 S 
ATOM     19  O   LIG    1        1.132 -10.909  -2.276  0.00  0.00    -0.153 OA
ATOM     20  O   LIG    1        3.457 -10.976  -3.167  0.00  0.00    -0.153 OA
BRANCH  18  21
ATOM     21  N   LIG    1        1.529 -11.071  -4.709  0.00  0.00    -0.204 NA
ATOM     22  H   LIG    1        1.436 -12.021  -4.882  0.00  0.00    +0.144 HD
ATOM     23  H   LIG    1        1.286 -10.427  -5.393  0.00  0.00    +0.144 HD
ENDBRANCH  18  21
ENDBRANCH   4  18
TORSDOF 8
