REMARK  Name = ZINC04533909
REMARK                            x       y       z     vdW  Elec       q    Type
REMARK                         _______ _______ _______ _____ _____    ______ ____
ROOT
ATOM      1  C   LIG    1        5.680   0.677   1.381  0.00  0.00    +0.328 C 
ATOM      2  O   LIG    1        6.325  -0.319   1.608  0.00  0.00    -0.249 OA
ENDROOT
BRANCH   1   3
ATOM      3  C   LIG    1        4.174   0.620   1.404  0.00  0.00    +0.186 C 
BRANCH   3   6
ATOM      4  C   LIG    1        3.662  -2.999   2.543  0.00  0.00    +0.109 C 
ATOM      5  C   LIG    1        4.108  -1.790   1.762  0.00  0.00    +0.211 C 
ATOM      6  N   LIG    1        3.741  -0.556   2.163  0.00  0.00    -0.302 N 
ATOM      7  H   LIG    1        3.190  -0.447   2.954  0.00  0.00    +0.150 HD
ATOM      8  O   LIG    1        4.796  -1.926   0.773  0.00  0.00    -0.276 OA
ENDBRANCH   3   6
BRANCH   3   9
ATOM      9  C   LIG    1        3.646   0.524  -0.029  0.00  0.00    +0.071 C 
BRANCH   9  10
ATOM     10  C   LIG    1        2.140   0.591  -0.015  0.00  0.00    -0.020 A 
ATOM     11  C   LIG    1        1.295  -0.452  -0.013  0.00  0.00    +0.087 A 
ATOM     12  N   LIG    1        0.002  -0.004   0.002  0.00  0.00    -0.360 N 
ATOM     13  C   LIG    1       -0.017   1.373   0.010  0.00  0.00    +0.047 A 
ATOM     14  C   LIG    1       -1.038   2.317   0.029  0.00  0.00    +0.026 A 
ATOM     15  C   LIG    1       -0.729   3.659   0.029  0.00  0.00    +0.002 A 
ATOM     16  C   LIG    1        0.593   4.082   0.019  0.00  0.00    +0.001 A 
ATOM     17  C   LIG    1        1.612   3.171   0.004  0.00  0.00    +0.010 A 
ATOM     18  H   LIG    1       -0.784  -0.572   0.006  0.00  0.00    +0.165 HD
ATOM     19  C   LIG    1        1.322   1.806  -0.001  0.00  0.00    +0.003 A 
ENDBRANCH   9  10
ENDBRANCH   3   9
ENDBRANCH   1   3
BRANCH   1  20
ATOM     20  O   LIG    1        6.303   1.834   1.110  0.00  0.00    -0.459 OA
BRANCH  20  21
ATOM     21  C   LIG    1        7.755   1.815   1.106  0.00  0.00    +0.267 C 
BRANCH  21  22
ATOM     22  C   LIG    1        8.275   3.192   0.784  0.00  0.00    -0.009 A 
ATOM     23  C   LIG    1        8.511   3.553  -0.529  0.00  0.00    +0.019 A 
ATOM     24  C   LIG    1        8.984   4.818  -0.824  0.00  0.00    +0.056 A 
ATOM     25  C   LIG    1        9.228   5.720   0.195  0.00  0.00    +0.024 A 
ATOM     26  C   LIG    1        8.997   5.357   1.508  0.00  0.00    +0.056 A 
ATOM     27  C   LIG    1        8.520   4.094   1.803  0.00  0.00    +0.019 A 
BRANCH  24  28
ATOM     28  C   LIG    1        9.236   5.213  -2.257  0.00  0.00    +0.417 C 
ATOM     29  F   LIG    1        8.043   5.123  -2.982  0.00  0.00    -0.166 F 
ATOM     30  F   LIG    1       10.188   4.354  -2.817  0.00  0.00    -0.166 F 
ATOM     31  F   LIG    1        9.711   6.528  -2.301  0.00  0.00    -0.166 F 
ENDBRANCH  24  28
BRANCH  26  32
ATOM     32  C   LIG    1        9.263   6.340   2.619  0.00  0.00    +0.417 C 
ATOM     33  F   LIG    1        8.389   6.091   3.682  0.00  0.00    -0.166 F 
ATOM     34  F   LIG    1        9.065   7.642   2.147  0.00  0.00    -0.166 F 
ATOM     35  F   LIG    1       10.584   6.200   3.059  0.00  0.00    -0.166 F 
ENDBRANCH  26  32
ENDBRANCH  21  22
ENDBRANCH  20  21
ENDBRANCH   1  20
TORSDOF 9
