REMARK  Name = ZINC04103789
REMARK                            x       y       z     vdW  Elec       q    Type
REMARK                         _______ _______ _______ _____ _____    ______ ____
ROOT
ATOM      1  C   LIG    1        2.107   9.460   0.283  0.00  0.00    +0.173 C 
ATOM      2  C   LIG    1        3.460  10.175   0.213  0.00  0.00    +0.172 C 
ATOM      3  C   LIG    1        4.097   9.906  -1.154  0.00  0.00    +0.176 C 
ATOM      4  C   LIG    1        4.227   8.395  -1.359  0.00  0.00    +0.179 C 
ATOM      5  O   LIG    1        2.938   7.788  -1.251  0.00  0.00    -0.332 OA
ATOM      6  C   LIG    1        2.315   7.966   0.023  0.00  0.00    +0.331 C 
ENDROOT
BRANCH   1   9
ATOM      7  C   LIG    1       -0.413   9.761   3.149  0.00  0.00    +0.109 C 
ATOM      8  C   LIG    1        0.188   9.567   1.781  0.00  0.00    +0.210 C 
ATOM      9  N   LIG    1        1.523   9.649   1.613  0.00  0.00    -0.304 N 
ATOM     10  H   LIG    1        2.096   9.832   2.374  0.00  0.00    +0.149 HD
ATOM     11  O   LIG    1       -0.529   9.337   0.830  0.00  0.00    -0.276 OA
ENDBRANCH   1   9
BRANCH   2  12
ATOM     12  O   LIG    1        4.317   9.683   1.245  0.00  0.00    -0.387 OA
ATOM     13  H   LIG    1        5.195  10.089   1.254  0.00  0.00    +0.210 HD
ENDBRANCH   2  12
BRANCH   3  14
ATOM     14  O   LIG    1        3.273  10.458  -2.183  0.00  0.00    -0.387 OA
ATOM     15  H   LIG    1        3.615  10.320  -3.077  0.00  0.00    +0.210 HD
ENDBRANCH   3  14
BRANCH   4  16
ATOM     16  C   LIG    1        4.807   8.116  -2.747  0.00  0.00    +0.190 C 
BRANCH  16  17
ATOM     17  O   LIG    1        5.036   6.713  -2.895  0.00  0.00    -0.392 OA
ATOM     18  H   LIG    1        5.404   6.463  -3.753  0.00  0.00    +0.210 HD
ENDBRANCH  16  17
ENDBRANCH   4  16
BRANCH   6  19
ATOM     19  O   LIG    1        1.050   7.301   0.031  0.00  0.00    -0.462 OA
BRANCH  19  20
ATOM     20  C   LIG    1        1.067   5.942   0.023  0.00  0.00    +0.125 A 
ATOM     21  C   LIG    1        2.292   5.268   0.007  0.00  0.00    +0.046 A 
ATOM     22  C   LIG    1        2.342   3.909   0.000  0.00  0.00    +0.012 A 
ATOM     23  C   LIG    1        1.148   3.167   0.008  0.00  0.00    -0.018 A 
ATOM     24  C   LIG    1        1.163   1.762   0.000  0.00  0.00    +0.008 A 
ATOM     25  C   LIG    1       -0.013   1.076   0.008  0.00  0.00    +0.001 A 
ATOM     26  C   LIG    1       -1.235   1.746   0.018  0.00  0.00    +0.001 A 
ATOM     27  C   LIG    1       -1.288   3.105   0.031  0.00  0.00    +0.008 A 
ATOM     28  C   LIG    1       -0.095   3.849   0.024  0.00  0.00    -0.014 A 
ATOM     29  C   LIG    1       -0.112   5.253   0.032  0.00  0.00    +0.054 A 
ENDBRANCH  19  20
ENDBRANCH   6  19
TORSDOF 7
