REMARK  Name = ZINC04632540
REMARK                            x       y       z     vdW  Elec       q    Type
REMARK                         _______ _______ _______ _____ _____    ______ ____
ROOT
ATOM      1  C   LIG    1        0.002  -0.004   0.002  0.00  0.00    -0.042 A 
ATOM      2  C   LIG    1        1.218  -0.665  -0.013  0.00  0.00    +0.021 A 
ATOM      3  C   LIG    1        2.389   0.101  -0.020  0.00  0.00    +0.043 A 
ATOM      4  C   LIG    1        2.285   1.492  -0.012  0.00  0.00    +0.127 A 
ATOM      5  N   LIG    1        1.104   2.075   0.003  0.00  0.00    -0.262 NA
ATOM      6  C   LIG    1       -0.017   1.379   0.010  0.00  0.00    +0.112 A 
ENDROOT
BRANCH   1  10
ATOM      7  C   LIG    1       -2.300  -0.661  -2.194  0.00  0.00    -0.095 C 
ATOM      8  N   LIG    1       -2.294  -0.105  -0.806  0.00  0.00    +0.382 N 
ATOM      9  H   LIG    1       -2.088   0.900  -0.847  0.00  0.00    -0.081 HD
ATOM     10  C   LIG    1       -1.288  -0.783   0.011  0.00  0.00    -0.037 C 
ATOM     11  C   LIG    1       -1.858  -0.838   1.440  0.00  0.00    -0.013 C 
ATOM     12  C   LIG    1       -3.252  -0.177   1.345  0.00  0.00    -0.020 C 
ATOM     13  C   LIG    1       -3.600  -0.318  -0.159  0.00  0.00    -0.078 C 
ENDBRANCH   1  10
BRANCH   3  14
ATOM     14  C   LIG    1        3.673  -0.533  -0.036  0.00  0.00    -0.068 C 
ATOM     15  C   LIG    1        4.726  -1.052  -0.050  0.00  0.00    +0.009 C 
ENDBRANCH   3  14
TORSDOF 2
