REMARK  Name = ZINC04098885
REMARK                            x       y       z     vdW  Elec       q    Type
REMARK                         _______ _______ _______ _____ _____    ______ ____
ROOT
ATOM      1  C   LIG    1        1.387   1.988  -0.005  0.00  0.00    -0.023 C 
ATOM      2  C   LIG    1        2.214   1.864  -1.026  0.00  0.00    -0.022 C 
ATOM      3  C   LIG    1        1.811   1.195  -2.325  0.00  0.00    +0.026 C 
ATOM      4  C   LIG    1        1.431  -0.257  -2.074  0.00  0.00    -0.012 C 
ATOM      5  C   LIG    1        0.107  -0.411  -1.377  0.00  0.00    -0.071 C 
ATOM      6  N   LIG    1       -0.021   0.027  -0.022  0.00  0.00    +0.386 N 
ATOM      7  H   LIG    1       -0.900  -0.327   0.374  0.00  0.00    -0.085 HD
ATOM      8  H   LIG    1        0.769  -0.324   0.532  0.00  0.00    -0.085 HD
ATOM      9  C   LIG    1       -0.890   0.558  -2.105  0.00  0.00    -0.017 C 
ATOM     10  C   LIG    1       -0.748   1.878  -1.309  0.00  0.00    -0.013 C 
ATOM     11  C   LIG    1       -0.026   1.486  -0.001  0.00  0.00    -0.037 C 
ENDROOT
BRANCH   1  13
ATOM     12  C   LIG    1        0.956   2.925   2.359  0.00  0.00    +0.091 C 
ATOM     13  C   LIG    1        1.887   2.662   1.204  0.00  0.00    +0.154 C 
ATOM     14  O   LIG    1        3.048   3.006   1.270  0.00  0.00    -0.293 OA
ENDBRANCH   1  13
TORSDOF 1
