REMARK  Name = ZINC04521332
REMARK                            x       y       z     vdW  Elec       q    Type
REMARK                         _______ _______ _______ _____ _____    ______ ____
ROOT
ATOM      1  C   LIG    1        0.917  -4.572   4.744  0.00  0.00    +0.184 C 
ATOM      2  C   LIG    1        1.191  -3.405   5.691  0.00  0.00    +0.049 C 
ATOM      3  C   LIG    1        2.562  -3.626   6.345  0.00  0.00    +0.031 C 
ATOM      4  C   LIG    1        3.596  -3.642   5.250  0.00  0.00    -0.023 C 
ATOM      5  C   LIG    1        3.296  -4.086   4.059  0.00  0.00    -0.045 C 
ATOM      6  C   LIG    1        4.313  -3.960   2.989  0.00  0.00    -0.000 C 
ATOM      7  C   LIG    1        3.957  -4.105   1.725  0.00  0.00    -0.023 C 
ATOM      8  C   LIG    1        2.561  -4.411   1.275  0.00  0.00    +0.012 C 
ATOM      9  C   LIG    1        2.253  -3.600   0.014  0.00  0.00    +0.012 C 
ATOM     10  C   LIG    1        1.532  -4.067   2.353  0.00  0.00    +0.007 C 
ATOM     11  C   LIG    1        1.978  -4.692   3.676  0.00  0.00    +0.063 C 
ENDROOT
BRANCH   1  12
ATOM     12  O   LIG    1        0.876  -5.804   5.511  0.00  0.00    -0.461 OA
BRANCH  12  13
ATOM     13  C   LIG    1       -0.307  -6.153   6.040  0.00  0.00    +0.310 C 
ATOM     14  O   LIG    1       -1.276  -5.452   5.869  0.00  0.00    -0.251 OA
BRANCH  13  15
ATOM     15  C   LIG    1       -0.426  -7.419   6.849  0.00  0.00    +0.094 C 
ATOM     16  C   LIG    1        0.511  -7.344   8.056  0.00  0.00    +0.019 C 
BRANCH  15  18
ATOM     17  C   LIG    1       -2.018  -8.926   8.047  0.00  0.00    +0.004 C 
ATOM     18  C   LIG    1       -1.868  -7.581   7.333  0.00  0.00    +0.011 C 
ENDBRANCH  15  18
ENDBRANCH  13  15
ENDBRANCH  12  13
ENDBRANCH   1  12
BRANCH  10  19
ATOM     19  C   LIG    1        1.441  -2.547   2.509  0.00  0.00    +0.008 C 
BRANCH  19  20
ATOM     20  C   LIG    1        2.847  -1.966   2.671  0.00  0.00    +0.045 C 
BRANCH  20  21
ATOM     21  C   LIG    1        2.769  -0.438   2.679  0.00  0.00    +0.179 C 
ATOM     22  C   LIG    1        4.184   0.146   2.716  0.00  0.00    +0.076 C 
ATOM     23  C   LIG    1        4.102   1.674   2.777  0.00  0.00    +0.129 C 
ATOM     24  C   LIG    1        3.337   2.082   4.042  0.00  0.00    +0.152 C 
ATOM     25  C   LIG    1        2.019   1.339   4.063  0.00  0.00    +0.310 C 
ATOM     26  O   LIG    1        0.980   1.923   4.261  0.00  0.00    -0.251 OA
ATOM     27  O   LIG    1        2.038   0.006   3.856  0.00  0.00    -0.461 OA
BRANCH  23  28
ATOM     28  O   LIG    1        3.413   2.162   1.623  0.00  0.00    -0.391 OA
ATOM     29  H   LIG    1        3.324   3.124   1.597  0.00  0.00    +0.210 HD
ENDBRANCH  23  28
ENDBRANCH  20  21
ENDBRANCH  19  20
ENDBRANCH  10  19
TORSDOF 8
