REMARK  Name = ZINC04764850
REMARK                            x       y       z     vdW  Elec       q    Type
REMARK                         _______ _______ _______ _____ _____    ______ ____
ROOT
ATOM      1  N   LIG    1       -0.011   0.017  -2.413  0.00  0.00    -0.220 N 
ATOM      2  H   LIG    1       -0.024   0.986  -2.399  0.00  0.00    +0.176 HD
ENDROOT
BRANCH   1   5
ATOM      3  C   LIG    1       -0.018   1.503   0.010  0.00  0.00    +0.069 C 
ATOM      4  C   LIG    1        0.002  -0.004   0.002  0.00  0.00    +0.080 A 
ATOM      5  C   LIG    1        0.006  -0.694  -1.224  0.00  0.00    +0.160 A 
ATOM      6  N   LIG    1        0.024  -2.014  -1.249  0.00  0.00    -0.227 NA
ATOM      7  C   LIG    1        0.039  -2.698  -0.099  0.00  0.00    +0.091 A 
ATOM      8  C   LIG    1        0.059  -4.104  -0.093  0.00  0.00    +0.030 A 
ATOM      9  C   LIG    1        0.075  -4.773   1.092  0.00  0.00    +0.002 A 
ATOM     10  C   LIG    1        0.071  -4.086   2.304  0.00  0.00    +0.002 A 
ATOM     11  C   LIG    1        0.051  -2.725   2.336  0.00  0.00    +0.030 A 
ATOM     12  C   LIG    1        0.035  -1.999   1.133  0.00  0.00    +0.090 A 
ATOM     13  N   LIG    1        0.022  -0.659   1.137  0.00  0.00    -0.247 NA
ENDBRANCH   1   5
BRANCH   1  14
ATOM     14  N   LIG    1       -0.007  -0.666  -3.637  0.00  0.00    -0.189 NA
ATOM     15  C   LIG    1       -0.022   0.000  -4.751  0.00  0.00    +0.138 C 
BRANCH  15  16
ATOM     16  C   LIG    1       -0.018  -0.718  -6.039  0.00  0.00    -0.005 A 
ATOM     17  C   LIG    1       -0.004  -2.115  -6.062  0.00  0.00    +0.013 A 
ATOM     18  C   LIG    1       -0.001  -2.782  -7.269  0.00  0.00    +0.046 A 
ATOM     19  C   LIG    1       -0.011  -2.067  -8.460  0.00  0.00    +0.117 A 
ATOM     20  C   LIG    1       -0.024  -0.679  -8.441  0.00  0.00    +0.046 A 
ATOM     21  C   LIG    1       -0.035  -0.003  -7.240  0.00  0.00    +0.013 A 
BRANCH  19  22
ATOM     22  O   LIG    1       -0.007  -2.729  -9.646  0.00  0.00    -0.507 OA
ATOM     23  H   LIG    1       -0.889  -2.929  -9.988  0.00  0.00    +0.292 HD
ENDBRANCH  19  22
ENDBRANCH  15  16
ENDBRANCH   1  14
TORSDOF 4
