REMARK  Name = ZINC04424121
REMARK                            x       y       z     vdW  Elec       q    Type
REMARK                         _______ _______ _______ _____ _____    ______ ____
ROOT
ATOM      1  C   LIG    1       -0.786   1.622   4.084  0.00  0.00    +0.129 A 
ATOM      2  C   LIG    1       -0.456   1.390   5.407  0.00  0.00    +0.085 A 
ATOM      3  N   LIG    1       -1.225   1.925   6.319  0.00  0.00    -0.194 NA
ATOM      4  S   LIG    1       -2.346   2.693   5.522  0.00  0.00    +0.117 S 
ATOM      5  N   LIG    1       -1.867   2.364   3.918  0.00  0.00    -0.184 NA
ENDROOT
BRANCH   2   6
ATOM      6  C   LIG    1        0.744   0.559   5.781  0.00  0.00    +0.026 C 
ATOM      7  C   LIG    1        1.699   1.370   6.678  0.00  0.00    -0.069 C 
ATOM      8  N   LIG    1        1.781   0.613   7.933  0.00  0.00    +0.380 N 
ATOM      9  H   LIG    1        1.927   1.250   8.724  0.00  0.00    -0.082 HD
ATOM     10  C   LIG    1        0.521  -0.113   8.091  0.00  0.00    -0.075 C 
ATOM     11  C   LIG    1        2.897  -0.357   7.855  0.00  0.00    -0.079 C 
ATOM     12  C   LIG    1        2.759  -1.123   6.538  0.00  0.00    -0.018 C 
ATOM     13  C   LIG    1        1.355  -1.762   6.422  0.00  0.00    +0.000 C 
ATOM     14  C   LIG    1        0.314  -0.650   6.649  0.00  0.00    -0.020 C 
ENDBRANCH   2   6
BRANCH   1  15
ATOM     15  S   LIG    1        0.148   0.978   2.736  0.00  0.00    -0.103 S 
BRANCH  15  16
ATOM     16  C   LIG    1       -0.729   1.579   1.267  0.00  0.00    +0.076 C 
BRANCH  16  18
ATOM     17  C   LIG    1       -0.753   1.593  -1.232  0.00  0.00    +0.004 C 
ATOM     18  C   LIG    1       -0.013   1.086   0.008  0.00  0.00    +0.008 C 
ENDBRANCH  16  18
ENDBRANCH  15  16
ENDBRANCH   1  15
TORSDOF 4
