REMARK  Name = ZINC04671767
REMARK                            x       y       z     vdW  Elec       q    Type
REMARK                         _______ _______ _______ _____ _____    ______ ____
ROOT
ATOM      1  C   LIG    1       -1.425   3.079  -1.073  0.00  0.00    +0.220 C 
ATOM      2  N   LIG    1       -1.297   1.917  -0.403  0.00  0.00    -0.268 N 
ATOM      3  C   LIG    1       -0.071   1.238  -0.382  0.00  0.00    +0.041 A 
ATOM      4  C   LIG    1        1.075   1.896  -0.813  0.00  0.00    +0.024 A 
ATOM      5  C   LIG    1        2.291   1.242  -0.808  0.00  0.00    +0.002 A 
ATOM      6  C   LIG    1        2.366  -0.069  -0.374  0.00  0.00    +0.000 A 
ATOM      7  C   LIG    1        1.229  -0.724   0.056  0.00  0.00    +0.007 A 
ATOM      8  C   LIG    1        0.006  -0.075   0.056  0.00  0.00    -0.005 A 
ATOM      9  C   LIG    1       -1.212  -0.816   0.540  0.00  0.00    +0.115 C 
ATOM     10  C   LIG    1       -2.485  -0.159   0.006  0.00  0.00    +0.050 C 
ATOM     11  C   LIG    1       -2.439   1.341   0.321  0.00  0.00    +0.081 C 
ATOM     12  C   LIG    1       -3.736   2.008  -0.143  0.00  0.00    +0.028 C 
ATOM     13  O   LIG    1       -0.555   3.437  -1.837  0.00  0.00    -0.275 OA
ENDROOT
BRANCH   9  14
ATOM     14  N   LIG    1       -1.151  -2.203   0.073  0.00  0.00    -0.264 N 
ATOM     15  C   LIG    1       -1.136  -2.470  -1.248  0.00  0.00    +0.217 C 
ATOM     16  C   LIG    1       -1.174  -3.897  -1.729  0.00  0.00    +0.109 C 
ATOM     17  O   LIG    1       -1.091  -1.560  -2.049  0.00  0.00    -0.276 OA
BRANCH  14  18
ATOM     18  C   LIG    1       -1.110  -3.251   0.999  0.00  0.00    +0.037 A 
ATOM     19  C   LIG    1        0.028  -4.041   1.105  0.00  0.00    +0.023 A 
ATOM     20  C   LIG    1        0.068  -5.072   2.024  0.00  0.00    +0.002 A 
ATOM     21  C   LIG    1       -1.026  -5.324   2.830  0.00  0.00    +0.000 A 
ATOM     22  C   LIG    1       -2.163  -4.543   2.723  0.00  0.00    +0.002 A 
ATOM     23  C   LIG    1       -2.207  -3.508   1.810  0.00  0.00    +0.023 A 
ENDBRANCH  14  18
ENDBRANCH   9  14
BRANCH   1  24
ATOM     24  C   LIG    1       -2.651   3.933  -0.874  0.00  0.00    +0.096 C 
BRANCH  24  25
ATOM     25  C   LIG    1       -2.445   5.288  -1.554  0.00  0.00    +0.009 C 
BRANCH  25  27
ATOM     26  C   LIG    1       -3.483   7.509  -2.031  0.00  0.00    +0.004 C 
ATOM     27  C   LIG    1       -3.689   6.155  -1.351  0.00  0.00    -0.003 C 
ENDBRANCH  25  27
ENDBRANCH  24  25
ENDBRANCH   1  24
TORSDOF 5
