REMARK  Name = ZINC04099030
REMARK                            x       y       z     vdW  Elec       q    Type
REMARK                         _______ _______ _______ _____ _____    ______ ____
ROOT
ATOM      1  C   LIG    1        1.229  -2.186  -0.022  0.00  0.00    +0.145 C 
ENDROOT
BRANCH   1   7
ATOM      2  C   LIG    1        2.934   0.075  -2.518  0.00  0.00    +0.000 A 
ATOM      3  C   LIG    1        2.074   1.158  -2.544  0.00  0.00    +0.001 A 
ATOM      4  C   LIG    1        0.941   1.159  -1.753  0.00  0.00    +0.020 A 
ATOM      5  C   LIG    1        0.666   0.076  -0.936  0.00  0.00    +0.048 A 
ATOM      6 CL   LIG    1       -0.758   0.077   0.057  0.00  0.00    -0.083 Cl
ATOM      7  C   LIG    1        1.527  -1.007  -0.911  0.00  0.00    +0.011 A 
ATOM      8  C   LIG    1        2.661  -1.006  -1.702  0.00  0.00    +0.008 A 
ENDBRANCH   1   7
BRANCH   1   9
ATOM      9  C   LIG    1        0.580  -3.277  -0.834  0.00  0.00    -0.007 A 
ATOM     10  C   LIG    1        1.269  -3.862  -1.880  0.00  0.00    +0.008 A 
ATOM     11  C   LIG    1        0.675  -4.863  -2.626  0.00  0.00    +0.020 A 
ATOM     12  C   LIG    1       -0.610  -5.279  -2.325  0.00  0.00    +0.041 A 
ATOM     13 CL   LIG    1       -1.357  -6.535  -3.261  0.00  0.00    -0.084 Cl
ATOM     14  C   LIG    1       -1.299  -4.693  -1.278  0.00  0.00    +0.020 A 
ATOM     15  C   LIG    1       -0.702  -3.696  -0.530  0.00  0.00    +0.008 A 
ENDBRANCH   1   9
BRANCH   1  16
ATOM     16  C   LIG    1        2.512  -2.701   0.577  0.00  0.00    +0.029 A 
ATOM     17  C   LIG    1        3.380  -1.846   1.238  0.00  0.00    +0.121 A 
ATOM     18  N   LIG    1        4.498  -2.334   1.751  0.00  0.00    -0.243 NA
ATOM     19  C   LIG    1        4.790  -3.614   1.639  0.00  0.00    +0.221 A 
ATOM     20  N   LIG    1        3.989  -4.456   1.017  0.00  0.00    -0.243 NA
ATOM     21  C   LIG    1        2.851  -4.042   0.484  0.00  0.00    +0.121 A 
ENDBRANCH   1  16
BRANCH   1  22
ATOM     22  O   LIG    1        0.344  -1.782   1.025  0.00  0.00    -0.375 OA
ATOM     23  H   LIG    1       -0.588  -1.761   0.766  0.00  0.00    +0.211 HD
ENDBRANCH   1  22
TORSDOF 4
