REMARK  Name = ZINC04117526
REMARK                            x       y       z     vdW  Elec       q    Type
REMARK                         _______ _______ _______ _____ _____    ______ ____
ROOT
ATOM      1  C   LIG    1        5.501   2.683   1.644  0.00  0.00    +0.060 A 
ATOM      2  C   LIG    1        6.333   3.022   0.586  0.00  0.00    +0.048 A 
ATOM      3  C   LIG    1        7.395   3.890   0.794  0.00  0.00    +0.031 A 
ATOM      4  C   LIG    1        7.623   4.417   2.059  0.00  0.00    +0.025 A 
ATOM      5  C   LIG    1        6.794   4.077   3.110  0.00  0.00    +0.036 A 
ATOM      6  C   LIG    1        5.731   3.217   2.905  0.00  0.00    +0.142 A 
ENDROOT
BRANCH   3   7
ATOM      7  N   LIG    1        8.235   4.234  -0.268  0.00  0.00    -0.333 N 
ATOM      8  C   LIG    1        7.939   3.794  -1.640  0.00  0.00    +0.086 C 
ATOM      9  C   LIG    1        8.005   5.013  -2.566  0.00  0.00    -0.063 C 
ATOM     10  N   LIG    1        9.306   5.676  -2.410  0.00  0.00    +0.381 N 
ATOM     11  H   LIG    1        9.378   6.433  -3.073  0.00  0.00    -0.086 HD
ATOM     12  H   LIG    1       10.044   5.009  -2.582  0.00  0.00    -0.086 HD
ATOM     13  C   LIG    1        9.436   6.207  -1.047  0.00  0.00    -0.063 C 
ATOM     14  C   LIG    1        9.438   5.052  -0.047  0.00  0.00    +0.086 C 
ENDBRANCH   3   7
BRANCH   1  15
ATOM     15  N   LIG    1        4.431   1.809   1.439  0.00  0.00    -0.338 N 
ATOM     16  H   LIG    1        3.901   1.506   2.193  0.00  0.00    +0.146 HD
BRANCH  15  17
ATOM     17  C   LIG    1        4.107   1.352   0.085  0.00  0.00    +0.138 C 
BRANCH  17  20
ATOM     18  C   LIG    1        0.571   0.036   0.078  0.00  0.00    +0.020 A 
ATOM     19  C   LIG    1        1.633   0.926   0.023  0.00  0.00    +0.008 A 
ATOM     20  C   LIG    1        2.920   0.425   0.139  0.00  0.00    -0.012 A 
ATOM     21  C   LIG    1        3.101  -0.935   0.302  0.00  0.00    +0.115 A 
ATOM     22  N   LIG    1        2.067  -1.753   0.349  0.00  0.00    -0.263 NA
ATOM     23  C   LIG    1        0.829  -1.311   0.243  0.00  0.00    +0.111 A 
ENDBRANCH  17  20
ENDBRANCH  15  17
ENDBRANCH   1  15
BRANCH   6  24
ATOM     24  N   LIG    1        4.841   2.861   4.033  0.00  0.00    +0.008 N 
ATOM     25  O   LIG    1        3.653   2.730   3.847  0.00  0.00    -0.130 OA
BRANCH  24  26
ATOM     26  O   LIG    1        5.301   2.701   5.139  0.00  0.00    -0.396 OA
ATOM     27  H   LIG    1        6.221   2.803   5.283  0.00  0.00    +0.329 HD
ENDBRANCH  24  26
ENDBRANCH   6  24
TORSDOF 6
