REMARK  Name = ZINC04252581
REMARK                            x       y       z     vdW  Elec       q    Type
REMARK                         _______ _______ _______ _____ _____    ______ ____
ROOT
ATOM      1  C   LIG    1        1.188   3.565   0.009  0.00  0.00    +0.015 C 
ATOM      2  C   LIG    1        2.356   4.246   0.002  0.00  0.00    +0.052 C 
ENDROOT
BRANCH   1   7
ATOM      3  C   LIG    1        0.002  -0.004   0.002  0.00  0.00    +0.162 A 
ATOM      4  C   LIG    1        1.211  -0.681  -0.013  0.00  0.00    +0.049 A 
ATOM      5  C   LIG    1        2.406   0.020  -0.020  0.00  0.00    +0.004 A 
ATOM      6  C   LIG    1        2.406   1.397  -0.013  0.00  0.00    +0.012 A 
ATOM      7  C   LIG    1        1.193   2.096   0.002  0.00  0.00    +0.020 A 
ATOM      8  C   LIG    1       -0.017   1.386   0.010  0.00  0.00    +0.169 A 
BRANCH   3  10
ATOM      9  C   LIG    1       -1.073  -2.126   0.001  0.00  0.00    +0.277 C 
ATOM     10  O   LIG    1       -1.167  -0.700   0.010  0.00  0.00    -0.491 OA
ENDBRANCH   3  10
BRANCH   8  11
ATOM     11  O   LIG    1       -1.200   2.053   0.019  0.00  0.00    -0.491 OA
ATOM     12  C   LIG    1       -1.759   2.364   1.296  0.00  0.00    +0.277 C 
ENDBRANCH   8  11
ENDBRANCH   1   7
BRANCH   2  13
ATOM     13  C   LIG    1        2.351   5.707   0.009  0.00  0.00    +0.190 C 
ATOM     14  O   LIG    1        1.294   6.311   0.022  0.00  0.00    -0.287 OA
BRANCH  13  15
ATOM     15  C   LIG    1        3.626   6.450   0.001  0.00  0.00    +0.063 A 
ATOM     16  C   LIG    1        4.841   5.760  -0.014  0.00  0.00    +0.015 A 
ATOM     17  C   LIG    1        6.028   6.459  -0.021  0.00  0.00    +0.001 A 
ATOM     18  C   LIG    1        6.024   7.845  -0.014  0.00  0.00    +0.004 A 
ATOM     19  C   LIG    1        4.830   8.539   0.001  0.00  0.00    +0.046 A 
ATOM     20  C   LIG    1        3.626   7.852   0.002  0.00  0.00    +0.128 A 
BRANCH  20  21
ATOM     21  O   LIG    1        2.452   8.532   0.011  0.00  0.00    -0.506 OA
ATOM     22  H   LIG    1        2.118   8.729   0.897  0.00  0.00    +0.292 HD
ENDBRANCH  20  21
ENDBRANCH  13  15
ENDBRANCH   2  13
TORSDOF 6
