REMARK  Name = ZINC04709910
REMARK                            x       y       z     vdW  Elec       q    Type
REMARK                         _______ _______ _______ _____ _____    ______ ____
ROOT
ATOM      1  N   LIG    1        0.002  -0.004   0.002  0.00  0.00    -0.280 N 
ATOM      2  H   LIG    1        0.852  -0.470   0.037  0.00  0.00    +0.155 HD
ATOM      3  C   LIG    1       -0.026   1.334  -0.156  0.00  0.00    +0.269 C 
ATOM      4  O   LIG    1       -1.089   1.907  -0.298  0.00  0.00    -0.268 OA
ENDROOT
BRANCH   1   9
ATOM      5  C   LIG    1       -2.465  -2.715  -0.278  0.00  0.00    +0.002 A 
ATOM      6  C   LIG    1       -3.560  -2.138   0.340  0.00  0.00    +0.012 A 
ATOM      7  C   LIG    1       -3.474  -0.854   0.846  0.00  0.00    +0.057 A 
ATOM      8  C   LIG    1       -2.293  -0.145   0.740  0.00  0.00    +0.035 A 
ATOM      9  C   LIG    1       -1.194  -0.720   0.115  0.00  0.00    +0.034 A 
ATOM     10  C   LIG    1       -1.283  -2.010  -0.392  0.00  0.00    +0.023 A 
BRANCH   7  11
ATOM     11  C   LIG    1       -4.669  -0.229   1.519  0.00  0.00    +0.417 C 
ATOM     12  F   LIG    1       -5.037   0.933   0.831  0.00  0.00    -0.166 F 
ATOM     13  F   LIG    1       -4.343   0.095   2.840  0.00  0.00    -0.166 F 
ATOM     14  F   LIG    1       -5.735  -1.134   1.510  0.00  0.00    -0.166 F 
ENDBRANCH   7  11
ENDBRANCH   1   9
BRANCH   3  15
ATOM     15  C   LIG    1        1.232   2.102  -0.161  0.00  0.00    +0.155 A 
ATOM     16  C   LIG    1        1.232   3.490  -0.328  0.00  0.00    +0.067 A 
ATOM     17  C   LIG    1        2.482   4.032  -0.302  0.00  0.00    +0.090 A 
ATOM     18  S   LIG    1        3.484   2.642  -0.074  0.00  0.00    +0.006 S 
ATOM     19  N   LIG    1        2.396   1.505  -0.015  0.00  0.00    -0.204 NA
BRANCH  16  20
ATOM     20  N   LIG    1        0.064   4.248  -0.500  0.00  0.00    -0.337 N 
ATOM     21  H   LIG    1       -0.801   3.810  -0.507  0.00  0.00    +0.146 HD
BRANCH  20  22
ATOM     22  C   LIG    1        0.152   5.700  -0.669  0.00  0.00    +0.137 C 
BRANCH  22  23
ATOM     23  C   LIG    1       -1.233   6.271  -0.833  0.00  0.00    -0.028 A 
ATOM     24  C   LIG    1       -1.802   6.404  -2.091  0.00  0.00    +0.025 A 
ATOM     25  C   LIG    1       -3.076   6.928  -2.202  0.00  0.00    +0.111 A 
ATOM     26  N   LIG    1       -3.744   7.309  -1.131  0.00  0.00    -0.263 NA
ATOM     27  C   LIG    1       -3.233   7.202   0.080  0.00  0.00    +0.111 A 
ATOM     28  C   LIG    1       -1.967   6.682   0.269  0.00  0.00    +0.025 A 
ENDBRANCH  22  23
ENDBRANCH  20  22
ENDBRANCH  16  20
ENDBRANCH   3  15
TORSDOF 6
