REMARK  Name = ZINC04178068
REMARK                            x       y       z     vdW  Elec       q    Type
REMARK                         _______ _______ _______ _____ _____    ______ ____
ROOT
ATOM      1  N   LIG    1        4.915  -2.655  -0.058  0.00  0.00    -0.210 N 
ATOM      2  C   LIG    1        6.088  -2.020  -0.158  0.00  0.00    +0.231 C 
ATOM      3  C   LIG    1        7.212  -3.031  -0.144  0.00  0.00    +0.095 C 
ATOM      4  C   LIG    1        7.983  -2.887   1.205  0.00  0.00    +0.025 C 
ATOM      5  C   LIG    1        8.381  -4.385   1.469  0.00  0.00    +0.016 C 
ATOM      6  C   LIG    1        6.891  -4.884   1.425  0.00  0.00    +0.025 C 
ATOM      7  C   LIG    1        6.248  -3.872   2.381  0.00  0.00    -0.027 C 
ATOM      8  C   LIG    1        6.878  -2.699   2.251  0.00  0.00    -0.027 C 
ATOM      9  C   LIG    1        6.465  -4.392  -0.016  0.00  0.00    +0.095 C 
ATOM     10  O   LIG    1        6.228  -0.819  -0.246  0.00  0.00    -0.274 OA
ATOM     11  C   LIG    1        5.010  -3.986   0.033  0.00  0.00    +0.231 C 
ATOM     12  O   LIG    1        4.074  -4.749   0.136  0.00  0.00    -0.274 OA
ENDROOT
BRANCH   1  18
ATOM     13  C   LIG    1       -0.722   0.047   1.099  0.00  0.00    +0.001 A 
ATOM     14  C   LIG    1       -0.288  -0.611   2.248  0.00  0.00    +0.001 A 
ATOM     15  C   LIG    1        0.899  -1.276   2.268  0.00  0.00    +0.008 A 
ATOM     16  C   LIG    1        1.702  -1.301   1.114  0.00  0.00    -0.016 A 
ATOM     17  C   LIG    1        2.933  -1.977   1.097  0.00  0.00    +0.032 A 
ATOM     18  C   LIG    1        3.687  -1.980  -0.043  0.00  0.00    +0.044 A 
ATOM     19  C   LIG    1        3.248  -1.318  -1.195  0.00  0.00    +0.024 A 
ATOM     20  C   LIG    1        2.062  -0.654  -1.210  0.00  0.00    +0.010 A 
ATOM     21  C   LIG    1        1.260  -0.631  -0.055  0.00  0.00    -0.018 A 
ATOM     22  C   LIG    1        0.028   0.045  -0.037  0.00  0.00    +0.008 A 
ENDBRANCH   1  18
TORSDOF 1
