REMARK  Name = ZINC04097803
REMARK                            x       y       z     vdW  Elec       q    Type
REMARK                         _______ _______ _______ _____ _____    ______ ____
ROOT
ATOM      1  C   LIG    1        1.308   1.944  -0.631  0.00  0.00    +0.012 C 
ATOM      2  C   LIG    1        0.591   0.592  -0.472  0.00  0.00    -0.019 C 
ATOM      3  C   LIG    1        1.322  -0.424  -1.371  0.00  0.00    +0.039 C 
ATOM      4  C   LIG    1        2.611  -0.753  -0.571  0.00  0.00    +0.122 C 
ATOM      5  C   LIG    1        2.405  -0.196   0.861  0.00  0.00    +0.063 C 
ATOM      6  C   LIG    1       -0.884   0.748  -0.760  0.00  0.00    +0.013 C 
ATOM      7  C   LIG    1       -1.055   1.696  -1.954  0.00  0.00    +0.032 C 
ATOM      8  C   LIG    1       -2.527   1.829  -2.276  0.00  0.00    -0.026 C 
ATOM      9  C   LIG    1       -3.344   2.075  -1.282  0.00  0.00    -0.052 C 
ATOM     10  C   LIG    1       -2.769   2.247   0.087  0.00  0.00    +0.055 C 
ATOM     11  C   LIG    1       -3.796   2.308   1.171  0.00  0.00    +0.031 C 
ATOM     12  C   LIG    1       -5.083   2.033   0.983  0.00  0.00    +0.157 C 
ATOM     13  C   LIG    1       -5.585   1.690  -0.349  0.00  0.00    +0.206 C 
ATOM     14  O   LIG    1       -6.594   1.035  -0.500  0.00  0.00    -0.288 OA
ATOM     15  C   LIG    1       -4.824   2.219  -1.549  0.00  0.00    +0.052 C 
ATOM     16  C   LIG    1       -5.168   3.704  -1.750  0.00  0.00    +0.024 C 
ATOM     17  C   LIG    1       -5.252   1.430  -2.793  0.00  0.00    +0.024 C 
ATOM     18  C   LIG    1       -1.674   1.250   0.430  0.00  0.00    +0.040 C 
ATOM     19  C   LIG    1       -2.458   0.058   1.000  0.00  0.00    +0.020 C 
ATOM     20  C   LIG    1       -0.794   1.772   1.533  0.00  0.00    +0.141 C 
ATOM     21  O   LIG    1       -1.080   2.832   2.077  0.00  0.00    -0.297 OA
ATOM     22  C   LIG    1        0.445   1.021   1.989  0.00  0.00    +0.082 C 
ATOM     23  C   LIG    1        0.877   0.032   0.933  0.00  0.00    -0.011 C 
ATOM     24  C   LIG    1        0.256  -1.349   1.147  0.00  0.00    +0.012 C 
ENDROOT
BRANCH   4  25
ATOM     25  O   LIG    1        3.741  -0.128  -1.178  0.00  0.00    -0.391 OA
ATOM     26  H   LIG    1        3.915  -0.421  -2.083  0.00  0.00    +0.210 HD
ENDBRANCH   4  25
BRANCH   5  27
ATOM     27  C   LIG    1        2.812  -1.246   1.899  0.00  0.00    +0.130 C 
ATOM     28  C   LIG    1        2.431  -0.756   3.298  0.00  0.00    +0.050 C 
BRANCH  27  29
ATOM     29  O   LIG    1        2.136  -2.475   1.625  0.00  0.00    -0.381 OA
ATOM     30  H   LIG    1        2.366  -2.868   0.771  0.00  0.00    +0.211 HD
ENDBRANCH  27  29
BRANCH  27  31
ATOM     31  C   LIG    1        4.302  -1.467   1.834  0.00  0.00    +0.187 C 
ATOM     32  O   LIG    1        5.035  -0.561   1.495  0.00  0.00    -0.290 OA
BRANCH  31  33
ATOM     33  C   LIG    1        4.864  -2.772   2.179  0.00  0.00    +0.048 C 
ATOM     34  C   LIG    1        6.183  -2.968   2.120  0.00  0.00    +0.010 C 
BRANCH  34  35
ATOM     35  C   LIG    1        6.761  -4.313   2.475  0.00  0.00    +0.079 C 
ATOM     36  C   LIG    1        7.726  -4.158   3.653  0.00  0.00    +0.045 C 
ATOM     37  C   LIG    1        7.515  -4.878   1.270  0.00  0.00    +0.045 C 
BRANCH  35  38
ATOM     38  O   LIG    1        5.706  -5.205   2.839  0.00  0.00    -0.385 OA
ATOM     39  H   LIG    1        5.055  -5.350   2.138  0.00  0.00    +0.211 HD
ENDBRANCH  35  38
ENDBRANCH  34  35
ENDBRANCH  31  33
ENDBRANCH  27  31
ENDBRANCH   5  27
BRANCH  12  40
ATOM     40  O   LIG    1       -5.939   2.069   2.039  0.00  0.00    -0.504 OA
ATOM     41  H   LIG    1       -6.854   1.856   1.811  0.00  0.00    +0.292 HD
ENDBRANCH  12  40
TORSDOF 8
