REMARK  Name = ZINC04262461
REMARK                            x       y       z     vdW  Elec       q    Type
REMARK                         _______ _______ _______ _____ _____    ______ ____
ROOT
ATOM      1  C   LIG    1        0.075   0.978  -0.266  0.00  0.00    +0.169 C 
ENDROOT
BRANCH   1   2
ATOM      2  C   LIG    1       -0.498   1.345  -1.610  0.00  0.00    +0.235 C 
ATOM      3  N   LIG    1       -1.631   0.758  -2.043  0.00  0.00    -0.297 N 
ATOM      4  C   LIG    1       -2.321  -0.249  -1.222  0.00  0.00    +0.126 C 
ATOM      5  C   LIG    1       -3.800   0.152  -1.107  0.00  0.00    +0.124 C 
ATOM      6  N   LIG    1       -4.356   0.342  -2.453  0.00  0.00    -0.327 N 
ATOM      7  C   LIG    1       -3.689   1.446  -3.155  0.00  0.00    +0.124 C 
ATOM      8  C   LIG    1       -2.208   1.102  -3.351  0.00  0.00    +0.126 C 
ATOM      9  O   LIG    1        0.059   2.170  -2.302  0.00  0.00    -0.274 OA
BRANCH   6  10
ATOM     10  C   LIG    1       -5.737   0.544  -2.400  0.00  0.00    +0.030 A 
ATOM     11  C   LIG    1       -6.296   1.683  -2.966  0.00  0.00    +0.023 A 
ATOM     12  C   LIG    1       -7.662   1.878  -2.916  0.00  0.00    +0.002 A 
ATOM     13  C   LIG    1       -8.473   0.946  -2.294  0.00  0.00    +0.000 A 
ATOM     14  C   LIG    1       -7.919  -0.186  -1.725  0.00  0.00    +0.002 A 
ATOM     15  C   LIG    1       -6.554  -0.390  -1.776  0.00  0.00    +0.023 A 
ENDBRANCH   6  10
ENDBRANCH   1   2
BRANCH   1  17
ATOM     16  C   LIG    1        1.878   2.763  -0.306  0.00  0.00    +0.132 C 
ATOM     17  N   LIG    1        1.491   1.352  -0.220  0.00  0.00    -0.167 NA
BRANCH  17  18
ATOM     18  S   LIG    1        2.653   0.182  -0.071  0.00  0.00    +0.062 S 
ATOM     19  O   LIG    1        2.005  -0.970   0.449  0.00  0.00    -0.153 OA
ATOM     20  O   LIG    1        3.761   0.790   0.577  0.00  0.00    -0.153 OA
BRANCH  18  21
ATOM     21  C   LIG    1        3.187  -0.232  -1.699  0.00  0.00    +0.113 A 
ATOM     22  C   LIG    1        2.870   0.573  -2.751  0.00  0.00    +0.029 A 
ATOM     23  C   LIG    1        3.284   0.261  -4.044  0.00  0.00    +0.003 A 
ATOM     24  C   LIG    1        4.018  -0.858  -4.297  0.00  0.00    +0.010 A 
ATOM     25  C   LIG    1        4.364  -1.712  -3.238  0.00  0.00    +0.002 A 
ATOM     26  C   LIG    1        5.118  -2.879  -3.437  0.00  0.00    +0.119 A 
ATOM     27  N   LIG    1        5.417  -3.647  -2.415  0.00  0.00    -0.263 NA
ATOM     28  C   LIG    1        5.036  -3.372  -1.175  0.00  0.00    +0.111 A 
ATOM     29  C   LIG    1        4.302  -2.264  -0.877  0.00  0.00    +0.030 A 
ATOM     30  C   LIG    1        3.946  -1.390  -1.920  0.00  0.00    +0.011 A 
ENDBRANCH  18  21
ENDBRANCH  17  18
ENDBRANCH   1  17
BRANCH   1  31
ATOM     31  C   LIG    1       -0.685   1.721   0.834  0.00  0.00    +0.065 C 
BRANCH  31  32
ATOM     32  C   LIG    1       -0.194   1.261   2.183  0.00  0.00    -0.045 A 
ATOM     33  C   LIG    1       -0.805   0.192   2.811  0.00  0.00    +0.007 A 
ATOM     34  C   LIG    1       -0.353  -0.235   4.045  0.00  0.00    +0.049 A 
ATOM     35  C   LIG    1        0.707   0.417   4.658  0.00  0.00    +0.157 A 
ATOM     36  C   LIG    1        1.313   1.494   4.028  0.00  0.00    +0.049 A 
ATOM     37  C   LIG    1        0.862   1.913   2.792  0.00  0.00    +0.007 A 
BRANCH  35  38
ATOM     38  O   LIG    1        1.149   0.002   5.874  0.00  0.00    -0.342 OA
BRANCH  38  39
ATOM     39  S   LIG    1        0.458   0.680   7.049  0.00  0.00    +0.152 S 
ATOM     40  O   LIG    1        0.274   2.040   6.682  0.00  0.00    -0.131 OA
ATOM     41  O   LIG    1        1.171   0.295   8.216  0.00  0.00    -0.131 OA
BRANCH  39  42
ATOM     42  C   LIG    1       -1.150  -0.027   7.186  0.00  0.00    +0.136 A 
ATOM     43  C   LIG    1       -2.227   0.608   6.643  0.00  0.00    +0.031 A 
ATOM     44  C   LIG    1       -3.505   0.061   6.737  0.00  0.00    +0.003 A 
ATOM     45  C   LIG    1       -3.719  -1.119   7.383  0.00  0.00    +0.010 A 
ATOM     46  C   LIG    1       -2.635  -1.798   7.960  0.00  0.00    +0.002 A 
ATOM     47  C   LIG    1       -2.794  -3.018   8.637  0.00  0.00    +0.119 A 
ATOM     48  N   LIG    1       -1.749  -3.617   9.159  0.00  0.00    -0.263 NA
ATOM     49  C   LIG    1       -0.522  -3.120   9.080  0.00  0.00    +0.111 A 
ATOM     50  C   LIG    1       -0.263  -1.944   8.444  0.00  0.00    +0.030 A 
ATOM     51  C   LIG    1       -1.332  -1.243   7.859  0.00  0.00    +0.013 A 
ENDBRANCH  39  42
ENDBRANCH  38  39
ENDBRANCH  35  38
ENDBRANCH  31  32
ENDBRANCH   1  31
TORSDOF 10
