REMARK  Name = ZINC04474696
REMARK                            x       y       z     vdW  Elec       q    Type
REMARK                         _______ _______ _______ _____ _____    ______ ____
ROOT
ATOM      1  C   LIG    1        8.688  -4.078   2.168  0.00  0.00    -0.027 C 
ATOM      2  C   LIG    1        9.492  -4.781   1.410  0.00  0.00    -0.027 C 
ENDROOT
BRANCH   1   3
ATOM      3  C   LIG    1        7.247  -4.491   2.325  0.00  0.00    +0.053 C 
BRANCH   3   5
ATOM      4  C   LIG    1        5.890  -3.960   4.284  0.00  0.00    -0.027 C 
ATOM      5  C   LIG    1        6.914  -4.609   3.790  0.00  0.00    -0.027 C 
BRANCH   4   6
ATOM      6  C   LIG    1        4.948  -3.227   3.364  0.00  0.00    +0.053 C 
BRANCH   6   8
ATOM      7  C   LIG    1        2.614  -2.757   3.908  0.00  0.00    -0.031 C 
ATOM      8  C   LIG    1        3.532  -3.656   3.649  0.00  0.00    -0.027 C 
BRANCH   7   9
ATOM      9  C   LIG    1        2.932  -1.292   3.759  0.00  0.00    +0.027 C 
BRANCH   9  10
ATOM     10  C   LIG    1        1.878  -0.629   2.870  0.00  0.00    +0.004 C 
BRANCH  10  11
ATOM     11  C   LIG    1        2.201   0.859   2.719  0.00  0.00    +0.000 C 
BRANCH  11  13
ATOM     12  C   LIG    1        1.470   3.010   1.679  0.00  0.00    +0.004 C 
ATOM     13  C   LIG    1        1.147   1.522   1.830  0.00  0.00    -0.003 C 
ENDBRANCH  11  13
ENDBRANCH  10  11
ENDBRANCH   9  10
ENDBRANCH   7   9
ENDBRANCH   6   8
ENDBRANCH   4   6
ENDBRANCH   3   5
ENDBRANCH   1   3
BRANCH   2  14
ATOM     14  C   LIG    1        8.942  -5.895   0.558  0.00  0.00    +0.053 C 
BRANCH  14  15
ATOM     15  C   LIG    1        9.378  -5.697  -0.871  0.00  0.00    -0.027 C 
ATOM     16  C   LIG    1        9.989  -6.663  -1.510  0.00  0.00    -0.031 C 
BRANCH  16  17
ATOM     17  C   LIG    1       10.111  -8.026  -0.877  0.00  0.00    +0.027 C 
BRANCH  17  18
ATOM     18  C   LIG    1        9.595  -9.088  -1.850  0.00  0.00    +0.015 C 
BRANCH  18  19
ATOM     19  C   LIG    1        9.718 -10.471  -1.207  0.00  0.00    +0.121 C 
BRANCH  19  20
ATOM     20  C   LIG    1        9.210 -11.517  -2.165  0.00  0.00    +0.305 C 
ATOM     21  O   LIG    1        8.789 -11.187  -3.261  0.00  0.00    -0.251 OA
BRANCH  20  22
ATOM     22  O   LIG    1        9.221 -12.694  -1.845  0.00  0.00    -0.481 OA
ATOM     23  H   LIG    1        9.545 -12.947  -1.003  0.00  0.00    +0.295 HD
ENDBRANCH  20  22
ENDBRANCH  19  20
ENDBRANCH  18  19
ENDBRANCH  17  18
ENDBRANCH  16  17
ENDBRANCH  14  15
ENDBRANCH   2  14
TORSDOF 15
