REMARK  Name = ZINC04632133
REMARK                            x       y       z     vdW  Elec       q    Type
REMARK                         _______ _______ _______ _____ _____    ______ ____
ROOT
ATOM      1  C   UNK A  1       -6.199  -5.893  -7.982  0.00  0.00    +0.098 C 
ENDROOT
BRANCH   1   3
ATOM      2  C   UNK A  1       -3.875  -5.237  -7.510  0.00  0.00    -0.003 C 
ATOM      3  C   UNK A  1       -4.713  -6.012  -8.198  0.00  0.00    -0.010 C 
BRANCH   2   5
ATOM      4  C   UNK A  1       -1.582  -4.570  -7.022  0.00  0.00    -0.000 C 
ATOM      5  C   UNK A  1       -2.430  -5.354  -7.719  0.00  0.00    -0.000 C 
BRANCH   4   7
ATOM      6  C   UNK A  1        0.705  -3.973  -6.483  0.00  0.00    -0.023 C 
ATOM      7  C   UNK A  1       -0.137  -4.686  -7.232  0.00  0.00    -0.004 C 
BRANCH   6   8
ATOM      8  C   UNK A  1        0.181  -3.159  -5.328  0.00  0.00    +0.054 C 
BRANCH   8  10
ATOM      9  C   UNK A  1        1.491  -2.594  -3.346  0.00  0.00    -0.031 C 
ATOM     10  C   UNK A  1        0.931  -3.528  -4.074  0.00  0.00    -0.027 C 
BRANCH   9  11
ATOM     11  C   UNK A  1        1.261  -1.142  -3.678  0.00  0.00    +0.027 C 
BRANCH  11  12
ATOM     12  C   UNK A  1        0.776  -0.404  -2.428  0.00  0.00    +0.004 C 
BRANCH  12  13
ATOM     13  C   UNK A  1        0.542   1.070  -2.765  0.00  0.00    +0.000 C 
BRANCH  13  15
ATOM     14  C   UNK A  1       -0.177   3.282  -1.851  0.00  0.00    +0.004 C 
ATOM     15  C   UNK A  1        0.057   1.808  -1.515  0.00  0.00    -0.003 C 
ENDBRANCH  13  15
ENDBRANCH  12  13
ENDBRANCH  11  12
ENDBRANCH   9  11
ENDBRANCH   8  10
ENDBRANCH   6   8
ENDBRANCH   4   7
ENDBRANCH   2   5
ENDBRANCH   1   3
BRANCH   1  16
ATOM     16  S   UNK A  1       -7.002  -5.432  -9.543  0.00  0.00    -0.152 S 
BRANCH  16  17
ATOM     17  C   UNK A  1       -6.344  -3.780  -9.903  0.00  0.00    +0.062 C 
BRANCH  17  18
ATOM     18  C   UNK A  1       -7.041  -3.213 -11.142  0.00  0.00    +0.023 C 
BRANCH  18  19
ATOM     19  C   UNK A  1       -6.495  -1.841 -11.441  0.00  0.00    +0.200 C 
ATOM     20  N   GLY A  2       -6.935  -0.774 -10.746  0.00  0.00    -0.306 N 
ATOM     21  H   GLY A  2       -7.604  -0.889 -10.053  0.00  0.00    +0.149 HD
ATOM     22  O   UNK A  1       -5.659  -1.697 -12.308  0.00  0.00    -0.278 OA
BRANCH  20  23
ATOM     23  CA  GLY A  2       -6.404   0.560 -11.037  0.00  0.00    +0.224 C 
BRANCH  23  24
ATOM     24  C   GLY A  2       -7.056   1.570 -10.128  0.00  0.00    +0.322 C 
ATOM     25  O   GLY A  2       -7.887   1.209  -9.312  0.00  0.00    -0.249 OA
BRANCH  24  26
ATOM     26  OXT GLY A  2       -6.752   2.748 -10.208  0.00  0.00    -0.480 OA
ATOM     27  HXT GLY A  2       -6.114   3.026 -10.835  0.00  0.00    +0.295 HD
ENDBRANCH  24  26
ENDBRANCH  23  24
ENDBRANCH  20  23
ENDBRANCH  18  19
BRANCH  18  28
ATOM     28  N   UNK A  1       -6.798  -4.098 -12.289  0.00  0.00    +0.386 N 
ATOM     29  H   UNK A  1       -5.805  -4.161 -12.460  0.00  0.00    -0.089 HD
ATOM     30  H   UNK A  1       -7.257  -3.724 -13.106  0.00  0.00    -0.089 HD
ATOM     31  H   UNK A  1       -7.163  -5.017 -12.088  0.00  0.00    -0.089 HD
ENDBRANCH  18  28
ENDBRANCH  17  18
ENDBRANCH  16  17
ENDBRANCH   1  16
BRANCH   1  32
ATOM     32  C   UNK A  1       -6.754  -7.234  -7.500  0.00  0.00    +0.131 C 
BRANCH  32  33
ATOM     33  O   UNK A  1       -6.068  -7.635  -6.313  0.00  0.00    -0.390 OA
ATOM     34  H   UNK A  1       -6.154  -7.010  -5.579  0.00  0.00    +0.210 HD
ENDBRANCH  32  33
BRANCH  32  35
ATOM     35  C   UNK A  1       -8.248  -7.091  -7.202  0.00  0.00    +0.033 C 
BRANCH  35  36
ATOM     36  C   UNK A  1       -8.831  -8.461  -6.848  0.00  0.00    +0.014 C 
BRANCH  36  37
ATOM     37  C   UNK A  1      -10.325  -8.317  -6.550  0.00  0.00    +0.120 C 
BRANCH  37  38
ATOM     38  C   UNK A  1      -10.899  -9.666  -6.202  0.00  0.00    +0.305 C 
ATOM     39  O   UNK A  1      -10.180 -10.651  -6.192  0.00  0.00    -0.251 OA
BRANCH  38  40
ATOM     40  O   UNK A  1      -12.083  -9.773  -5.929  0.00  0.00    -0.481 OA
ATOM     41  H   UNK A  1      -12.635  -9.016  -5.936  0.00  0.00    +0.295 HD
ENDBRANCH  38  40
ENDBRANCH  37  38
ENDBRANCH  36  37
ENDBRANCH  35  36
ENDBRANCH  32  35
ENDBRANCH   1  32
TORSDOF 24
