REMARK  Name = ZINC04534051
REMARK                            x       y       z     vdW  Elec       q    Type
REMARK                         _______ _______ _______ _____ _____    ______ ____
ROOT
ATOM      1  C   LIG    1        0.995   3.701  -1.821  0.00  0.00    +0.013 A 
ATOM      2  C   LIG    1        0.012   4.564  -1.386  0.00  0.00    +0.047 A 
ATOM      3  C   LIG    1        0.318   5.894  -1.128  0.00  0.00    +0.128 A 
ATOM      4  C   LIG    1        1.614   6.360  -1.307  0.00  0.00    +0.047 A 
ATOM      5  C   LIG    1        2.602   5.503  -1.742  0.00  0.00    +0.013 A 
ATOM      6  C   LIG    1        2.299   4.165  -2.002  0.00  0.00    -0.001 A 
ENDROOT
BRANCH   6   7
ATOM      7  C   LIG    1        3.356   3.243  -2.468  0.00  0.00    +0.047 A 
ATOM      8  C   LIG    1        3.181   1.928  -2.752  0.00  0.00    +0.036 A 
ATOM      9  C   LIG    1        4.431   1.404  -3.164  0.00  0.00    +0.000 A 
ATOM     10  C   LIG    1        4.851   0.130  -3.572  0.00  0.00    +0.011 A 
ATOM     11  C   LIG    1        6.151  -0.080  -3.919  0.00  0.00    +0.016 A 
ATOM     12  C   LIG    1        7.077   0.970  -3.870  0.00  0.00    +0.063 A 
ATOM     13  C   LIG    1        6.678   2.241  -3.467  0.00  0.00    +0.042 A 
ATOM     14  C   LIG    1        5.356   2.466  -3.112  0.00  0.00    +0.048 A 
ATOM     15  N   LIG    1        4.670   3.585  -2.687  0.00  0.00    -0.354 N 
ATOM     16  H   LIG    1        5.053   4.468  -2.562  0.00  0.00    +0.166 HD
BRANCH  12  17
ATOM     17  C   LIG    1        8.486   0.727  -4.248  0.00  0.00    +0.266 C 
ATOM     18  N   LIG    1        9.315   1.759  -4.182  0.00  0.00    -0.288 N 
ATOM     19  H   LIG    1        8.969   2.676  -3.878  0.00  0.00    +0.301 HD
ATOM     20  H   LIG    1       10.296   1.641  -4.433  0.00  0.00    +0.301 HD
BRANCH  17  21
ATOM     21  N   LIG    1        8.885  -0.531  -4.648  0.00  0.00    -0.250 N 
ATOM     22  H   LIG    1        9.809  -0.690  -4.896  0.00  0.00    +0.288 HD
ATOM     23  H   LIG    1        8.242  -1.256  -4.681  0.00  0.00    +0.288 HD
ENDBRANCH  17  21
ENDBRANCH  12  17
ENDBRANCH   6   7
BRANCH   3  24
ATOM     24  O   LIG    1       -0.655   6.743  -0.705  0.00  0.00    -0.456 OA
BRANCH  24  25
ATOM     25  C   LIG    1       -1.185   6.541   0.529  0.00  0.00    +0.128 A 
ATOM     26  C   LIG    1       -0.647   5.569   1.363  0.00  0.00    +0.047 A 
ATOM     27  C   LIG    1       -1.179   5.364   2.618  0.00  0.00    +0.019 A 
ATOM     28  C   LIG    1       -2.267   6.128   3.046  0.00  0.00    +0.061 A 
ATOM     29  C   LIG    1       -2.808   7.100   2.203  0.00  0.00    +0.019 A 
ATOM     30  C   LIG    1       -2.267   7.303   0.951  0.00  0.00    +0.047 A 
BRANCH  28  31
ATOM     31  C   LIG    1       -2.844   5.908   4.390  0.00  0.00    +0.266 C 
ATOM     32  N   LIG    1       -3.874   6.666   4.735  0.00  0.00    -0.288 N 
ATOM     33  H   LIG    1       -4.237   7.369   4.080  0.00  0.00    +0.301 HD
ATOM     34  H   LIG    1       -4.307   6.553   5.652  0.00  0.00    +0.301 HD
BRANCH  31  35
ATOM     35  N   LIG    1       -2.308   4.948   5.221  0.00  0.00    -0.250 N 
ATOM     36  H   LIG    1       -2.687   4.804   6.102  0.00  0.00    +0.288 HD
ATOM     37  H   LIG    1       -1.553   4.416   4.924  0.00  0.00    +0.288 HD
ENDBRANCH  31  35
ENDBRANCH  28  31
ENDBRANCH  24  25
ENDBRANCH   3  24
TORSDOF 7
