REMARK  Name = ZINC04098607
REMARK                            x       y       z     vdW  Elec       q    Type
REMARK                         _______ _______ _______ _____ _____    ______ ____
ROOT
ATOM      1  C   LIG    1        1.836  -4.840  -2.390  0.00  0.00    +0.040 A 
ATOM      2  C   LIG    1        1.076  -5.995  -2.552  0.00  0.00    +0.127 A 
ATOM      3  C   LIG    1       -0.126  -6.177  -1.890  0.00  0.00    +0.046 A 
ATOM      4  C   LIG    1       -0.628  -5.210  -1.026  0.00  0.00    +0.014 A 
ATOM      5  C   LIG    1        0.124  -4.067  -0.862  0.00  0.00    +0.033 A 
ATOM      6  C   LIG    1       -0.118  -2.850  -0.004  0.00  0.00    +0.169 C 
ATOM      7  C   LIG    1       -1.141  -1.947  -0.690  0.00  0.00    +0.272 C 
ATOM      8  O   LIG    1       -1.175  -0.686  -0.013  0.00  0.00    -0.488 OA
ATOM      9  C   LIG    1        0.002  -0.004   0.002  0.00  0.00    +0.131 A 
ATOM     10  C   LIG    1        1.204  -0.692  -0.005  0.00  0.00    +0.038 A 
ATOM     11  C   LIG    1        2.393   0.026  -0.015  0.00  0.00    +0.014 A 
ATOM     12  C   LIG    1        2.380   1.405  -0.012  0.00  0.00    +0.046 A 
ATOM     13  C   LIG    1        1.174   2.091   0.002  0.00  0.00    +0.120 A 
ATOM     14  C   LIG    1       -0.017   1.382   0.010  0.00  0.00    +0.091 A 
ATOM     15  C   LIG    1        1.271  -2.188   0.001  0.00  0.00    +0.246 C 
ATOM     16  O   LIG    1        1.879  -2.667  -1.212  0.00  0.00    -0.480 OA
ATOM     17  C   LIG    1        1.339  -3.864  -1.529  0.00  0.00    +0.135 A 
ENDROOT
BRANCH   2  18
ATOM     18  O   LIG    1        1.526  -6.971  -3.383  0.00  0.00    -0.495 OA
ATOM     19  C   LIG    1        0.711  -8.137  -3.516  0.00  0.00    +0.277 C 
ENDBRANCH   2  18
BRANCH   6  20
ATOM     20  O   LIG    1       -0.527  -3.215   1.316  0.00  0.00    -0.377 OA
ATOM     21  H   LIG    1       -1.397  -3.635   1.356  0.00  0.00    +0.211 HD
ENDBRANCH   6  20
BRANCH  13  22
ATOM     22  O   LIG    1        1.161   3.450   0.008  0.00  0.00    -0.507 OA
ATOM     23  H   LIG    1        1.165   3.840   0.893  0.00  0.00    +0.292 HD
ENDBRANCH  13  22
BRANCH   1  24
ATOM     24  C   LIG    1        3.143  -4.654  -3.118  0.00  0.00    +0.069 C 
BRANCH  24  28
ATOM     25  C   LIG    1        4.890  -6.590  -4.182  0.00  0.00    +0.038 C 
ATOM     26  C   LIG    1        5.081  -6.098  -2.771  0.00  0.00    -0.079 C 
ATOM     27  C   LIG    1        6.206  -6.641  -1.929  0.00  0.00    +0.038 C 
ATOM     28  C   LIG    1        4.268  -5.197  -2.276  0.00  0.00    -0.023 C 
ENDBRANCH  24  28
ENDBRANCH   1  24
TORSDOF 5
