REMARK  Name = ZINC04783170
REMARK                            x       y       z     vdW  Elec       q    Type
REMARK                         _______ _______ _______ _____ _____    ______ ____
ROOT
ATOM      1  C   LIG    1        0.129   5.047   0.108  0.00  0.00    -0.024 A 
ATOM      2  C   LIG    1       -1.155   5.498   0.150  0.00  0.00    +0.054 A 
ATOM      3  C   LIG    1       -2.227   4.609   0.228  0.00  0.00    +0.159 A 
ATOM      4  C   LIG    1       -2.011   3.246   0.265  0.00  0.00    +0.166 A 
ATOM      5  C   LIG    1       -0.693   2.753   0.223  0.00  0.00    +0.028 A 
ATOM      6  C   LIG    1       -0.429   1.374   0.253  0.00  0.00    +0.012 A 
ATOM      7  C   LIG    1        0.858   0.932   0.216  0.00  0.00    +0.001 A 
ATOM      8  C   LIG    1        1.922   1.830   0.138  0.00  0.00    +0.001 A 
ATOM      9  C   LIG    1        1.704   3.173   0.101  0.00  0.00    +0.009 A 
ATOM     10  C   LIG    1        0.389   3.667   0.143  0.00  0.00    -0.010 A 
ENDROOT
BRANCH   3  11
ATOM     11  O   LIG    1       -3.499   5.090   0.268  0.00  0.00    -0.503 OA
ATOM     12  H   LIG    1       -3.827   5.259   1.162  0.00  0.00    +0.292 HD
ENDBRANCH   3  11
BRANCH   4  13
ATOM     13  O   LIG    1       -3.062   2.387   0.341  0.00  0.00    -0.503 OA
ATOM     14  H   LIG    1       -3.326   2.168   1.245  0.00  0.00    +0.292 HD
ENDBRANCH   4  13
BRANCH   1  15
ATOM     15  C   LIG    1        1.271   6.027   0.023  0.00  0.00    +0.080 C 
BRANCH  15  19
ATOM     16  C   LIG    1        0.671   8.628  -3.312  0.00  0.00    +0.000 A 
ATOM     17  C   LIG    1        1.430   9.048  -2.236  0.00  0.00    +0.000 A 
ATOM     18  C   LIG    1        1.624   8.206  -1.156  0.00  0.00    +0.004 A 
ATOM     19  C   LIG    1        1.059   6.944  -1.153  0.00  0.00    -0.036 A 
ATOM     20  C   LIG    1        0.304   6.522  -2.232  0.00  0.00    +0.004 A 
ATOM     21  C   LIG    1        0.106   7.366  -3.309  0.00  0.00    +0.000 A 
ENDBRANCH  15  19
BRANCH  15  22
ATOM     22  C   LIG    1        1.329   6.840   1.291  0.00  0.00    -0.036 A 
ATOM     23  C   LIG    1        0.321   7.741   1.581  0.00  0.00    +0.004 A 
ATOM     24  C   LIG    1        0.373   8.483   2.746  0.00  0.00    +0.000 A 
ATOM     25  C   LIG    1        1.437   8.332   3.615  0.00  0.00    +0.000 A 
ATOM     26  C   LIG    1        2.447   7.436   3.322  0.00  0.00    +0.000 A 
ATOM     27  C   LIG    1        2.393   6.690   2.160  0.00  0.00    +0.004 A 
ENDBRANCH  15  22
ENDBRANCH   1  15
TORSDOF 5
