REMARK  Name = ZINC04170129
REMARK                            x       y       z     vdW  Elec       q    Type
REMARK                         _______ _______ _______ _____ _____    ______ ____
ROOT
ATOM      1  C   LIG    1       -5.962  -1.920   0.017  0.00  0.00    +0.000 A 
ATOM      2  C   LIG    1       -6.695  -0.726   0.028  0.00  0.00    +0.012 A 
ATOM      3  C   LIG    1       -6.054   0.480   0.032  0.00  0.00    +0.028 A 
ATOM      4  C   LIG    1       -4.666   0.533   0.026  0.00  0.00    +0.067 A 
ATOM      5  C   LIG    1       -3.913  -0.656   0.016  0.00  0.00    +0.090 A 
ATOM      6  N   LIG    1       -2.604  -0.302   0.006  0.00  0.00    -0.228 NA
ATOM      7  C   LIG    1       -2.502   1.005   0.019  0.00  0.00    +0.139 A 
ATOM      8  N   LIG    1       -3.750   1.567   0.028  0.00  0.00    -0.338 N 
ATOM      9  H   LIG    1       -4.099   2.610   0.035  0.00  0.00    +0.167 HD
ATOM     10  C   LIG    1       -4.571  -1.887   0.011  0.00  0.00    +0.039 A 
ENDROOT
BRANCH   1  19
ATOM     11  C   LIG    1       -8.674  -3.338   1.462  0.00  0.00    +0.014 C 
ATOM     12  C   LIG    1       -8.173  -3.238   0.020  0.00  0.00    +0.046 C 
ATOM     13  C   LIG    1       -8.674  -4.445  -0.777  0.00  0.00    +0.107 C 
ATOM     14  C   LIG    1       -7.906  -5.672  -0.353  0.00  0.00    +0.233 C 
ATOM     15  N   LIG    1       -6.603  -5.562  -0.028  0.00  0.00    -0.207 N 
ATOM     16  H   LIG    1       -6.028  -6.467   0.217  0.00  0.00    +0.177 HD
ATOM     17  N   LIG    1       -5.982  -4.311  -0.002  0.00  0.00    -0.184 NA
ATOM     18  O   LIG    1       -8.458  -6.751  -0.304  0.00  0.00    -0.274 OA
ATOM     19  C   LIG    1       -6.667  -3.216   0.013  0.00  0.00    +0.070 C 
ENDBRANCH   1  19
BRANCH   7  20
ATOM     20  C   LIG    1       -1.231   1.758   0.017  0.00  0.00    +0.018 A 
ATOM     21  C   LIG    1       -0.013   1.076   0.008  0.00  0.00    +0.015 A 
ATOM     22  C   LIG    1        1.171   1.782   0.000  0.00  0.00    +0.046 A 
ATOM     23  C   LIG    1        1.153   3.171   0.008  0.00  0.00    +0.120 A 
ATOM     24  C   LIG    1       -0.057   3.853   0.023  0.00  0.00    +0.046 A 
ATOM     25  C   LIG    1       -1.244   3.155   0.030  0.00  0.00    +0.015 A 
BRANCH  23  26
ATOM     26  O   LIG    1        2.321   3.863   0.001  0.00  0.00    -0.495 OA
ATOM     27  C   LIG    1        2.230   5.289   0.009  0.00  0.00    +0.277 C 
ENDBRANCH  23  26
ENDBRANCH   7  20
TORSDOF 3
