REMARK  Name = ZINC04217571
REMARK                            x       y       z     vdW  Elec       q    Type
REMARK                         _______ _______ _______ _____ _____    ______ ____
ROOT
ATOM      1  C   LIG    1        9.064  -0.141  -3.687  0.00  0.00    +0.139 C 
ATOM      2  S   LIG    1        8.460  -1.405  -4.672  0.00  0.00    -0.018 S 
ENDROOT
BRANCH   1   3
ATOM      3  N   LIG    1        8.328   0.321  -2.657  0.00  0.00    -0.297 N 
ATOM      4  H   LIG    1        8.629   1.094  -2.155  0.00  0.00    +0.154 HD
BRANCH   3   8
ATOM      5  C   LIG    1        4.762  -1.577  -1.626  0.00  0.00    +0.121 A 
ATOM      6  C   LIG    1        5.858  -2.330  -2.021  0.00  0.00    +0.047 A 
ATOM      7  C   LIG    1        7.040  -1.702  -2.362  0.00  0.00    +0.027 A 
ATOM      8  C   LIG    1        7.130  -0.317  -2.311  0.00  0.00    +0.033 A 
ATOM      9  C   LIG    1        6.032   0.435  -1.916  0.00  0.00    +0.027 A 
ATOM     10  C   LIG    1        4.849  -0.194  -1.580  0.00  0.00    +0.047 A 
BRANCH   5  11
ATOM     11  O   LIG    1        3.599  -2.196  -1.290  0.00  0.00    -0.492 OA
BRANCH  11  12
ATOM     12  C   LIG    1        3.579  -3.623  -1.360  0.00  0.00    +0.229 C 
BRANCH  12  13
ATOM     13  C   LIG    1        2.197  -4.136  -0.949  0.00  0.00    +0.044 C 
BRANCH  13  15
ATOM     14  C   LIG    1        3.146  -6.238   0.011  0.00  0.00    +0.007 C 
ATOM     15  C   LIG    1        2.177  -5.664  -1.024  0.00  0.00    -0.014 C 
ATOM     16  C   LIG    1        0.762  -6.169  -0.734  0.00  0.00    +0.007 C 
ENDBRANCH  13  15
ENDBRANCH  12  13
ENDBRANCH  11  12
ENDBRANCH   5  11
ENDBRANCH   3   8
ENDBRANCH   1   3
BRANCH   1  17
ATOM     17  N   LIG    1       10.276   0.392  -3.942  0.00  0.00    -0.297 N 
ATOM     18  H   LIG    1       10.647   1.061  -3.346  0.00  0.00    +0.154 HD
BRANCH  17  19
ATOM     19  C   LIG    1       10.999  -0.021  -5.069  0.00  0.00    +0.033 A 
ATOM     20  C   LIG    1       11.617   0.921  -5.880  0.00  0.00    +0.027 A 
ATOM     21  C   LIG    1       12.331   0.513  -6.990  0.00  0.00    +0.047 A 
ATOM     22  C   LIG    1       12.431  -0.836  -7.294  0.00  0.00    +0.121 A 
ATOM     23  C   LIG    1       11.813  -1.778  -6.484  0.00  0.00    +0.047 A 
ATOM     24  C   LIG    1       11.104  -1.372  -5.370  0.00  0.00    +0.027 A 
BRANCH  22  25
ATOM     25  O   LIG    1       13.133  -1.237  -8.387  0.00  0.00    -0.492 OA
BRANCH  25  26
ATOM     26  C   LIG    1       13.194  -2.642  -8.640  0.00  0.00    +0.229 C 
BRANCH  26  27
ATOM     27  C   LIG    1       14.022  -2.897  -9.902  0.00  0.00    +0.044 C 
BRANCH  27  28
ATOM     28  C   LIG    1       14.087  -4.402 -10.172  0.00  0.00    -0.014 C 
ATOM     29  C   LIG    1       15.015  -4.666 -11.360  0.00  0.00    +0.007 C 
ATOM     30  C   LIG    1       12.685  -4.923 -10.495  0.00  0.00    +0.007 C 
ENDBRANCH  27  28
ENDBRANCH  26  27
ENDBRANCH  25  26
ENDBRANCH  22  25
ENDBRANCH  17  19
ENDBRANCH   1  17
TORSDOF 12
