REMARK  Name = ZINC04105082
REMARK                            x       y       z     vdW  Elec       q    Type
REMARK                         _______ _______ _______ _____ _____    ______ ____
ROOT
ATOM      1  C   LIG    1        0.420  -5.050   0.254  0.00  0.00    +0.121 A 
ATOM      2  C   LIG    1        1.810  -5.040   0.249  0.00  0.00    +0.046 A 
ATOM      3  C   LIG    1        2.492  -3.848   0.157  0.00  0.00    +0.011 A 
ATOM      4  C   LIG    1        1.783  -2.644   0.069  0.00  0.00    -0.024 A 
ATOM      5  C   LIG    1        0.383  -2.659   0.080  0.00  0.00    +0.011 A 
ATOM      6  C   LIG    1       -0.289  -3.858   0.167  0.00  0.00    +0.046 A 
ENDROOT
BRANCH   4   7
ATOM      7  C   LIG    1        2.505  -1.369  -0.029  0.00  0.00    +0.028 C 
ATOM      8  C   LIG    1        1.827  -0.223  -0.286  0.00  0.00    +0.080 C 
ATOM      9  C   LIG    1        2.302   1.175  -0.279  0.00  0.00    +0.258 C 
ATOM     10  N   LIG    1        1.410   2.107  -0.572  0.00  0.00    -0.243 N 
ATOM     11  H   LIG    1        1.682   3.038  -0.578  0.00  0.00    +0.159 HD
ATOM     12  C   LIG    1        0.132   1.791  -0.862  0.00  0.00    +0.283 C 
ATOM     13  O   LIG    1       -0.784   2.538  -1.151  0.00  0.00    -0.262 OA
ATOM     14  O   LIG    1        3.457   1.456  -0.016  0.00  0.00    -0.269 OA
ATOM     15  S   LIG    1        0.110   0.011  -0.728  0.00  0.00    -0.026 S 
ENDBRANCH   4   7
BRANCH   1  16
ATOM     16  O   LIG    1       -0.248  -6.229   0.345  0.00  0.00    -0.492 OA
BRANCH  16  17
ATOM     17  C   LIG    1       -1.675  -6.167   0.345  0.00  0.00    +0.229 C 
BRANCH  17  19
ATOM     18  C   LIG    1       -3.775  -7.517   0.453  0.00  0.00    +0.007 C 
ATOM     19  C   LIG    1       -2.247  -7.582   0.453  0.00  0.00    +0.038 C 
ENDBRANCH  17  19
ENDBRANCH  16  17
ENDBRANCH   1  16
TORSDOF 4
