REMARK  Name = ZINC04102435
REMARK                            x       y       z     vdW  Elec       q    Type
REMARK                         _______ _______ _______ _____ _____    ______ ____
ROOT
ATOM      1  C   LIG    1       -1.552  -0.976   0.038  0.00  0.00    +0.181 A 
ATOM      2  C   LIG    1       -1.298  -2.288  -0.228  0.00  0.00    +0.214 A 
ATOM      3  C   LIG    1       -2.376  -3.162  -0.526  0.00  0.00    +0.238 A 
ATOM      4  C   LIG    1       -3.731  -2.588  -0.531  0.00  0.00    +0.109 A 
ATOM      5  C   LIG    1       -4.853  -3.377  -0.814  0.00  0.00    +0.135 A 
ATOM      6  C   LIG    1       -6.109  -2.802  -0.808  0.00  0.00    +0.091 A 
ATOM      7  C   LIG    1       -6.257  -1.448  -0.523  0.00  0.00    +0.124 A 
ATOM      8  C   LIG    1       -5.151  -0.661  -0.242  0.00  0.00    +0.092 A 
ATOM      9  C   LIG    1       -3.882  -1.221  -0.242  0.00  0.00    +0.147 A 
ATOM     10  O   LIG    1       -2.186  -4.343  -0.769  0.00  0.00    -0.283 OA
ATOM     11  O   LIG    1       -2.797  -0.469   0.035  0.00  0.00    -0.451 OA
ENDROOT
BRANCH   1  17
ATOM     12  C   LIG    1        0.715  -0.082  -0.468  0.00  0.00    +0.015 A 
ATOM     13  C   LIG    1        1.769   0.756  -0.176  0.00  0.00    +0.046 A 
ATOM     14  C   LIG    1        1.704   1.599   0.926  0.00  0.00    +0.117 A 
ATOM     15  C   LIG    1        0.577   1.602   1.739  0.00  0.00    +0.046 A 
ATOM     16  C   LIG    1       -0.482   0.768   1.455  0.00  0.00    +0.015 A 
ATOM     17  C   LIG    1       -0.421  -0.082   0.347  0.00  0.00    +0.021 A 
BRANCH  14  18
ATOM     18  O   LIG    1        2.746   2.422   1.211  0.00  0.00    -0.507 OA
ATOM     19  H   LIG    1        2.687   3.291   0.790  0.00  0.00    +0.292 HD
ENDBRANCH  14  18
ENDBRANCH   1  17
BRANCH   5  20
ATOM     20  O   LIG    1       -4.707  -4.698  -1.093  0.00  0.00    -0.506 OA
ATOM     21  H   LIG    1       -4.748  -5.271  -0.316  0.00  0.00    +0.292 HD
ENDBRANCH   5  20
BRANCH   7  22
ATOM     22  O   LIG    1       -7.495  -0.892  -0.520  0.00  0.00    -0.507 OA
ATOM     23  H   LIG    1       -7.937  -0.922   0.339  0.00  0.00    +0.292 HD
ENDBRANCH   7  22
BRANCH   2  24
ATOM     24  O   LIG    1       -0.020  -2.757  -0.208  0.00  0.00    -0.453 OA
BRANCH  24  25
ATOM     25  C   LIG    1        0.307  -3.705   0.809  0.00  0.00    +0.340 C 
ATOM     26  C   LIG    1        1.680  -4.316   0.516  0.00  0.00    +0.214 C 
ATOM     27  C   LIG    1        2.050  -5.286   1.642  0.00  0.00    +0.180 C 
ATOM     28  C   LIG    1        2.021  -4.536   2.977  0.00  0.00    +0.177 C 
ATOM     29  C   LIG    1        0.635  -3.917   3.176  0.00  0.00    +0.179 C 
ATOM     30  O   LIG    1        0.340  -3.050   2.079  0.00  0.00    -0.331 OA
BRANCH  26  31
ATOM     31  O   LIG    1        1.634  -5.020  -0.727  0.00  0.00    -0.383 OA
ATOM     32  H   LIG    1        1.400  -4.466  -1.484  0.00  0.00    +0.210 HD
ENDBRANCH  26  31
BRANCH  27  33
ATOM     33  O   LIG    1        3.361  -5.807   1.412  0.00  0.00    -0.386 OA
ATOM     34  H   LIG    1        3.453  -6.289   0.579  0.00  0.00    +0.210 HD
ENDBRANCH  27  33
BRANCH  28  35
ATOM     35  O   LIG    1        2.296  -5.448   4.043  0.00  0.00    -0.386 OA
ATOM     36  H   LIG    1        3.158  -5.881   3.978  0.00  0.00    +0.210 HD
ENDBRANCH  28  35
BRANCH  29  37
ATOM     37  C   LIG    1        0.616  -3.116   4.479  0.00  0.00    +0.190 C 
BRANCH  37  38
ATOM     38  O   LIG    1       -0.708  -2.636   4.724  0.00  0.00    -0.392 OA
ATOM     39  H   LIG    1       -0.794  -2.118   5.536  0.00  0.00    +0.210 HD
ENDBRANCH  37  38
ENDBRANCH  29  37
ENDBRANCH  24  25
ENDBRANCH   2  24
TORSDOF 11
