REMARK  Name = ZINC04698480
REMARK                            x       y       z     vdW  Elec       q    Type
REMARK                         _______ _______ _______ _____ _____    ______ ____
ROOT
ATOM      1  C   LIG    1        0.069  -4.587   0.668  0.00  0.00    +0.001 A 
ATOM      2  C   LIG    1        0.055  -4.580  -0.714  0.00  0.00    +0.001 A 
ATOM      3  C   LIG    1        0.032  -3.381  -1.410  0.00  0.00    +0.014 A 
ATOM      4  C   LIG    1        0.024  -2.183  -0.715  0.00  0.00    +0.049 A 
ATOM      5  C   LIG    1        0.037  -2.191   0.695  0.00  0.00    +0.049 A 
ATOM      6  C   LIG    1        0.023  -0.771   1.107  0.00  0.00    +0.254 C 
ATOM      7  N   LIG    1        0.002  -0.004   0.002  0.00  0.00    -0.234 N 
ATOM      8  O   LIG    1        0.029  -0.365   2.252  0.00  0.00    -0.270 OA
ATOM      9  C   LIG    1       -0.004  -0.759  -1.111  0.00  0.00    +0.254 C 
ATOM     10  O   LIG    1       -0.026  -0.341  -2.251  0.00  0.00    -0.270 OA
ATOM     11  C   LIG    1        0.060  -3.396   1.377  0.00  0.00    +0.014 A 
ENDROOT
BRANCH   7  12
ATOM     12  C   LIG    1       -0.018   1.461   0.010  0.00  0.00    +0.117 C 
BRANCH  12  13
ATOM     13  C   LIG    1        1.418   1.990  -0.001  0.00  0.00    +0.019 C 
BRANCH  13  14
ATOM     14  C   LIG    1        1.397   3.520   0.008  0.00  0.00    +0.002 C 
BRANCH  14  15
ATOM     15  C   LIG    1        2.832   4.050  -0.003  0.00  0.00    +0.009 C 
BRANCH  15  16
ATOM     16  C   LIG    1        2.812   5.580   0.005  0.00  0.00    +0.098 C 
BRANCH  16  17
ATOM     17  C   LIG    1        4.225   6.101  -0.005  0.00  0.00    +0.235 C 
ATOM     18  N   LIG    1        4.454   7.429  -0.001  0.00  0.00    -0.197 N 
ATOM     19  H   LIG    1        3.708   8.050   0.010  0.00  0.00    +0.182 HD
ATOM     20  O   LIG    1        5.158   5.326  -0.019  0.00  0.00    -0.274 OA
BRANCH  18  21
ATOM     21  O   LIG    1        5.782   7.920  -0.011  0.00  0.00    -0.295 OA
ATOM     22  H   LIG    1        5.845   8.885  -0.006  0.00  0.00    +0.241 HD
ENDBRANCH  18  21
ENDBRANCH  16  17
ENDBRANCH  15  16
ENDBRANCH  14  15
ENDBRANCH  13  14
ENDBRANCH  12  13
ENDBRANCH   7  12
TORSDOF 7
