REMARK  Name = ZINC04400045
REMARK                            x       y       z     vdW  Elec       q    Type
REMARK                         _______ _______ _______ _____ _____    ______ ____
ROOT
ATOM      1  C   LIG    1        0.060  -4.152  -0.235  0.00  0.00    +0.225 A 
ATOM      2  N   LIG    1        0.655  -4.743  -1.267  0.00  0.00    -0.181 NA
ATOM      3  C   LIG    1        0.620  -6.067  -1.384  0.00  0.00    +0.221 A 
ATOM      4  N   LIG    1       -0.009  -6.799  -0.471  0.00  0.00    -0.181 NA
ATOM      5  C   LIG    1       -0.603  -6.208   0.561  0.00  0.00    +0.224 A 
ATOM      6  N   LIG    1       -0.564  -4.885   0.682  0.00  0.00    -0.181 NA
ENDROOT
BRANCH   5   7
ATOM      7  N   LIG    1       -1.257  -6.969   1.509  0.00  0.00    -0.299 N 
ATOM      8  C   LIG    1       -1.367  -8.435   1.505  0.00  0.00    +0.108 C 
ATOM      9  C   LIG    1       -2.203  -8.836   2.738  0.00  0.00    +0.020 C 
ATOM     10  C   LIG    1       -2.995  -7.540   3.057  0.00  0.00    +0.020 C 
ATOM     11  C   LIG    1       -1.955  -6.446   2.698  0.00  0.00    +0.108 C 
ENDBRANCH   5   7
BRANCH   1  12
ATOM     12  N   LIG    1        0.096  -2.777  -0.112  0.00  0.00    -0.281 N 
ATOM     13  H   LIG    1       -0.259  -2.352   0.684  0.00  0.00    +0.155 HD
BRANCH  12  20
ATOM     14  C   LIG    1        1.154  -0.731  -0.856  0.00  0.00    +0.141 A 
ATOM     15  C   LIG    1        1.701   0.035  -1.872  0.00  0.00    +0.049 A 
ATOM     16  C   LIG    1        1.736  -0.455  -3.165  0.00  0.00    +0.024 A 
ATOM     17  C   LIG    1        1.225  -1.709  -3.447  0.00  0.00    +0.043 A 
ATOM     18 CL   LIG    1        1.271  -2.317  -5.073  0.00  0.00    -0.083 Cl
ATOM     19  C   LIG    1        0.678  -2.480  -2.438  0.00  0.00    +0.047 A 
ATOM     20  C   LIG    1        0.645  -1.996  -1.137  0.00  0.00    +0.077 A 
BRANCH  14  22
ATOM     21  C   LIG    1        1.659   1.056   0.631  0.00  0.00    +0.277 C 
ATOM     22  O   LIG    1        1.119  -0.250   0.416  0.00  0.00    -0.493 OA
ENDBRANCH  14  22
ENDBRANCH  12  20
ENDBRANCH   1  12
BRANCH   3  23
ATOM     23  N   LIG    1        1.237  -6.680  -2.455  0.00  0.00    -0.311 N 
ATOM     24  H   LIG    1        1.212  -7.646  -2.542  0.00  0.00    +0.149 HD
BRANCH  23  25
ATOM     25  C   LIG    1        1.930  -5.873  -3.463  0.00  0.00    +0.132 C 
BRANCH  25  26
ATOM     26  C   LIG    1        2.522  -6.792  -4.533  0.00  0.00    +0.174 C 
BRANCH  26  27
ATOM     27  O   LIG    1        1.465  -7.447  -5.237  0.00  0.00    -0.393 OA
ATOM     28  H   LIG    1        1.768  -8.047  -5.932  0.00  0.00    +0.209 HD
ENDBRANCH  26  27
ENDBRANCH  25  26
ENDBRANCH  23  25
ENDBRANCH   3  23
TORSDOF 8
