REMARK  Name = ZINC04770290
REMARK                            x       y       z     vdW  Elec       q    Type
REMARK                         _______ _______ _______ _____ _____    ______ ____
ROOT
ATOM      1  C   LIG    1        0.679  -3.264  -0.022  0.00  0.00    +0.091 A 
ATOM      2  C   LIG    1        1.048  -4.591  -0.028  0.00  0.00    +0.113 A 
ATOM      3  N   LIG    1       -0.101  -5.318  -0.023  0.00  0.00    -0.341 N 
ATOM      4  C   LIG    1       -1.142  -4.433  -0.015  0.00  0.00    +0.180 A 
ATOM      5  H   LIG    1       -0.169  -6.286  -0.025  0.00  0.00    +0.167 HD
ATOM      6  N   LIG    1       -0.658  -3.209  -0.009  0.00  0.00    -0.225 NA
ENDROOT
BRANCH   1  12
ATOM      7  C   LIG    1       -0.017   1.363   0.009  0.00  0.00    +0.001 A 
ATOM      8  C   LIG    1        1.170   2.083   0.002  0.00  0.00    +0.002 A 
ATOM      9  C   LIG    1        2.385   1.435  -0.013  0.00  0.00    +0.026 A 
ATOM     10  C   LIG    1        2.426   0.043  -0.021  0.00  0.00    +0.047 A 
ATOM     11  C   LIG    1        1.222  -0.680  -0.013  0.00  0.00    +0.009 A 
ATOM     12  C   LIG    1        1.601  -2.102  -0.025  0.00  0.00    +0.027 A 
ATOM     13  C   LIG    1        2.955  -2.143  -0.038  0.00  0.00    +0.093 A 
ATOM     14  N   LIG    1        3.456  -0.872  -0.036  0.00  0.00    -0.360 N 
ATOM     15  H   LIG    1        4.399  -0.646  -0.043  0.00  0.00    +0.165 HD
ATOM     16  C   LIG    1        0.002  -0.004   0.002  0.00  0.00    +0.010 A 
ENDBRANCH   1  12
BRANCH   4  17
ATOM     17  C   LIG    1       -2.571  -4.790  -0.008  0.00  0.00    +0.230 C 
ATOM     18  O   LIG    1       -2.906  -5.961  -0.009  0.00  0.00    -0.283 OA
BRANCH  17  19
ATOM     19  C   LIG    1       -3.591  -3.735   0.001  0.00  0.00    +0.050 A 
ATOM     20  C   LIG    1       -3.373  -2.386  -0.003  0.00  0.00    +0.095 A 
ATOM     21  N   LIG    1       -4.559  -1.731   0.007  0.00  0.00    -0.360 N 
ATOM     22  C   LIG    1       -5.606  -2.630   0.018  0.00  0.00    +0.051 A 
ATOM     23  C   LIG    1       -6.988  -2.478   0.030  0.00  0.00    +0.071 A 
ATOM     24  C   LIG    1       -7.804  -3.594   0.024  0.00  0.00    +0.119 A 
ATOM     25  C   LIG    1       -7.253  -4.872   0.018  0.00  0.00    +0.046 A 
ATOM     26  C   LIG    1       -5.886  -5.038   0.010  0.00  0.00    +0.014 A 
ATOM     27  H   LIG    1       -4.658  -0.766   0.007  0.00  0.00    +0.165 HD
ATOM     28  C   LIG    1       -5.055  -3.921   0.008  0.00  0.00    +0.011 A 
BRANCH  24  29
ATOM     29  O   LIG    1       -9.155  -3.442   0.030  0.00  0.00    -0.507 OA
ATOM     30  H   LIG    1       -9.542  -3.400   0.916  0.00  0.00    +0.292 HD
ENDBRANCH  24  29
ENDBRANCH  17  19
ENDBRANCH   4  17
TORSDOF 4
