REMARK  Name = ZINC04715271
REMARK                            x       y       z     vdW  Elec       q    Type
REMARK                         _______ _______ _______ _____ _____    ______ ____
ROOT
ATOM      1  C   LIG    1       -0.019   1.526   0.010  0.00  0.00    +0.012 C 
ATOM      2  C   LIG    1        0.002  -0.004   0.002  0.00  0.00    -0.021 C 
ATOM      3  C   LIG    1       -1.416  -0.538   0.075  0.00  0.00    +0.008 C 
ATOM      4  C   LIG    1       -2.077   0.099   1.307  0.00  0.00    +0.005 C 
ATOM      5  C   LIG    1       -1.297  -0.201   2.585  0.00  0.00    +0.003 C 
ATOM      6  C   LIG    1        0.176   0.213   2.465  0.00  0.00    +0.000 C 
ATOM      7  C   LIG    1        0.901  -0.224   3.743  0.00  0.00    +0.031 C 
ATOM      8  C   LIG    1        0.207   0.371   4.933  0.00  0.00    -0.027 C 
ATOM      9  C   LIG    1       -1.054   0.692   4.932  0.00  0.00    -0.065 C 
ATOM     10  C   LIG    1       -1.648   1.280   6.201  0.00  0.00    +0.062 C 
ATOM     11  C   LIG    1       -2.881   0.466   6.570  0.00  0.00    +0.119 C 
ATOM     12  C   LIG    1       -3.844   0.495   5.382  0.00  0.00    +0.032 C 
ATOM     13  C   LIG    1       -3.213  -0.228   4.190  0.00  0.00    +0.014 C 
ATOM     14  C   LIG    1       -1.944   0.513   3.760  0.00  0.00    -0.008 C 
ATOM     15  C   LIG    1       -2.362   1.911   3.298  0.00  0.00    +0.016 C 
ATOM     16  C   LIG    1        0.863  -0.504  -1.154  0.00  0.00    +0.046 C 
ATOM     17  C   LIG    1        2.304  -0.575  -0.591  0.00  0.00    +0.010 C 
ATOM     18  C   LIG    1        2.207  -0.193   0.911  0.00  0.00    +0.005 C 
ATOM     19  C   LIG    1        0.751  -0.528   1.256  0.00  0.00    -0.001 C 
ENDROOT
BRANCH  16  20
ATOM     20  C   LIG    1        0.800   0.464  -2.308  0.00  0.00    +0.066 A 
ATOM     21  C   LIG    1        1.596   1.603  -2.467  0.00  0.00    +0.044 A 
ATOM     22  C   LIG    1        1.237   2.203  -3.625  0.00  0.00    +0.105 A 
ATOM     23  N   LIG    1        0.249   1.470  -4.179  0.00  0.00    -0.284 N 
ATOM     24  H   LIG    1       -0.203   1.662  -5.016  0.00  0.00    +0.188 HD
ATOM     25  N   LIG    1       -0.004   0.381  -3.336  0.00  0.00    -0.179 NA
ENDBRANCH  16  20
BRANCH  11  26
ATOM     26  O   LIG    1       -3.508   1.065   7.706  0.00  0.00    -0.391 OA
ATOM     27  H   LIG    1       -2.954   1.081   8.498  0.00  0.00    +0.210 HD
ENDBRANCH  11  26
TORSDOF 2
