REMARK  Name = ZINC04728842
REMARK                            x       y       z     vdW  Elec       q    Type
REMARK                         _______ _______ _______ _____ _____    ______ ____
ROOT
ATOM      1  C   LIG    1       -1.501   6.757   0.306  0.00  0.00    +0.028 C 
ATOM      2  C   LIG    1       -1.028   6.011  -0.944  0.00  0.00    +0.081 C 
ATOM      3  C   LIG    1       -2.046   4.926  -1.319  0.00  0.00    +0.049 C 
ATOM      4  C   LIG    1       -1.588   4.244  -2.608  0.00  0.00    +0.107 C 
ATOM      5  C   LIG    1       -0.156   3.795  -2.487  0.00  0.00    -0.006 A 
ATOM      6  C   LIG    1        0.312   2.809  -3.340  0.00  0.00    +0.007 A 
ATOM      7  C   LIG    1        1.621   2.376  -3.253  0.00  0.00    +0.000 A 
ATOM      8  C   LIG    1        2.476   2.932  -2.319  0.00  0.00    +0.002 A 
ATOM      9  C   LIG    1        2.019   3.917  -1.467  0.00  0.00    +0.024 A 
ATOM     10  C   LIG    1        0.700   4.351  -1.549  0.00  0.00    +0.042 A 
ATOM     11  N   LIG    1        0.255   5.348  -0.672  0.00  0.00    -0.264 N 
ATOM     12  C   LIG    1        0.991   5.695   0.402  0.00  0.00    +0.251 C 
ATOM     13  O   LIG    1        0.722   6.705   1.023  0.00  0.00    -0.270 OA
ENDROOT
BRANCH  12  14
ATOM     14  C   LIG    1        2.125   4.847   0.826  0.00  0.00    +0.037 A 
ATOM     15  C   LIG    1        2.018   3.456   0.774  0.00  0.00    +0.013 A 
ATOM     16  C   LIG    1        3.082   2.670   1.165  0.00  0.00    +0.001 A 
ATOM     17  C   LIG    1        4.249   3.257   1.620  0.00  0.00    +0.000 A 
ATOM     18  C   LIG    1        4.360   4.635   1.680  0.00  0.00    +0.001 A 
ATOM     19  C   LIG    1        3.305   5.433   1.286  0.00  0.00    +0.013 A 
ENDBRANCH  12  14
BRANCH   4  20
ATOM     20  N   LIG    1       -2.439   3.080  -2.868  0.00  0.00    -0.309 N 
ATOM     21  H   LIG    1       -2.895   2.639  -2.134  0.00  0.00    +0.149 HD
ATOM     22  C   LIG    1       -2.588   2.622  -4.126  0.00  0.00    +0.210 C 
ATOM     23  C   LIG    1       -3.464   1.425  -4.393  0.00  0.00    +0.109 C 
ATOM     24  O   LIG    1       -2.019   3.173  -5.044  0.00  0.00    -0.276 OA
ENDBRANCH   4  20
TORSDOF 2
