REMARK  Name = ZINC04097448
REMARK                            x       y       z     vdW  Elec       q    Type
REMARK                         _______ _______ _______ _____ _____    ______ ____
ROOT
ATOM      1  C   LIG    1        4.096   5.016   0.305  0.00  0.00    -0.091 C 
ATOM      2  N   LIG    1        4.172   4.251   1.560  0.00  0.00    +0.381 N 
ATOM      3  C   LIG    1        3.553   5.093   2.605  0.00  0.00    -0.091 C 
ATOM      4  C   LIG    1        5.577   4.023   1.892  0.00  0.00    -0.070 C 
ATOM      5  C   LIG    1        5.704   3.474   3.315  0.00  0.00    +0.017 C 
ATOM      6  C   LIG    1        4.738   2.333   3.506  0.00  0.00    -0.044 A 
ATOM      7  C   LIG    1        4.931   1.477   4.581  0.00  0.00    +0.053 A 
ATOM      8  C   LIG    1        4.098   0.393   4.777  0.00  0.00    +0.162 A 
ATOM      9  C   LIG    1        3.042   0.152   3.886  0.00  0.00    +0.170 A 
ATOM     10  C   LIG    1        2.839   1.036   2.841  0.00  0.00    +0.052 A 
ATOM     11  O   LIG    1        2.308  -0.942   4.064  0.00  0.00    -0.449 OA
ATOM     12  C   LIG    1        1.034  -1.246   4.291  0.00  0.00    +0.170 A 
ATOM     13  C   LIG    1        0.077  -1.207   3.286  0.00  0.00    +0.053 A 
ATOM     14  C   LIG    1       -1.237  -1.528   3.556  0.00  0.00    -0.045 A 
ATOM     15  C   LIG    1       -1.617  -1.882   4.840  0.00  0.00    +0.007 A 
ATOM     16  C   LIG    1       -0.674  -1.946   5.851  0.00  0.00    +0.050 A 
ATOM     17  C   LIG    1       -2.276  -1.490   2.464  0.00  0.00    +0.025 C 
ATOM     18  C   LIG    1       -2.198  -2.704   1.544  0.00  0.00    -0.027 C 
ATOM     19  N   LIG    1       -2.840  -3.888   2.091  0.00  0.00    +0.381 N 
ATOM     20  C   LIG    1       -4.074  -3.592   2.828  0.00  0.00    -0.091 C 
ATOM     21  C   LIG    1       -1.903  -4.549   3.032  0.00  0.00    -0.091 C 
ATOM     22  C   LIG    1       -3.137  -4.880   1.044  0.00  0.00    -0.070 C 
ATOM     23  C   LIG    1       -4.177  -4.337   0.070  0.00  0.00    +0.017 C 
ATOM     24  C   LIG    1       -3.641  -3.055  -0.517  0.00  0.00    -0.040 A 
ATOM     25  C   LIG    1       -4.103  -2.635  -1.751  0.00  0.00    +0.053 A 
ATOM     26  C   LIG    1       -3.556  -1.516  -2.352  0.00  0.00    +0.165 A 
ATOM     27  C   LIG    1       -2.542  -0.818  -1.705  0.00  0.00    +0.204 A 
ATOM     28  C   LIG    1       -2.106  -1.219  -0.455  0.00  0.00    +0.175 A 
ATOM     29  O   LIG    1       -1.140  -0.625   0.221  0.00  0.00    -0.452 OA
ATOM     30  C   LIG    1        0.002  -0.004   0.002  0.00  0.00    +0.129 A 
ATOM     31  C   LIG    1        1.211  -0.669  -0.137  0.00  0.00    +0.046 A 
ATOM     32  C   LIG    1        2.397   0.046  -0.098  0.00  0.00    +0.007 A 
ATOM     33  C   LIG    1        2.374   1.415   0.008  0.00  0.00    -0.048 A 
ATOM     34  C   LIG    1        1.163   2.099   0.002  0.00  0.00    +0.007 A 
ATOM     35  C   LIG    1        3.641   2.231   0.168  0.00  0.00    +0.025 C 
ATOM     36  C   LIG    1       -0.017   1.394   0.010  0.00  0.00    +0.046 A 
ATOM     37  C   LIG    1       -2.694  -2.335   0.169  0.00  0.00    -0.011 A 
ATOM     38  C   LIG    1        0.647  -1.633   5.584  0.00  0.00    +0.162 A 
ATOM     39  C   LIG    1        3.686   2.122   2.640  0.00  0.00    -0.053 A 
ATOM     40  C   LIG    1        3.419   3.020   1.464  0.00  0.00    -0.030 C 
ENDROOT
BRANCH   8  41
ATOM     41  O   LIG    1        4.297  -0.437   5.837  0.00  0.00    -0.491 OA
ATOM     42  C   LIG    1        5.387  -0.127   6.708  0.00  0.00    +0.277 C 
ENDBRANCH   8  41
BRANCH  26  43
ATOM     43  O   LIG    1       -4.012  -1.104  -3.565  0.00  0.00    -0.491 OA
ATOM     44  C   LIG    1       -5.059  -1.874  -4.160  0.00  0.00    +0.277 C 
ENDBRANCH  26  43
BRANCH  27  45
ATOM     45  O   LIG    1       -1.990   0.273  -2.302  0.00  0.00    -0.488 OA
ATOM     46  C   LIG    1       -2.596   1.538  -2.030  0.00  0.00    +0.277 C 
ENDBRANCH  27  45
BRANCH  38  47
ATOM     47  O   LIG    1        1.576  -1.713   6.575  0.00  0.00    -0.491 OA
ATOM     48  C   LIG    1        1.114  -2.113   7.867  0.00  0.00    +0.277 C 
ENDBRANCH  38  47
TORSDOF 4
