REMARK  Name = ZINC04164730
REMARK                            x       y       z     vdW  Elec       q    Type
REMARK                         _______ _______ _______ _____ _____    ______ ____
ROOT
ATOM      1  C   LIG    1        4.750   4.129  -0.157  0.00  0.00    +0.120 C 
ENDROOT
BRANCH   1   2
ATOM      2  C   LIG    1        3.516   3.266  -0.086  0.00  0.00    +0.017 A 
ATOM      3  C   LIG    1        3.632   1.889  -0.254  0.00  0.00    +0.010 A 
ATOM      4  C   LIG    1        2.537   1.082  -0.196  0.00  0.00    +0.010 A 
ATOM      5  C   LIG    1        1.270   1.642   0.037  0.00  0.00    +0.004 A 
ATOM      6  C   LIG    1        0.115   0.841   0.104  0.00  0.00    +0.012 A 
ATOM      7  C   LIG    1       -1.084   1.455   0.327  0.00  0.00    +0.023 A 
ATOM      8  C   LIG    1       -1.137   2.838   0.491  0.00  0.00    +0.039 A 
ATOM      9  C   LIG    1       -2.468   3.497   0.742  0.00  0.00    +0.065 C 
ATOM     10  N   LIG    1       -0.058   3.581   0.429  0.00  0.00    -0.248 NA
ATOM     11  C   LIG    1        1.144   3.043   0.208  0.00  0.00    +0.113 A 
ATOM     12  C   LIG    1        2.301   3.847   0.141  0.00  0.00    +0.148 A 
BRANCH  12  13
ATOM     13  O   LIG    1        2.207   5.193   0.301  0.00  0.00    -0.504 OA
ATOM     14  H   LIG    1        2.297   5.487   1.218  0.00  0.00    +0.292 HD
ENDBRANCH  12  13
ENDBRANCH   1   2
BRANCH   1  15
ATOM     15  C   LIG    1        5.290   4.346   1.233  0.00  0.00    -0.019 A 
ATOM     16  C   LIG    1        5.942   3.318   1.888  0.00  0.00    +0.055 A 
ATOM     17  C   LIG    1        6.446   3.516   3.165  0.00  0.00    +0.165 A 
ATOM     18  C   LIG    1        6.285   4.747   3.790  0.00  0.00    +0.204 A 
ATOM     19  C   LIG    1        5.624   5.777   3.130  0.00  0.00    +0.165 A 
ATOM     20  C   LIG    1        5.129   5.572   1.851  0.00  0.00    +0.055 A 
BRANCH  17  21
ATOM     21  O   LIG    1        7.091   2.506   3.806  0.00  0.00    -0.491 OA
ATOM     22  C   LIG    1        7.143   1.243   3.140  0.00  0.00    +0.277 C 
ENDBRANCH  17  21
BRANCH  18  23
ATOM     23  O   LIG    1        6.772   4.944   5.045  0.00  0.00    -0.488 OA
ATOM     24  C   LIG    1        5.898   4.642   6.135  0.00  0.00    +0.277 C 
ENDBRANCH  18  23
BRANCH  19  25
ATOM     25  O   LIG    1        5.464   6.982   3.738  0.00  0.00    -0.491 OA
ATOM     26  C   LIG    1        4.775   7.994   3.000  0.00  0.00    +0.277 C 
ENDBRANCH  19  25
ENDBRANCH   1  15
BRANCH   1  27
ATOM     27  N   LIG    1        5.765   3.463  -0.977  0.00  0.00    -0.290 NA
ATOM     28  H   LIG    1        6.461   2.937  -0.554  0.00  0.00    +0.124 HD
BRANCH  27  33
ATOM     29  C   LIG    1        7.645   2.261  -5.212  0.00  0.00    +0.024 C 
ATOM     30  C   LIG    1        6.616   3.023  -4.417  0.00  0.00    +0.052 C 
ATOM     31  N   LIG    1        6.672   2.893  -3.064  0.00  0.00    -0.299 NA
ATOM     32  H   LIG    1        7.379   2.309  -2.601  0.00  0.00    +0.124 HD
ATOM     33  C   LIG    1        5.730   3.586  -2.361  0.00  0.00    +0.122 C 
ATOM     34  C   LIG    1        4.766   4.392  -2.958  0.00  0.00    +0.034 C 
ATOM     35  C   LIG    1        4.744   4.506  -4.336  0.00  0.00    +0.004 C 
ATOM     36  C   LIG    1        5.688   3.806  -5.074  0.00  0.00    +0.018 C 
ENDBRANCH  27  33
ENDBRANCH   1  27
TORSDOF 8
