REMARK  Name = ZINC04163163
REMARK                            x       y       z     vdW  Elec       q    Type
REMARK                         _______ _______ _______ _____ _____    ______ ____
ROOT
ATOM      1  N   LIG    1        2.193   4.100  -0.885  0.00  0.00    -0.302 N 
ATOM      2  H   LIG    1        2.972   3.555  -1.080  0.00  0.00    +0.150 HD
ATOM      3  C   LIG    1        2.071   5.323  -1.437  0.00  0.00    +0.285 C 
ATOM      4  O   LIG    1        1.097   6.004  -1.193  0.00  0.00    -0.267 OA
ENDROOT
BRANCH   1   6
ATOM      5  C   LIG    1        1.407   4.098   1.431  0.00  0.00    +0.033 C 
ATOM      6  C   LIG    1        1.151   3.592   0.010  0.00  0.00    +0.100 C 
BRANCH   6   7
ATOM      7  C   LIG    1        1.171   2.086   0.002  0.00  0.00    -0.027 A 
ATOM      8  C   LIG    1       -0.017   1.378   0.010  0.00  0.00    +0.005 A 
ATOM      9  C   LIG    1        0.002  -0.004   0.002  0.00  0.00    +0.000 A 
ATOM     10  C   LIG    1        1.208  -0.679  -0.014  0.00  0.00    +0.000 A 
ATOM     11  C   LIG    1        2.396   0.029  -0.021  0.00  0.00    +0.000 A 
ATOM     12  C   LIG    1        2.377   1.411  -0.014  0.00  0.00    +0.005 A 
ENDBRANCH   6   7
ENDBRANCH   1   6
BRANCH   3  13
ATOM     13  C   LIG    1        3.133   5.839  -2.349  0.00  0.00    +0.249 C 
ATOM     14  O   LIG    1        4.109   5.157  -2.593  0.00  0.00    -0.282 OA
BRANCH  13  15
ATOM     15  C   LIG    1        3.001   7.166  -2.948  0.00  0.00    +0.052 A 
ATOM     16  C   LIG    1        1.956   8.055  -2.775  0.00  0.00    +0.095 A 
ATOM     17  N   LIG    1        2.193   9.173  -3.484  0.00  0.00    -0.360 N 
ATOM     18  C   LIG    1        3.391   9.076  -4.164  0.00  0.00    +0.047 A 
ATOM     19  C   LIG    1        4.069   9.938  -5.019  0.00  0.00    +0.026 A 
ATOM     20  C   LIG    1        5.279   9.560  -5.562  0.00  0.00    +0.002 A 
ATOM     21  C   LIG    1        5.830   8.323  -5.264  0.00  0.00    +0.001 A 
ATOM     22  C   LIG    1        5.173   7.454  -4.419  0.00  0.00    +0.011 A 
ATOM     23  H   LIG    1        1.601   9.941  -3.517  0.00  0.00    +0.165 HD
ATOM     24  C   LIG    1        3.952   7.825  -3.865  0.00  0.00    +0.011 A 
ENDBRANCH  13  15
ENDBRANCH   3  13
TORSDOF 4
