REMARK  Name = ZINC04332840
REMARK                            x       y       z     vdW  Elec       q    Type
REMARK                         _______ _______ _______ _____ _____    ______ ____
ROOT
ATOM      1  S   LIG    1        2.915  -1.015   2.867  0.00  0.00    +0.044 S 
ATOM      2  O   LIG    1        2.928  -2.429   2.732  0.00  0.00    -0.155 OA
ATOM      3  O   LIG    1        2.360  -0.403   4.024  0.00  0.00    -0.155 OA
ENDROOT
BRANCH   1   4
ATOM      4  N   LIG    1        4.512  -0.577   2.882  0.00  0.00    -0.221 N 
ATOM      5  H   LIG    1        4.875  -0.015   2.160  0.00  0.00    +0.173 HD
BRANCH   4   6
ATOM      6  C   LIG    1        5.343  -1.005   3.920  0.00  0.00    +0.050 A 
ATOM      7  C   LIG    1        4.834  -1.803   4.936  0.00  0.00    +0.024 A 
ATOM      8  C   LIG    1        5.659  -2.225   5.960  0.00  0.00    +0.004 A 
ATOM      9  C   LIG    1        6.991  -1.854   5.974  0.00  0.00    +0.028 A 
ATOM     10  C   LIG    1        7.502  -1.060   4.964  0.00  0.00    +0.107 A 
ATOM     11  C   LIG    1        6.683  -0.639   3.934  0.00  0.00    +0.053 A 
BRANCH  10  12
ATOM     12  S   LIG    1        9.199  -0.589   4.987  0.00  0.00    +0.056 S 
ATOM     13  O   LIG    1        9.623  -0.664   6.342  0.00  0.00    -0.153 OA
ATOM     14  O   LIG    1        9.300   0.604   4.222  0.00  0.00    -0.153 OA
BRANCH  12  15
ATOM     15  N   LIG    1       10.041  -1.753   4.163  0.00  0.00    -0.204 NA
ATOM     16  H   LIG    1       11.003  -1.676   4.063  0.00  0.00    +0.144 HD
ATOM     17  H   LIG    1        9.573  -2.511   3.781  0.00  0.00    +0.144 HD
ENDBRANCH  12  15
ENDBRANCH  10  12
ENDBRANCH   4   6
ENDBRANCH   1   4
BRANCH   1  18
ATOM     18  C   LIG    1        2.236  -0.250   1.369  0.00  0.00    +0.203 C 
BRANCH  18  28
ATOM     19  C   LIG    1       -0.019   1.526   0.010  0.00  0.00    +0.012 C 
ATOM     20  C   LIG    1        0.002  -0.004   0.002  0.00  0.00    -0.018 C 
ATOM     21  C   LIG    1        0.557  -0.556  -1.312  0.00  0.00    +0.012 C 
ATOM     22  C   LIG    1       -1.400  -0.616   0.356  0.00  0.00    +0.003 C 
ATOM     23  C   LIG    1       -1.598  -0.063   1.801  0.00  0.00    +0.005 C 
ATOM     24  C   LIG    1       -0.174  -0.040   2.404  0.00  0.00    +0.017 C 
ATOM     25  C   LIG    1       -1.009  -2.114   0.545  0.00  0.00    +0.079 C 
ATOM     26  C   LIG    1        0.397  -2.080   1.125  0.00  0.00    +0.142 C 
ATOM     27  O   LIG    1        1.089  -3.024   1.423  0.00  0.00    -0.297 OA
ATOM     28  C   LIG    1        0.749  -0.591   1.251  0.00  0.00    +0.055 C 
ENDBRANCH  18  28
ENDBRANCH   1  18
TORSDOF 6
