REMARK  Name = ZINC04482266
REMARK                            x       y       z     vdW  Elec       q    Type
REMARK                         _______ _______ _______ _____ _____    ______ ____
ROOT
ATOM      1  C   LIG    1        3.700  -0.686   0.001  0.00  0.00    +0.125 C 
ATOM      2  N   LIG    1        4.882  -0.145  -0.108  0.00  0.00    -0.073 NA
ATOM      3  O   LIG    1        5.888  -1.134  -0.139  0.00  0.00    -0.311 OA
ATOM      4  C   LIG    1        5.335  -2.357  -0.046  0.00  0.00    +0.369 C 
ATOM      5  O   LIG    1        5.921  -3.425  -0.044  0.00  0.00    -0.242 OA
ATOM      6  C   LIG    1        3.885  -2.149   0.057  0.00  0.00    +0.094 C 
ATOM      7  C   LIG    1        2.900  -3.120   0.177  0.00  0.00    +0.063 C 
ENDROOT
BRANCH   1  11
ATOM      8  C   LIG    1       -0.006   1.389   0.185  0.00  0.00    +0.000 A 
ATOM      9  C   LIG    1        0.053   0.133  -0.390  0.00  0.00    +0.001 A 
ATOM     10  C   LIG    1        1.253  -0.545  -0.453  0.00  0.00    +0.010 A 
ATOM     11  C   LIG    1        2.408   0.038   0.065  0.00  0.00    +0.004 A 
ATOM     12  C   LIG    1        2.343   1.304   0.644  0.00  0.00    +0.010 A 
ATOM     13  C   LIG    1        1.137   1.973   0.702  0.00  0.00    +0.001 A 
ENDBRANCH   1  11
BRANCH   7  14
ATOM     14  C   LIG    1        3.258  -4.466   0.360  0.00  0.00    +0.129 A 
ATOM     15  C   LIG    1        2.385  -5.535   0.489  0.00  0.00    +0.049 A 
ATOM     16  C   LIG    1        3.176  -6.677   0.651  0.00  0.00    +0.042 A 
ATOM     17  C   LIG    1        4.470  -6.278   0.616  0.00  0.00    +0.195 A 
ATOM     18  O   LIG    1        4.516  -4.952   0.437  0.00  0.00    -0.464 OA
ENDBRANCH   7  14
TORSDOF 2
