REMARK  Name = ZINC04196753
REMARK                            x       y       z     vdW  Elec       q    Type
REMARK                         _______ _______ _______ _____ _____    ______ ____
ROOT
ATOM      1  C   LIG    1       -3.972  -1.526   0.024  0.00  0.00    +0.252 C 
ATOM      2  N   LIG    1       -5.206  -2.066   0.040  0.00  0.00    -0.278 N 
ATOM      3  H   LIG    1       -5.316  -3.027  -0.032  0.00  0.00    +0.155 HD
ATOM      4  O   LIG    1       -3.836  -0.318   0.032  0.00  0.00    -0.270 OA
ENDROOT
BRANCH   2   5
ATOM      5  C   LIG    1       -6.331  -1.240   0.161  0.00  0.00    +0.077 A 
ATOM      6  C   LIG    1       -6.335   0.018  -0.424  0.00  0.00    +0.047 A 
ATOM      7  C   LIG    1       -7.446   0.832  -0.304  0.00  0.00    +0.043 A 
ATOM      8 CL   LIG    1       -7.450   2.407  -1.035  0.00  0.00    -0.083 Cl
ATOM      9  C   LIG    1       -8.555   0.394   0.398  0.00  0.00    +0.023 A 
ATOM     10  C   LIG    1       -8.558  -0.858   0.983  0.00  0.00    +0.049 A 
ATOM     11  C   LIG    1       -7.450  -1.682   0.862  0.00  0.00    +0.138 A 
BRANCH  11  12
ATOM     12  O   LIG    1       -7.454  -2.916   1.432  0.00  0.00    -0.505 OA
ATOM     13  H   LIG    1       -7.123  -2.931   2.341  0.00  0.00    +0.292 HD
ENDBRANCH  11  12
ENDBRANCH   2   5
BRANCH   1  19
ATOM     14  C   LIG    1       -1.498  -1.844  -0.020  0.00  0.00    +0.133 A 
ATOM     15  C   LIG    1       -0.389  -2.676  -0.040  0.00  0.00    +0.046 A 
ATOM     16  C   LIG    1       -0.552  -4.047  -0.049  0.00  0.00    +0.004 A 
ATOM     17  C   LIG    1       -1.822  -4.602  -0.038  0.00  0.00    +0.001 A 
ATOM     18  C   LIG    1       -2.935  -3.790  -0.018  0.00  0.00    +0.017 A 
ATOM     19  C   LIG    1       -2.784  -2.401  -0.003  0.00  0.00    +0.079 A 
BRANCH  14  20
ATOM     20  O   LIG    1       -1.339  -0.497  -0.011  0.00  0.00    -0.491 OA
BRANCH  20  22
ATOM     21  C   LIG    1       -0.021   1.528  -0.015  0.00  0.00    +0.048 C 
ATOM     22  C   LIG    1        0.001  -0.002  -0.029  0.00  0.00    +0.226 C 
ENDBRANCH  20  22
ENDBRANCH  14  20
ENDBRANCH   1  19
TORSDOF 5
