REMARK  Name = ZINC04755281
REMARK                            x       y       z     vdW  Elec       q    Type
REMARK                         _______ _______ _______ _____ _____    ______ ____
ROOT
ATOM      1  N   LIG    1        0.662  -4.072   2.526  0.00  0.00    -0.080 N 
ATOM      2  H   LIG    1        1.084  -4.447   1.737  0.00  0.00    +0.361 HD
ENDROOT
BRANCH   1   3
ATOM      3  C   LIG    1        0.052  -2.845   2.461  0.00  0.00    +0.315 C 
ATOM      4  N   LIG    1       -0.514  -2.341   3.522  0.00  0.00    -0.284 N 
ATOM      5  H   LIG    1       -0.946  -1.474   3.475  0.00  0.00    +0.301 HD
ATOM      6  H   LIG    1       -0.504  -2.833   4.358  0.00  0.00    +0.301 HD
BRANCH   3  12
ATOM      7  C   LIG    1       -0.018   1.503   0.010  0.00  0.00    +0.044 C 
ATOM      8  C   LIG    1        0.002  -0.004   0.002  0.00  0.00    -0.050 A 
ATOM      9  C   LIG    1        0.006  -0.688  -1.201  0.00  0.00    +0.003 A 
ATOM     10  C   LIG    1        0.025  -2.071  -1.216  0.00  0.00    +0.001 A 
ATOM     11  C   LIG    1        0.040  -2.777  -0.031  0.00  0.00    +0.016 A 
ATOM     12  C   LIG    1        0.036  -2.093   1.185  0.00  0.00    +0.067 A 
ATOM     13  C   LIG    1        0.023  -0.699   1.194  0.00  0.00    +0.019 A 
ENDBRANCH   3  12
ENDBRANCH   1   3
BRANCH   1  14
ATOM     14  O   LIG    1        0.677  -4.791   3.746  0.00  0.00    -0.258 OA
BRANCH  14  15
ATOM     15  C   LIG    1        1.306  -5.976   3.674  0.00  0.00    +0.390 C 
ATOM     16  O   LIG    1        1.798  -6.341   2.624  0.00  0.00    -0.240 OA
BRANCH  15  17
ATOM     17  C   LIG    1        1.400  -6.836   4.872  0.00  0.00    +0.082 A 
ATOM     18  C   LIG    1        0.832  -6.423   6.078  0.00  0.00    +0.017 A 
ATOM     19  C   LIG    1        0.923  -7.231   7.192  0.00  0.00    +0.004 A 
ATOM     20  C   LIG    1        1.577  -8.448   7.117  0.00  0.00    -0.049 A 
ATOM     21  C   LIG    1        1.673  -9.324   8.340  0.00  0.00    +0.044 C 
ATOM     22  C   LIG    1        2.142  -8.865   5.926  0.00  0.00    +0.024 A 
ATOM     23  C   LIG    1        2.053  -8.069   4.801  0.00  0.00    +0.055 A 
ATOM     24 CL   LIG    1        2.757  -8.597   3.304  0.00  0.00    -0.083 Cl
ENDBRANCH  15  17
ENDBRANCH  14  15
ENDBRANCH   1  14
TORSDOF 5
