REMARK  Name = ZINC04293721
REMARK                            x       y       z     vdW  Elec       q    Type
REMARK                         _______ _______ _______ _____ _____    ______ ____
ROOT
ATOM      1  C   LIG    1       -3.566  -3.433   0.016  0.00  0.00    +0.089 C 
ATOM      2  C   LIG    1       -2.771  -2.153   0.016  0.00  0.00    +0.141 A 
ATOM      3  C   LIG    1       -1.423  -2.038  -0.001  0.00  0.00    +0.056 A 
ATOM      4  C   LIG    1       -1.199  -0.637   0.010  0.00  0.00    +0.259 A 
ATOM      5  N   LIG    1       -2.379  -0.077   0.024  0.00  0.00    -0.040 NA
ATOM      6  O   LIG    1       -3.261  -0.905   0.027  0.00  0.00    -0.356 OA
ENDROOT
BRANCH   3   7
ATOM      7  C   LIG    1       -0.398  -3.142  -0.024  0.00  0.00    +0.039 C 
BRANCH   7   8
ATOM      8  CA  LIG    1       -0.035  -3.530   1.411  0.00  0.00    +0.040 C 
BRANCH   8   9
ATOM      9  N   LIG    1       -1.202  -4.112   2.098  0.00  0.00    +0.387 N 
ATOM     10  H1  LIG    1       -0.929  -4.396   3.046  0.00  0.00    -0.089 HD
ATOM     11  H2  LIG    1       -1.535  -4.929   1.589  0.00  0.00    -0.089 HD
ATOM     12  H3  LIG    1       -1.950  -3.424   2.159  0.00  0.00    -0.089 HD
ENDBRANCH   8   9
BRANCH   8  13
ATOM     13  C   LIG    1        1.078  -4.547   1.391  0.00  0.00    +0.290 C 
ATOM     14  O   LIG    1        0.827  -5.720   1.534  0.00  0.00    -0.253 OA
BRANCH  13  15
ATOM     15  OXT LIG    1        2.347  -4.148   1.213  0.00  0.00    -0.482 OA
ATOM     16  HXT LIG    1        2.542  -3.239   1.102  0.00  0.00    +0.295 HD
ENDBRANCH  13  15
ENDBRANCH   8  13
ENDBRANCH   7   8
ENDBRANCH   3   7
BRANCH   4  17
ATOM     17  O   LIG    1        0.002  -0.004   0.002  0.00  0.00    -0.463 OA
BRANCH  17  18
ATOM     18  C   LIG    1       -0.017   1.425   0.010  0.00  0.00    +0.351 C 
BRANCH  18  19
ATOM     19  C   LIG    1        1.397   1.946  -0.001  0.00  0.00    +0.343 C 
ATOM     20  O   LIG    1        2.325   1.174  -0.014  0.00  0.00    -0.247 OA
BRANCH  19  21
ATOM     21  O   LIG    1        1.624   3.269   0.004  0.00  0.00    -0.478 OA
ATOM     22  H   LIG    1        0.903   3.868   0.014  0.00  0.00    +0.295 HD
ENDBRANCH  19  21
ENDBRANCH  18  19
ENDBRANCH  17  18
ENDBRANCH   4  17
TORSDOF 9
