REMARK  Name = ZINC04243783
REMARK                            x       y       z     vdW  Elec       q    Type
REMARK                         _______ _______ _______ _____ _____    ______ ____
ROOT
ATOM      1  C   LIG    1        1.360  -4.168   2.184  0.00  0.00    +0.190 C 
ATOM      2  O   LIG    1        0.850  -4.832   1.302  0.00  0.00    -0.287 OA
ENDROOT
BRANCH   1   3
ATOM      3  C   LIG    1        2.038  -4.836   3.315  0.00  0.00    +0.023 A 
ATOM      4  C   LIG    1        2.619  -4.076   4.333  0.00  0.00    +0.012 A 
ATOM      5  C   LIG    1        3.251  -4.705   5.385  0.00  0.00    +0.002 A 
ATOM      6  C   LIG    1        3.309  -6.087   5.435  0.00  0.00    +0.015 A 
ATOM      7  C   LIG    1        2.736  -6.847   4.429  0.00  0.00    +0.019 A 
ATOM      8 BR   LIG    1        2.823  -8.734   4.507  0.00  0.00    -0.050 Br
ATOM      9  C   LIG    1        2.096  -6.230   3.373  0.00  0.00    +0.027 A 
ENDBRANCH   1   3
BRANCH   1  11
ATOM     10  C   LIG    1        0.680  -2.092   1.091  0.00  0.00    +0.205 C 
ATOM     11  C   LIG    1        1.301  -2.704   2.126  0.00  0.00    +0.104 C 
BRANCH  10  12
ATOM     12  C   LIG    1        0.620  -0.613   1.032  0.00  0.00    +0.374 C 
ATOM     13  O   LIG    1        1.129   0.050   1.913  0.00  0.00    -0.242 OA
BRANCH  12  15
ATOM     14  C   LIG    1       -0.017   1.425   0.010  0.00  0.00    +0.280 C 
ATOM     15  O   LIG    1        0.002  -0.004   0.002  0.00  0.00    -0.462 OA
ENDBRANCH  12  15
ENDBRANCH  10  12
BRANCH  10  16
ATOM     16  O   LIG    1        0.113  -2.831   0.110  0.00  0.00    -0.501 OA
ATOM     17  H   LIG    1       -0.317  -2.407  -0.607  0.00  0.00    +0.292 HD
ENDBRANCH  10  16
ENDBRANCH   1  11
TORSDOF 5
