REMARK  Name = ZINC04098757
REMARK                            x       y       z     vdW  Elec       q    Type
REMARK                         _______ _______ _______ _____ _____    ______ ____
ROOT
ATOM      1  C   LIG    1       -2.034  -2.405  -1.783  0.00  0.00    +0.015 C 
ATOM      2  C   LIG    1       -1.831  -0.929  -1.434  0.00  0.00    +0.075 C 
ATOM      3  C   LIG    1       -1.294  -0.774   0.010  0.00  0.00    +0.210 C 
ATOM      4  O   LIG    1       -2.321  -0.026   0.742  0.00  0.00    -0.485 OA
ATOM      5  C   LIG    1       -2.983   0.727  -0.164  0.00  0.00    +0.138 C 
ATOM      6  C   LIG    1       -3.378   2.013  -0.277  0.00  0.00    +0.095 C 
ATOM      7  C   LIG    1       -3.864   2.518  -1.509  0.00  0.00    +0.185 C 
ATOM      8  C   LIG    1       -3.800   1.722  -2.744  0.00  0.00    +0.002 C 
ATOM      9  C   LIG    1       -3.468   0.431  -2.705  0.00  0.00    +0.023 C 
ATOM     10  O   LIG    1       -4.347   3.636  -1.545  0.00  0.00    -0.288 OA
ATOM     11  C   LIG    1       -3.182  -0.191  -1.365  0.00  0.00    +0.151 C 
ENDROOT
BRANCH   3  12
ATOM     12  C   LIG    1        0.002  -0.004   0.002  0.00  0.00    -0.003 A 
ATOM     13  C   LIG    1       -0.017   1.378   0.010  0.00  0.00    +0.011 A 
ATOM     14  C   LIG    1        1.169   2.089   0.002  0.00  0.00    +0.050 A 
ATOM     15  C   LIG    1        2.380   1.415  -0.013  0.00  0.00    +0.162 A 
ATOM     16  C   LIG    1        2.399   0.024  -0.021  0.00  0.00    +0.162 A 
ATOM     17  C   LIG    1        1.207  -0.682  -0.013  0.00  0.00    +0.056 A 
BRANCH  15  18
ATOM     18  O   LIG    1        3.548   2.113  -0.020  0.00  0.00    -0.491 OA
ATOM     19  C   LIG    1        3.452   3.539  -0.012  0.00  0.00    +0.277 C 
ENDBRANCH  15  18
BRANCH  16  20
ATOM     20  O   LIG    1        3.585  -0.641  -0.035  0.00  0.00    -0.491 OA
ATOM     21  C   LIG    1        3.528  -2.069  -0.042  0.00  0.00    +0.277 C 
ENDBRANCH  16  20
ENDBRANCH   3  12
BRANCH  11  22
ATOM     22  O   LIG    1       -4.210  -1.136  -1.063  0.00  0.00    -0.364 OA
ATOM     23  C   LIG    1       -5.517  -0.565  -0.972  0.00  0.00    +0.195 C 
ENDBRANCH  11  22
BRANCH   8  24
ATOM     24  C   LIG    1       -4.112   2.373  -4.067  0.00  0.00    +0.065 C 
BRANCH  24  25
ATOM     25  C   LIG    1       -5.601   2.352  -4.298  0.00  0.00    -0.030 C 
ATOM     26  C   LIG    1       -6.241   3.467  -4.546  0.00  0.00    +0.004 C 
ENDBRANCH  24  25
ENDBRANCH   8  24
TORSDOF 6
