REMARK  Name = ZINC04487713
REMARK                            x       y       z     vdW  Elec       q    Type
REMARK                         _______ _______ _______ _____ _____    ______ ____
ROOT
ATOM      1  N   LIG    1       -0.456   1.313  -2.415  0.00  0.00    -0.285 N 
ATOM      2  H   LIG    1        0.291   0.713  -2.568  0.00  0.00    +0.155 HD
ATOM      3  C   LIG    1       -0.721   1.755  -1.170  0.00  0.00    +0.222 C 
ATOM      4  O   LIG    1       -1.593   2.579  -0.992  0.00  0.00    -0.275 OA
ENDROOT
BRANCH   1   6
ATOM      5  C   LIG    1       -0.701   1.888  -4.747  0.00  0.00    +0.061 A 
ATOM      6  C   LIG    1       -1.258   1.719  -3.487  0.00  0.00    +0.039 A 
ATOM      7  C   LIG    1       -2.614   1.947  -3.293  0.00  0.00    +0.061 A 
ATOM      8  C   LIG    1       -3.405   2.354  -4.353  0.00  0.00    +0.128 A 
ATOM      9  F   LIG    1       -4.723   2.582  -4.164  0.00  0.00    -0.205 F 
ATOM     10  C   LIG    1       -2.847   2.522  -5.610  0.00  0.00    +0.076 A 
ATOM     11  C   LIG    1       -1.496   2.288  -5.806  0.00  0.00    +0.128 A 
ATOM     12  F   LIG    1       -0.954   2.453  -7.033  0.00  0.00    -0.205 F 
ENDBRANCH   1   6
BRANCH   3  13
ATOM     13  C   LIG    1        0.067   1.227   0.001  0.00  0.00    +0.101 C 
ATOM     14  C   LIG    1        1.556   1.628  -0.108  0.00  0.00    +0.110 C 
ATOM     15  C   LIG    1        1.970   1.911   1.319  0.00  0.00    +0.217 C 
ATOM     16  N   LIG    1        0.882   2.070   2.093  0.00  0.00    -0.298 N 
ATOM     17  O   LIG    1        3.116   1.984   1.709  0.00  0.00    -0.276 OA
ATOM     18  C   LIG    1       -0.353   1.928   1.312  0.00  0.00    +0.121 C 
BRANCH  16  19
ATOM     19  C   LIG    1        0.924   2.347   3.531  0.00  0.00    +0.076 C 
ATOM     20  C   LIG    1        1.668   3.661   3.775  0.00  0.00    +0.022 C 
ATOM     21  C   LIG    1        1.712   3.951   5.277  0.00  0.00    +0.002 C 
ATOM     22  C   LIG    1        2.438   2.812   5.996  0.00  0.00    +0.000 C 
ATOM     23  C   LIG    1        1.693   1.498   5.751  0.00  0.00    +0.002 C 
ATOM     24  C   LIG    1        1.650   1.208   4.250  0.00  0.00    +0.022 C 
ENDBRANCH  16  19
ENDBRANCH   3  13
TORSDOF 3
