REMARK  Name = ZINC04203228
REMARK                            x       y       z     vdW  Elec       q    Type
REMARK                         _______ _______ _______ _____ _____    ______ ____
ROOT
ATOM      1  CA  LIG    1        2.453   3.936   0.001  0.00  0.00    +0.067 C 
ENDROOT
BRANCH   1   4
ATOM      2  C   LIG    1       -0.013   1.076   0.008  0.00  0.00    +0.002 A 
ATOM      3  C   LIG    1        1.175   1.783   0.000  0.00  0.00    +0.002 A 
ATOM      4  C   LIG    1        1.157   3.165   0.008  0.00  0.00    -0.050 A 
ATOM      5  C   LIG    1       -0.048   3.841   0.023  0.00  0.00    +0.022 A 
ATOM      6  C   LIG    1       -1.237   3.134   0.030  0.00  0.00    +0.041 A 
ATOM      7 CL   LIG    1       -2.752   3.982   0.048  0.00  0.00    -0.084 Cl
ATOM      8  C   LIG    1       -1.219   1.750   0.017  0.00  0.00    +0.020 A 
ENDBRANCH   1   4
BRANCH   1   9
ATOM      9  N   LIG    1        2.362   5.103   0.895  0.00  0.00    +0.390 N 
ATOM     10  H1  LIG    1        3.241   5.632   0.850  0.00  0.00    -0.088 HD
ATOM     11  H2  LIG    1        2.207   4.798   1.854  0.00  0.00    -0.088 HD
ATOM     12  H3  LIG    1        1.595   5.708   0.603  0.00  0.00    -0.088 HD
ENDBRANCH   1   9
BRANCH   1  13
ATOM     13  C   LIG    1        2.746   4.412  -1.399  0.00  0.00    +0.294 C 
ATOM     14  O   LIG    1        2.500   5.552  -1.713  0.00  0.00    -0.253 OA
BRANCH  13  15
ATOM     15  OXT LIG    1        3.281   3.569  -2.296  0.00  0.00    -0.482 OA
ATOM     16  HXT LIG    1        3.472   2.685  -2.052  0.00  0.00    +0.295 HD
ENDBRANCH  13  15
ENDBRANCH   1  13
TORSDOF 4
