REMARK  Name = ZINC04099200
REMARK                            x       y       z     vdW  Elec       q    Type
REMARK                         _______ _______ _______ _____ _____    ______ ____
ROOT
ATOM      1  C   LIG    1       -2.780  -6.493  -1.527  0.00  0.00    +0.198 A 
ATOM      2  N   LIG    1       -1.718  -7.338  -1.456  0.00  0.00    -0.331 N 
ATOM      3  C   LIG    1       -2.220  -8.620  -1.330  0.00  0.00    +0.067 A 
ATOM      4  C   LIG    1       -1.640  -9.876  -1.216  0.00  0.00    +0.031 A 
ATOM      5  C   LIG    1       -2.438 -10.993  -1.103  0.00  0.00    +0.048 A 
ATOM      6  C   LIG    1       -3.825 -10.872  -1.103  0.00  0.00    +0.129 A 
ATOM      7  C   LIG    1       -4.417  -9.630  -1.216  0.00  0.00    +0.075 A 
ATOM      8  C   LIG    1       -3.619  -8.489  -1.330  0.00  0.00    +0.093 A 
ATOM      9  H   LIG    1       -0.781  -7.088  -1.488  0.00  0.00    +0.168 HD
ATOM     10  N   LIG    1       -3.892  -7.164  -1.448  0.00  0.00    -0.220 NA
ENDROOT
BRANCH   1  11
ATOM     11  S   LIG    1       -2.668  -4.742  -1.694  0.00  0.00    +0.095 S 
ATOM     12  O   LIG    1       -3.905  -4.374  -2.289  0.00  0.00    -0.249 OA
BRANCH  11  13
ATOM     13  C   LIG    1       -2.617  -4.141   0.016  0.00  0.00    +0.171 C 
BRANCH  13  18
ATOM     14  C   LIG    1       -1.200  -0.637   0.010  0.00  0.00    +0.165 A 
ATOM     15  C   LIG    1       -2.387   0.087   0.019  0.00  0.00    +0.069 A 
ATOM     16  C   LIG    1       -3.589  -0.593   0.027  0.00  0.00    +0.115 A 
ATOM     17  N   LIG    1       -3.622  -1.912   0.026  0.00  0.00    -0.255 NA
ATOM     18  C   LIG    1       -2.520  -2.637   0.017  0.00  0.00    +0.099 A 
ATOM     19  C   LIG    1       -1.275  -2.032   0.003  0.00  0.00    +0.184 A 
BRANCH  14  21
ATOM     20  C   LIG    1       -0.017   1.425   0.010  0.00  0.00    +0.277 C 
ATOM     21  O   LIG    1        0.002  -0.004   0.002  0.00  0.00    -0.491 OA
ENDBRANCH  14  21
BRANCH  19  22
ATOM     22  O   LIG    1       -0.142  -2.784  -0.011  0.00  0.00    -0.490 OA
ATOM     23  C   LIG    1        0.410  -3.150   1.255  0.00  0.00    +0.277 C 
ENDBRANCH  19  22
ENDBRANCH  13  18
ENDBRANCH  11  13
ENDBRANCH   1  11
BRANCH   6  24
ATOM     24  O   LIG    1       -4.601 -11.983  -0.991  0.00  0.00    -0.434 OA
BRANCH  24  25
ATOM     25  C   LIG    1       -3.925 -13.237  -0.878  0.00  0.00    +0.541 C 
ATOM     26  F   LIG    1       -3.114 -13.229   0.262  0.00  0.00    -0.166 F 
ATOM     27  F   LIG    1       -3.133 -13.444  -2.013  0.00  0.00    -0.166 F 
ENDBRANCH  24  25
ENDBRANCH   6  24
TORSDOF 7
