REMARK  Name = ZINC04380838
REMARK                            x       y       z     vdW  Elec       q    Type
REMARK                         _______ _______ _______ _____ _____    ______ ____
ROOT
ATOM      1  C   LIG    1       -0.025   1.700   2.400  0.00  0.00    +0.078 C 
ATOM      2  C   LIG    1       -0.719   1.569   1.249  0.00  0.00    +0.021 C 
ATOM      3  C   LIG    1       -0.014   1.080   0.009  0.00  0.00    +0.061 C 
ATOM      4  N   LIG    1       -2.047   1.878   1.188  0.00  0.00    -0.273 N 
ATOM      5  H   LIG    1       -2.504   1.772   0.339  0.00  0.00    +0.156 HD
ATOM      6  C   LIG    1       -2.757   2.314   2.236  0.00  0.00    +0.304 C 
ATOM      7  N   LIG    1       -2.203   2.495   3.452  0.00  0.00    -0.288 N 
ATOM      8  H   LIG    1       -2.735   2.816   4.197  0.00  0.00    +0.151 HD
ATOM      9  O   LIG    1       -3.938   2.559   2.086  0.00  0.00    -0.252 OA
ATOM     10  C   LIG    1       -0.772   2.195   3.621  0.00  0.00    +0.143 C 
ENDROOT
BRANCH  10  11
ATOM     11  C   LIG    1       -0.641   1.151   4.700  0.00  0.00    -0.022 A 
ATOM     12  C   LIG    1       -1.454   0.033   4.682  0.00  0.00    +0.008 A 
ATOM     13  C   LIG    1       -1.331  -0.927   5.669  0.00  0.00    +0.033 A 
ATOM     14  C   LIG    1       -0.403  -0.763   6.681  0.00  0.00    +0.122 A 
ATOM     15  C   LIG    1        0.406   0.357   6.702  0.00  0.00    +0.033 A 
ATOM     16  C   LIG    1        0.287   1.314   5.712  0.00  0.00    +0.008 A 
BRANCH  14  17
ATOM     17  N   LIG    1       -0.276  -1.788   7.741  0.00  0.00    +0.006 N 
ATOM     18  O   LIG    1        0.542  -1.645   8.632  0.00  0.00    -0.130 OA
BRANCH  17  19
ATOM     19  O   LIG    1       -0.989  -2.776   7.722  0.00  0.00    -0.396 OA
ATOM     20  H   LIG    1       -1.618  -2.886   7.037  0.00  0.00    +0.329 HD
ENDBRANCH  17  19
ENDBRANCH  14  17
ENDBRANCH  10  11
BRANCH   1  21
ATOM     21  C   LIG    1        1.353   1.384   2.463  0.00  0.00    +0.339 C 
ATOM     22  O   LIG    1        1.954   1.078   1.450  0.00  0.00    -0.245 OA
BRANCH  21  23
ATOM     23  O   LIG    1        2.000   1.423   3.646  0.00  0.00    -0.457 OA
BRANCH  23  24
ATOM     24  C   LIG    1        3.391   1.093   3.636  0.00  0.00    +0.260 C 
BRANCH  24  27
ATOM     25  C   LIG    1        5.271   0.344   6.900  0.00  0.00    +0.035 C 
ATOM     26  C   LIG    1        4.721   0.247   5.500  0.00  0.00    -0.031 C 
ATOM     27  C   LIG    1        3.940   1.190   5.036  0.00  0.00    +0.009 C 
ENDBRANCH  24  27
ENDBRANCH  23  24
ENDBRANCH  21  23
ENDBRANCH   1  21
TORSDOF 7
