REMARK  Name = ZINC04356981
REMARK                            x       y       z     vdW  Elec       q    Type
REMARK                         _______ _______ _______ _____ _____    ______ ____
ROOT
ATOM      1  N   LIG    1       -1.413  -1.998   0.005  0.00  0.00    -0.241 N 
ATOM      2  C   LIG    1       -1.974  -2.663   1.000  0.00  0.00    +0.259 C 
ATOM      3  C   LIG    1       -1.937  -4.089   0.960  0.00  0.00    +0.077 C 
ATOM      4  S   LIG    1       -1.060  -4.364  -0.573  0.00  0.00    -0.061 S 
ATOM      5  C   LIG    1       -2.441  -5.004   1.858  0.00  0.00    +0.020 C 
ATOM      6  O   LIG    1       -2.508  -2.075   1.924  0.00  0.00    -0.269 OA
ATOM      7  C   LIG    1       -0.827  -2.651  -1.023  0.00  0.00    +0.121 C 
ATOM      8  S   LIG    1       -0.053  -2.001  -2.405  0.00  0.00    -0.027 S 
ENDROOT
BRANCH   5   9
ATOM      9  C   LIG    1       -2.290  -6.379   1.618  0.00  0.00    +0.005 C 
ATOM     10  C   LIG    1       -2.787  -7.283   2.506  0.00  0.00    +0.046 C 
BRANCH  10  11
ATOM     11  C   LIG    1       -2.635  -8.668   2.264  0.00  0.00    +0.128 A 
ATOM     12  C   LIG    1       -3.093  -9.690   3.072  0.00  0.00    +0.049 A 
ATOM     13  C   LIG    1       -2.721 -10.890   2.446  0.00  0.00    +0.042 A 
ATOM     14  C   LIG    1       -2.068 -10.563   1.309  0.00  0.00    +0.195 A 
ATOM     15  O   LIG    1       -2.023  -9.227   1.199  0.00  0.00    -0.464 OA
ENDBRANCH  10  11
ENDBRANCH   5   9
BRANCH   1  16
ATOM     16  C   LIG    1       -1.433  -0.534   0.013  0.00  0.00    +0.193 C 
BRANCH  16  18
ATOM     17  C   LIG    1       -0.019   1.526   0.010  0.00  0.00    +0.009 C 
ATOM     18  C   LIG    1        0.002  -0.004   0.002  0.00  0.00    +0.015 C 
ATOM     19  C   LIG    1        0.742  -0.511   1.242  0.00  0.00    +0.009 C 
ENDBRANCH  16  18
BRANCH  16  20
ATOM     20  C   LIG    1       -2.162  -0.034  -1.208  0.00  0.00    +0.326 C 
ATOM     21  O   LIG    1       -2.462  -0.811  -2.099  0.00  0.00    -0.249 OA
BRANCH  20  22
ATOM     22  O   LIG    1       -2.452   1.146  -1.305  0.00  0.00    -0.479 OA
ATOM     23  H   LIG    1       -2.222   1.743  -0.620  0.00  0.00    +0.295 HD
ENDBRANCH  20  22
ENDBRANCH  16  20
ENDBRANCH   1  16
TORSDOF 6
