REMARK  Name = ZINC04316122
REMARK                            x       y       z     vdW  Elec       q    Type
REMARK                         _______ _______ _______ _____ _____    ______ ____
ROOT
ATOM      1  C   LIG    1        3.102   4.342  -1.688  0.00  0.00    +0.249 A 
ATOM      2  C   LIG    1        3.880   3.506  -2.472  0.00  0.00    +0.204 A 
ATOM      3  N   LIG    1        4.479   2.329  -2.220  0.00  0.00    -0.209 NA
ATOM      4  C   LIG    1        5.174   1.716  -3.163  0.00  0.00    +0.137 A 
ATOM      5  C   LIG    1        5.282   2.292  -4.433  0.00  0.00    +0.077 A 
ATOM      6  C   LIG    1        4.670   3.511  -4.742  0.00  0.00    +0.087 A 
ATOM      7  C   LIG    1        4.858   3.972  -6.046  0.00  0.00    +0.036 A 
ATOM      8  C   LIG    1        5.594   3.252  -6.923  0.00  0.00    +0.048 A 
ATOM      9  S   LIG    1        6.085   1.839  -5.949  0.00  0.00    -0.092 S 
ATOM     10  N   LIG    1        3.953   4.102  -3.699  0.00  0.00    -0.192 N 
ATOM     11  N   LIG    1        3.220   5.291  -3.612  0.00  0.00    -0.057 NA
ATOM     12  N   LIG    1        2.741   5.389  -2.421  0.00  0.00    -0.108 NA
ENDROOT
BRANCH   1  13
ATOM     13  S   LIG    1        2.670   4.067  -0.002  0.00  0.00    +0.047 S 
ATOM     14  O   LIG    1        3.661   3.202   0.535  0.00  0.00    -0.163 OA
ATOM     15  O   LIG    1        2.387   5.342   0.558  0.00  0.00    -0.163 OA
BRANCH  13  19
ATOM     16  C   LIG    1       -1.219   1.751   0.017  0.00  0.00    +0.000 A 
ATOM     17  C   LIG    1       -0.013   1.076   0.008  0.00  0.00    +0.002 A 
ATOM     18  C   LIG    1        1.175   1.783   0.000  0.00  0.00    +0.027 A 
ATOM     19  C   LIG    1        1.156   3.165   0.008  0.00  0.00    +0.095 A 
ATOM     20  C   LIG    1       -0.050   3.840   0.023  0.00  0.00    +0.027 A 
ATOM     21  C   LIG    1       -1.238   3.133   0.030  0.00  0.00    +0.002 A 
ENDBRANCH  13  19
ENDBRANCH   1  13
BRANCH   4  22
ATOM     22  N   LIG    1        5.793   0.508  -2.894  0.00  0.00    -0.321 N 
ATOM     23  H   LIG    1        6.303   0.059  -3.587  0.00  0.00    +0.148 HD
BRANCH  22  24
ATOM     24  C   LIG    1        5.679  -0.093  -1.563  0.00  0.00    +0.177 C 
BRANCH  24  25
ATOM     25  C   LIG    1        6.437  -1.395  -1.533  0.00  0.00    +0.122 A 
ATOM     26  C   LIG    1        7.732  -1.544  -1.201  0.00  0.00    +0.046 A 
ATOM     27  C   LIG    1        8.027  -2.922  -1.308  0.00  0.00    +0.041 A 
ATOM     28  C   LIG    1        6.895  -3.534  -1.699  0.00  0.00    +0.195 A 
ATOM     29  O   LIG    1        5.934  -2.605  -1.829  0.00  0.00    -0.466 OA
ENDBRANCH  24  25
ENDBRANCH  22  24
ENDBRANCH   4  22
TORSDOF 5
