REMARK  Name = ZINC04243782
REMARK                            x       y       z     vdW  Elec       q    Type
REMARK                         _______ _______ _______ _____ _____    ______ ____
ROOT
ATOM      1  C   LIG    1       -1.248  -2.102   0.003  0.00  0.00    +0.143 A 
ATOM      2  C   LIG    1       -2.386  -2.886   0.004  0.00  0.00    +0.064 A 
ATOM      3  C   LIG    1       -1.922  -4.214  -0.006  0.00  0.00    +0.095 A 
ATOM      4  N   LIG    1       -0.606  -4.175  -0.012  0.00  0.00    -0.173 NA
ATOM      5  N   LIG    1       -0.185  -2.962  -0.013  0.00  0.00    -0.270 N 
ATOM      6  H   LIG    1        0.747  -2.696  -0.020  0.00  0.00    +0.189 HD
ENDROOT
BRANCH   3   7
ATOM      7  C   LIG    1       -2.764  -5.437  -0.009  0.00  0.00    +0.020 A 
ATOM      8  C   LIG    1       -4.153  -5.329  -0.007  0.00  0.00    +0.013 A 
ATOM      9  C   LIG    1       -4.931  -6.469  -0.010  0.00  0.00    +0.021 A 
ATOM     10  C   LIG    1       -4.334  -7.718  -0.014  0.00  0.00    +0.042 A 
ATOM     11 CL   LIG    1       -5.319  -9.148  -0.017  0.00  0.00    -0.083 Cl
ATOM     12  C   LIG    1       -2.955  -7.831  -0.016  0.00  0.00    +0.040 A 
ATOM     13  C   LIG    1       -2.167  -6.696  -0.019  0.00  0.00    +0.052 A 
ATOM     14 CL   LIG    1       -0.437  -6.839  -0.028  0.00  0.00    -0.083 Cl
ENDBRANCH   3   7
BRANCH   1  15
ATOM     15  C   LIG    1       -1.191  -0.632   0.010  0.00  0.00    +0.357 C 
ATOM     16  O   LIG    1       -2.219   0.016   0.023  0.00  0.00    -0.243 OA
BRANCH  15  18
ATOM     17  C   LIG    1       -0.017   1.425   0.010  0.00  0.00    +0.280 C 
ATOM     18  O   LIG    1        0.002  -0.004   0.002  0.00  0.00    -0.463 OA
ENDBRANCH  15  18
ENDBRANCH   1  15
TORSDOF 3
