REMARK  Name = ZINC04755281
REMARK                            x       y       z     vdW  Elec       q    Type
REMARK                         _______ _______ _______ _____ _____    ______ ____
ROOT
ATOM      1  C   LIG    1        0.051  -2.845   2.460  0.00  0.00    +0.363 C 
ATOM      2  N   LIG    1        0.068  -4.147   2.448  0.00  0.00    +0.163 NA
ENDROOT
BRANCH   1   8
ATOM      3  C   LIG    1       -0.018   1.503   0.010  0.00  0.00    +0.044 C 
ATOM      4  C   LIG    1        0.002  -0.004   0.002  0.00  0.00    -0.050 A 
ATOM      5  C   LIG    1        0.006  -0.688  -1.201  0.00  0.00    +0.003 A 
ATOM      6  C   LIG    1        0.024  -2.071  -1.217  0.00  0.00    +0.001 A 
ATOM      7  C   LIG    1        0.039  -2.777  -0.031  0.00  0.00    +0.016 A 
ATOM      8  C   LIG    1        0.036  -2.094   1.184  0.00  0.00    +0.070 A 
ATOM      9  C   LIG    1        0.023  -0.699   1.194  0.00  0.00    +0.019 A 
ENDBRANCH   1   8
BRANCH   1  10
ATOM     10  N   LIG    1        0.047  -2.165   3.664  0.00  0.00    -0.243 N 
ATOM     11  H   LIG    1        0.057  -2.657   4.499  0.00  0.00    +0.289 HD
ATOM     12  H   LIG    1        0.035  -1.195   3.672  0.00  0.00    +0.289 HD
ENDBRANCH   1  10
BRANCH   2  13
ATOM     13  O   LIG    1        0.082  -4.866   3.668  0.00  0.00    -0.212 OA
BRANCH  13  14
ATOM     14  C   LIG    1        0.099  -6.203   3.515  0.00  0.00    +0.395 C 
ATOM     15  O   LIG    1        0.100  -6.687   2.400  0.00  0.00    -0.240 OA
BRANCH  14  16
ATOM     16  C   LIG    1        0.115  -7.082   4.701  0.00  0.00    +0.082 A 
ATOM     17  C   LIG    1        0.108  -6.529   5.984  0.00  0.00    +0.017 A 
ATOM     18  C   LIG    1        0.123  -7.355   7.088  0.00  0.00    +0.004 A 
ATOM     19  C   LIG    1        0.145  -8.730   6.928  0.00  0.00    -0.049 A 
ATOM     20  C   LIG    1        0.162  -9.625   8.140  0.00  0.00    +0.044 C 
ATOM     21  C   LIG    1        0.153  -9.285   5.662  0.00  0.00    +0.024 A 
ATOM     22  C   LIG    1        0.133  -8.470   4.547  0.00  0.00    +0.055 A 
ATOM     23 CL   LIG    1        0.135  -9.169   2.958  0.00  0.00    -0.083 Cl
ENDBRANCH  14  16
ENDBRANCH  13  14
ENDBRANCH   2  13
TORSDOF 5
