REMARK  Name = ZINC04172316
REMARK                            x       y       z     vdW  Elec       q    Type
REMARK                         _______ _______ _______ _____ _____    ______ ____
ROOT
ATOM      1  C   LIG    1      -10.614   2.480  -1.099  0.00  0.00    +0.041 C 
ENDROOT
BRANCH   1   2
ATOM      2  C   LIG    1       -9.118   2.202  -1.260  0.00  0.00    +0.007 C 
BRANCH   2   3
ATOM      3  C   LIG    1       -8.401   2.493   0.059  0.00  0.00    +0.041 C 
BRANCH   3   4
ATOM      4  C   LIG    1       -6.905   2.215  -0.101  0.00  0.00    +0.229 C 
BRANCH   4   5
ATOM      5  O   LIG    1       -6.235   2.487   1.131  0.00  0.00    -0.492 OA
BRANCH   5   7
ATOM      6  C   LIG    1       -4.183   2.536   2.326  0.00  0.00    +0.036 A 
ATOM      7  C   LIG    1       -4.893   2.290   1.159  0.00  0.00    +0.127 A 
ATOM      8  C   LIG    1       -4.235   1.843   0.017  0.00  0.00    +0.047 A 
ATOM      9  C   LIG    1       -2.885   1.641   0.032  0.00  0.00    +0.018 A 
ATOM     10  C   LIG    1       -2.152   1.884   1.201  0.00  0.00    +0.059 A 
ATOM     11  C   LIG    1       -2.815   2.330   2.359  0.00  0.00    +0.134 A 
BRANCH  10  12
ATOM     12  C   LIG    1       -0.703   1.668   1.220  0.00  0.00    +0.164 C 
ATOM     13  C   LIG    1        0.003   1.184  -0.021  0.00  0.00    +0.092 C 
ATOM     14  O   LIG    1       -0.071   1.879   2.234  0.00  0.00    -0.292 OA
ENDBRANCH  10  12
BRANCH  11  15
ATOM     15  O   LIG    1       -2.117   2.563   3.498  0.00  0.00    -0.506 OA
ATOM     16  H   LIG    1       -1.786   3.468   3.579  0.00  0.00    +0.292 HD
ENDBRANCH  11  15
BRANCH   6  17
ATOM     17  C   LIG    1       -4.903   3.021   3.559  0.00  0.00    +0.042 C 
BRANCH  17  19
ATOM     18  C   LIG    1       -6.085   2.311   5.642  0.00  0.00    +0.004 C 
ATOM     19  C   LIG    1       -5.355   1.819   4.391  0.00  0.00    +0.001 C 
ENDBRANCH  17  19
ENDBRANCH   6  17
ENDBRANCH   5   7
ENDBRANCH   4   5
ENDBRANCH   3   4
ENDBRANCH   2   3
ENDBRANCH   1   2
BRANCH   1  20
ATOM     20  C   LIG    1      -11.332   2.189  -2.419  0.00  0.00    +0.229 C 
BRANCH  20  21
ATOM     21  O   LIG    1      -12.729   2.448  -2.269  0.00  0.00    -0.491 OA
BRANCH  21  22
ATOM     22  C   LIG    1      -13.514   2.239  -3.355  0.00  0.00    +0.134 A 
ATOM     23  C   LIG    1      -12.959   1.800  -4.542  0.00  0.00    +0.092 A 
ATOM     24  C   LIG    1      -13.765   1.579  -5.655  0.00  0.00    +0.128 A 
ATOM     25  C   LIG    1      -15.134   1.806  -5.580  0.00  0.00    -0.005 A 
ATOM     26  C   LIG    1      -16.035   1.569  -6.767  0.00  0.00    +0.043 C 
ATOM     27  C   LIG    1      -15.196   1.512  -8.046  0.00  0.00    +0.061 C 
ATOM     28  C   LIG    1      -14.010   0.571  -7.804  0.00  0.00    +0.281 C 
ATOM     29  C   LIG    1      -15.696   2.248  -4.413  0.00  0.00    +0.022 A 
ATOM     30  O   LIG    1      -13.176   1.147  -6.798  0.00  0.00    -0.477 OA
ATOM     31  C   LIG    1      -14.899   2.472  -3.283  0.00  0.00    +0.059 A 
BRANCH  31  32
ATOM     32  C   LIG    1      -15.505   2.946  -2.036  0.00  0.00    +0.164 C 
ATOM     33  C   LIG    1      -16.966   3.310  -1.999  0.00  0.00    +0.092 C 
ATOM     34  O   LIG    1      -14.829   3.044  -1.033  0.00  0.00    -0.292 OA
ENDBRANCH  31  32
BRANCH  28  35
ATOM     35  C   LIG    1      -13.226   0.403  -9.080  0.00  0.00    +0.346 C 
ATOM     36  O   LIG    1      -12.096   0.825  -9.154  0.00  0.00    -0.247 OA
BRANCH  35  37
ATOM     37  O   LIG    1      -13.783  -0.215 -10.133  0.00  0.00    -0.478 OA
ATOM     38  H   LIG    1      -14.659  -0.542 -10.075  0.00  0.00    +0.295 HD
ENDBRANCH  35  37
ENDBRANCH  28  35
ENDBRANCH  21  22
ENDBRANCH  20  21
ENDBRANCH   1  20
TORSDOF 15
