REMARK  Name = ZINC04363864
REMARK                            x       y       z     vdW  Elec       q    Type
REMARK                         _______ _______ _______ _____ _____    ______ ____
ROOT
ATOM      1  N   LIG    1        4.204  -2.835  -4.198  0.00  0.00    -0.168 NA
ENDROOT
BRANCH   1   2
ATOM      2  C   LIG    1        5.160  -1.817  -4.639  0.00  0.00    +0.110 C 
ATOM      3  C   LIG    1        5.999  -1.363  -3.446  0.00  0.00    +0.026 C 
ATOM      4  C   LIG    1        7.130  -0.466  -3.963  0.00  0.00    +0.007 C 
ATOM      5  C   LIG    1        8.119  -1.336  -4.737  0.00  0.00    +0.035 C 
ATOM      6  C   LIG    1        7.399  -2.171  -5.763  0.00  0.00    -0.043 A 
ATOM      7  C   LIG    1        8.152  -2.727  -6.788  0.00  0.00    +0.004 A 
ATOM      8  C   LIG    1        7.554  -3.507  -7.755  0.00  0.00    +0.000 A 
ATOM      9  C   LIG    1        6.192  -3.735  -7.706  0.00  0.00    +0.000 A 
ATOM     10  C   LIG    1        5.440  -3.180  -6.690  0.00  0.00    +0.005 A 
ATOM     11  C   LIG    1        6.041  -2.395  -5.716  0.00  0.00    -0.025 A 
ENDBRANCH   1   2
BRANCH   1  12
ATOM     12  S   LIG    1        2.587  -2.635  -4.491  0.00  0.00    +0.062 S 
ATOM     13  O   LIG    1        2.481  -1.758  -5.604  0.00  0.00    -0.153 OA
ATOM     14  O   LIG    1        2.009  -3.933  -4.485  0.00  0.00    -0.153 OA
BRANCH  12  18
ATOM     15  C   LIG    1        0.848  -0.422  -0.939  0.00  0.00    +0.162 A 
ATOM     16  C   LIG    1        1.342   0.284  -2.024  0.00  0.00    +0.051 A 
ATOM     17  C   LIG    1        1.873  -0.394  -3.106  0.00  0.00    +0.032 A 
ATOM     18  C   LIG    1        1.910  -1.776  -3.108  0.00  0.00    +0.109 A 
ATOM     19  C   LIG    1        1.418  -2.486  -2.029  0.00  0.00    +0.078 A 
ATOM     20  C   LIG    1        0.891  -1.813  -0.939  0.00  0.00    +0.163 A 
BRANCH  15  22
ATOM     21  C   LIG    1        0.315   1.671   0.057  0.00  0.00    +0.277 C 
ATOM     22  O   LIG    1        0.326   0.244   0.126  0.00  0.00    -0.491 OA
ENDBRANCH  15  22
BRANCH  20  23
ATOM     23  O   LIG    1        0.412  -2.510   0.126  0.00  0.00    -0.491 OA
ATOM     24  C   LIG    1        0.489  -3.935   0.057  0.00  0.00    +0.277 C 
ENDBRANCH  20  23
ENDBRANCH  12  18
ENDBRANCH   1  12
BRANCH   1  25
ATOM     25  C   LIG    1        4.679  -4.032  -3.499  0.00  0.00    +0.125 C 
BRANCH  25  26
ATOM     26  C   LIG    1        5.083  -5.095  -4.523  0.00  0.00    +0.135 C 
BRANCH  26  27
ATOM     27  C   LIG    1        5.433  -6.342  -3.824  0.00  0.00    +0.064 C 
ATOM     28  N   LIG    1        5.703  -7.304  -3.284  0.00  0.00    -0.197 NA
ENDBRANCH  26  27
ENDBRANCH  25  26
ENDBRANCH   1  25
TORSDOF 8
