REMARK  Name = ZINC04098925
REMARK                            x       y       z     vdW  Elec       q    Type
REMARK                         _______ _______ _______ _____ _____    ______ ____
ROOT
ATOM      1  C   LIG    1       -0.019   1.526   0.010  0.00  0.00    +0.011 C 
ATOM      2  C   LIG    1        0.002  -0.004   0.002  0.00  0.00    +0.025 C 
ATOM      3  C   LIG    1        0.783  -0.539  -1.229  0.00  0.00    +0.025 C 
ATOM      4  C   LIG    1        0.374  -1.976  -1.560  0.00  0.00    +0.011 C 
ATOM      5  C   LIG    1        2.239  -0.480  -0.702  0.00  0.00    +0.152 C 
ATOM      6  O   LIG    1        2.150  -0.834   0.688  0.00  0.00    -0.364 OA
ATOM      7  C   LIG    1        0.831  -0.549   1.185  0.00  0.00    +0.152 C 
ENDROOT
BRANCH   5   8
ATOM      8  C   LIG    1        3.104  -1.468  -1.441  0.00  0.00    -0.015 A 
ATOM      9  C   LIG    1        3.074  -2.806  -1.093  0.00  0.00    +0.010 A 
ATOM     10  C   LIG    1        3.865  -3.717  -1.768  0.00  0.00    +0.050 A 
ATOM     11  C   LIG    1        4.691  -3.290  -2.796  0.00  0.00    +0.162 A 
ATOM     12  C   LIG    1        4.720  -1.943  -3.146  0.00  0.00    +0.162 A 
ATOM     13  C   LIG    1        3.921  -1.036  -2.469  0.00  0.00    +0.055 A 
BRANCH  11  14
ATOM     14  O   LIG    1        5.470  -4.184  -3.461  0.00  0.00    -0.491 OA
ATOM     15  C   LIG    1        5.388  -5.549  -3.046  0.00  0.00    +0.277 C 
ENDBRANCH  11  14
BRANCH  12  16
ATOM     16  O   LIG    1        5.529  -1.519  -4.154  0.00  0.00    -0.491 OA
ATOM     17  C   LIG    1        5.508  -0.123  -4.459  0.00  0.00    +0.277 C 
ENDBRANCH  12  16
ENDBRANCH   5   8
BRANCH   7  18
ATOM     18  C   LIG    1        0.905   0.487   2.277  0.00  0.00    -0.015 A 
ATOM     19  C   LIG    1        1.801   1.535   2.175  0.00  0.00    +0.010 A 
ATOM     20  C   LIG    1        1.873   2.487   3.174  0.00  0.00    +0.050 A 
ATOM     21  C   LIG    1        1.045   2.393   4.282  0.00  0.00    +0.162 A 
ATOM     22  C   LIG    1        0.143   1.339   4.384  0.00  0.00    +0.162 A 
ATOM     23  C   LIG    1        0.073   0.390   3.377  0.00  0.00    +0.055 A 
BRANCH  21  24
ATOM     24  O   LIG    1        1.114   3.329   5.266  0.00  0.00    -0.491 OA
ATOM     25  C   LIG    1        2.064   4.383   5.093  0.00  0.00    +0.277 C 
ENDBRANCH  21  24
BRANCH  22  26
ATOM     26  O   LIG    1       -0.672   1.242   5.469  0.00  0.00    -0.491 OA
ATOM     27  C   LIG    1       -1.573   0.133   5.507  0.00  0.00    +0.277 C 
ENDBRANCH  22  26
ENDBRANCH   7  18
TORSDOF 6
