REMARK  Name = ZINC04393149
REMARK                            x       y       z     vdW  Elec       q    Type
REMARK                         _______ _______ _______ _____ _____    ______ ____
ROOT
ATOM      1  N   LIG    1        1.744  -3.321   3.188  0.00  0.00    -0.174 NA
ATOM      2  C   LIG    1        2.665  -4.442   2.924  0.00  0.00    +0.110 C 
ATOM      3  C   LIG    1        4.073  -3.798   2.887  0.00  0.00    +0.019 C 
ATOM      4  C   LIG    1        3.952  -2.720   3.997  0.00  0.00    +0.022 C 
ATOM      5  C   LIG    1        2.490  -2.245   3.856  0.00  0.00    +0.078 C 
ENDROOT
BRANCH   1   6
ATOM      6  S   LIG    1        0.137  -3.278   2.790  0.00  0.00    +0.061 S 
ATOM      7  O   LIG    1       -0.268  -4.626   2.592  0.00  0.00    -0.153 OA
ATOM      8  O   LIG    1       -0.492  -2.425   3.736  0.00  0.00    -0.153 OA
BRANCH   6  14
ATOM      9  C   LIG    1       -0.427   1.016  -0.135  0.00  0.00    +0.044 C 
ATOM     10  C   LIG    1       -0.253  -0.479  -0.066  0.00  0.00    -0.049 A 
ATOM     11  C   LIG    1       -0.195  -1.223  -1.229  0.00  0.00    +0.003 A 
ATOM     12  C   LIG    1       -0.036  -2.595  -1.165  0.00  0.00    +0.002 A 
ATOM     13  C   LIG    1        0.066  -3.222   0.062  0.00  0.00    +0.028 A 
ATOM     14  C   LIG    1        0.008  -2.478   1.226  0.00  0.00    +0.106 A 
ATOM     15  C   LIG    1       -0.146  -1.106   1.162  0.00  0.00    +0.032 A 
ENDBRANCH   6  14
ENDBRANCH   1   6
BRANCH   5  16
ATOM     16  C   LIG    1        1.896  -1.982   5.241  0.00  0.00    +0.002 C 
BRANCH  16  17
ATOM     17  C   LIG    1        2.626  -0.806   5.894  0.00  0.00    -0.077 C 
BRANCH  17  18
ATOM     18  N   LIG    1        2.144  -0.636   7.272  0.00  0.00    +0.380 N 
ATOM     19  H   LIG    1        2.251  -1.504   7.775  0.00  0.00    -0.082 HD
ATOM     20  C   LIG    1        0.725  -0.259   7.249  0.00  0.00    -0.079 C 
ATOM     21  C   LIG    1        0.197  -0.159   8.682  0.00  0.00    -0.016 C 
ATOM     22  C   LIG    1        0.997   0.903   9.441  0.00  0.00    -0.018 C 
ATOM     23  C   LIG    1        0.528   0.953  10.897  0.00  0.00    +0.007 C 
ATOM     24  C   LIG    1        2.484   0.539   9.395  0.00  0.00    -0.016 C 
ATOM     25  C   LIG    1        2.927   0.413   7.936  0.00  0.00    -0.079 C 
ENDBRANCH  17  18
ENDBRANCH  16  17
ENDBRANCH   5  16
TORSDOF 5
