REMARK  Name = ZINC04809572
REMARK                            x       y       z     vdW  Elec       q    Type
REMARK                         _______ _______ _______ _____ _____    ______ ____
ROOT
ATOM      1  C   LIG    1       -1.624  -1.893   2.906  0.00  0.00    +0.077 C 
ATOM      2  C   LIG    1       -0.961  -2.205   4.220  0.00  0.00    +0.007 A 
ATOM      3  C   LIG    1        0.412  -2.347   4.283  0.00  0.00    +0.053 A 
ATOM      4  C   LIG    1        1.026  -2.636   5.492  0.00  0.00    +0.121 A 
ATOM      5  C   LIG    1        0.260  -2.783   6.640  0.00  0.00    +0.049 A 
ATOM      6  C   LIG    1       -1.111  -2.642   6.577  0.00  0.00    +0.050 A 
ATOM      7  C   LIG    1       -1.727  -2.353   5.366  0.00  0.00    +0.132 A 
ATOM      8  O   LIG    1       -3.072  -2.215   5.309  0.00  0.00    -0.460 OA
ATOM      9  C   LIG    1       -3.724  -2.376   4.143  0.00  0.00    +0.113 C 
ATOM     10  C   LIG    1       -5.196  -2.712   4.196  0.00  0.00    +0.081 C 
ATOM     11  C   LIG    1       -5.572  -3.567   2.998  0.00  0.00    -0.021 C 
ATOM     12  C   LIG    1       -7.072  -3.871   3.034  0.00  0.00    +0.012 C 
ATOM     13  C   LIG    1       -4.778  -4.874   3.024  0.00  0.00    +0.012 C 
ATOM     14  C   LIG    1       -5.236  -2.784   1.724  0.00  0.00    +0.086 C 
ATOM     15  C   LIG    1       -3.778  -2.416   1.751  0.00  0.00    +0.164 C 
ATOM     16  O   LIG    1       -3.182  -2.267   0.703  0.00  0.00    -0.292 OA
ATOM     17  C   LIG    1       -3.091  -2.239   2.967  0.00  0.00    +0.042 C 
ENDROOT
BRANCH   1  24
ATOM     18  C   LIG    1       -0.019   1.526   0.010  0.00  0.00    +0.012 C 
ATOM     19  C   LIG    1        0.002  -0.004   0.002  0.00  0.00    -0.022 C 
ATOM     20  C   LIG    1        0.720  -0.497  -1.256  0.00  0.00    +0.012 C 
ATOM     21  C   LIG    1       -1.435  -0.533   0.009  0.00  0.00    +0.082 C 
ATOM     22  C   LIG    1       -2.123  -0.076   1.276  0.00  0.00    +0.145 C 
ATOM     23  O   LIG    1       -3.165   0.533   1.231  0.00  0.00    -0.297 OA
ATOM     24  C   LIG    1       -1.467  -0.402   2.602  0.00  0.00    +0.133 C 
ATOM     25  C   LIG    1        0.003  -0.053   2.480  0.00  0.00    +0.145 C 
ATOM     26  O   LIG    1        0.567   0.572   3.345  0.00  0.00    -0.297 OA
ATOM     27  C   LIG    1        0.743  -0.511   1.243  0.00  0.00    +0.082 C 
ENDBRANCH   1  24
BRANCH   4  28
ATOM     28  O   LIG    1        2.377  -2.776   5.553  0.00  0.00    -0.495 OA
ATOM     29  C   LIG    1        2.941  -3.074   6.832  0.00  0.00    +0.277 C 
ENDBRANCH   4  28
TORSDOF 2
