REMARK  Name = ZINC04520858
REMARK                            x       y       z     vdW  Elec       q    Type
REMARK                         _______ _______ _______ _____ _____    ______ ____
ROOT
ATOM      1  C   LIG    1       -2.966   1.295   2.337  0.00  0.00    +0.023 A 
ATOM      2  C   LIG    1       -4.316   1.011   2.273  0.00  0.00    +0.111 A 
ATOM      3  N   LIG    1       -4.884   0.709   1.122  0.00  0.00    -0.263 NA
ATOM      4  C   LIG    1       -4.194   0.665   0.002  0.00  0.00    +0.114 A 
ATOM      5  C   LIG    1       -2.834   0.936  -0.012  0.00  0.00    -0.026 A 
ATOM      6  C   LIG    1       -2.099   0.864  -1.323  0.00  0.00    +0.037 C 
ATOM      7  C   LIG    1       -0.762   1.598  -1.228  0.00  0.00    +0.005 C 
ATOM      8  C   LIG    1       -0.013   1.086   0.008  0.00  0.00    +0.005 C 
ATOM      9  C   LIG    1       -0.736   1.583   1.259  0.00  0.00    +0.035 C 
ATOM     10  C   LIG    1       -2.207   1.260   1.173  0.00  0.00    -0.041 A 
ENDROOT
TORSDOF 0
