REMARK  Name = ZINC04533915
REMARK                            x       y       z     vdW  Elec       q    Type
REMARK                         _______ _______ _______ _____ _____    ______ ____
ROOT
ATOM      1  C   LIG    1       -0.031  -1.704  -1.570  0.00  0.00    +0.226 C 
ATOM      2  C   LIG    1       -1.367  -1.147  -1.016  0.00  0.00    +0.088 C 
ATOM      3  C   LIG    1       -0.883  -0.222   0.127  0.00  0.00    +0.146 C 
ATOM      4  C   LIG    1        0.587   0.077  -0.225  0.00  0.00    +0.132 C 
ATOM      5  O   LIG    1        0.873  -0.580  -1.471  0.00  0.00    -0.353 OA
ENDROOT
BRANCH   1   9
ATOM      6  C   LIG    1        3.185  -3.524   1.694  0.00  0.00    +0.051 C 
ATOM      7  C   LIG    1        1.977  -3.686   0.807  0.00  0.00    +0.030 A 
ATOM      8  C   LIG    1        1.544  -2.658   0.046  0.00  0.00    +0.101 A 
ATOM      9  N   LIG    1        0.443  -2.821  -0.749  0.00  0.00    -0.274 N 
ATOM     10  C   LIG    1       -0.206  -3.999  -0.788  0.00  0.00    +0.331 A 
ATOM     11  N   LIG    1        0.207  -5.041  -0.044  0.00  0.00    -0.275 N 
ATOM     12  H   LIG    1       -0.287  -5.910  -0.085  0.00  0.00    +0.173 HD
ATOM     13  O   LIG    1       -1.180  -4.123  -1.505  0.00  0.00    -0.246 OA
ATOM     14  C   LIG    1        1.285  -4.920   0.757  0.00  0.00    +0.257 A 
ATOM     15  O   LIG    1        1.660  -5.863   1.430  0.00  0.00    -0.267 OA
ENDBRANCH   1   9
BRANCH   3  16
ATOM     16  O   LIG    1       -1.647   0.986   0.154  0.00  0.00    -0.389 OA
ATOM     17  H   LIG    1       -2.580   0.856   0.370  0.00  0.00    +0.210 HD
ENDBRANCH   3  16
BRANCH   4  18
ATOM     18  C   LIG    1        0.789   1.586  -0.373  0.00  0.00    -0.052 C 
BRANCH  18  19
ATOM     19  N   LIG    1        2.193   1.848  -0.738  0.00  0.00    +0.380 N 
ATOM     20  H   LIG    1        2.396   1.403  -1.641  0.00  0.00    -0.090 HD
ATOM     21  H   LIG    1        2.816   1.463  -0.030  0.00  0.00    -0.090 HD
ATOM     22  H   LIG    1        2.351   2.851  -0.820  0.00  0.00    -0.090 HD
ENDBRANCH  18  19
ENDBRANCH   4  18
TORSDOF 4
