REMARK  Name = ZINC04386695
REMARK                            x       y       z     vdW  Elec       q    Type
REMARK                         _______ _______ _______ _____ _____    ______ ____
ROOT
ATOM      1  C   LIG    1        0.518  -0.625  -2.570  0.00  0.00    +0.051 A 
ATOM      2  C   LIG    1       -0.817  -0.954  -2.790  0.00  0.00    +0.025 A 
ATOM      3  C   LIG    1       -1.272  -1.168  -4.071  0.00  0.00    +0.015 A 
ATOM      4  C   LIG    1       -0.393  -1.055  -5.152  0.00  0.00    +0.037 A 
ATOM      5  C   LIG    1        0.947  -0.725  -4.928  0.00  0.00    +0.015 A 
ATOM      6  C   LIG    1        1.395  -0.506  -3.645  0.00  0.00    +0.025 A 
ENDROOT
BRANCH   4   7
ATOM      7  C   LIG    1       -0.878  -1.285  -6.526  0.00  0.00    +0.244 C 
ATOM      8  N   LIG    1       -0.029  -1.175  -7.567  0.00  0.00    -0.311 N 
ATOM      9  H   LIG    1        0.900  -0.946  -7.413  0.00  0.00    +0.149 HD
ATOM     10  O   LIG    1       -2.044  -1.572  -6.719  0.00  0.00    -0.270 OA
BRANCH   8  11
ATOM     11  C   LIG    1       -0.511  -1.403  -8.932  0.00  0.00    +0.106 C 
BRANCH  11  12
ATOM     12  C   LIG    1        0.644  -1.218  -9.918  0.00  0.00    +0.040 C 
BRANCH  12  13
ATOM     13  C   LIG    1        0.141  -1.456 -11.343  0.00  0.00    +0.124 C 
BRANCH  13  14
ATOM     14  N   LIG    1        1.247  -1.279 -12.287  0.00  0.00    -0.338 N 
ATOM     15  C   LIG    1        1.615  -0.110 -12.897  0.00  0.00    +0.104 A 
ATOM     16  C   LIG    1        2.674  -0.394 -13.679  0.00  0.00    +0.101 A 
ATOM     17  N   LIG    1        2.945  -1.702 -13.550  0.00  0.00    -0.352 N 
ATOM     18  H   LIG    1        3.661  -2.174 -14.004  0.00  0.00    +0.166 HD
ATOM     19  C   LIG    1        2.098  -2.237 -12.714  0.00  0.00    +0.173 A 
ENDBRANCH  13  14
ENDBRANCH  12  13
ENDBRANCH  11  12
ENDBRANCH   8  11
ENDBRANCH   4   7
BRANCH   1  20
ATOM     20  N   LIG    1        0.975  -0.409  -1.275  0.00  0.00    -0.204 N 
BRANCH  20  22
ATOM     21  C   LIG    1       -0.680  -1.270   0.749  0.00  0.00    +0.218 C 
ATOM     22  S   LIG    1        0.861  -1.615  -0.145  0.00  0.00    +0.043 S 
ATOM     23  O   LIG    1        0.730  -2.810  -0.902  0.00  0.00    -0.155 OA
ATOM     24  O   LIG    1        1.978  -1.417   0.710  0.00  0.00    -0.155 OA
ENDBRANCH  20  22
BRANCH  20  25
ATOM     25  C   LIG    1        1.558   0.884  -0.910  0.00  0.00    +0.158 C 
BRANCH  25  26
ATOM     26  C   LIG    1        3.021   0.896  -1.274  0.00  0.00    -0.014 C 
ATOM     27  C   LIG    1        3.496   1.842  -2.046  0.00  0.00    +0.005 C 
ENDBRANCH  25  26
ENDBRANCH  20  25
ENDBRANCH   1  20
TORSDOF 9
