REMARK  Name = ZINC04799653
REMARK                            x       y       z     vdW  Elec       q    Type
REMARK                         _______ _______ _______ _____ _____    ______ ____
ROOT
ATOM      1  C   LIG    1        1.615  -8.193  -6.524  0.00  0.00    +0.008 C 
ATOM      2  C   LIG    1        1.627  -8.955  -5.224  0.00  0.00    -0.007 C 
ATOM      3  C   LIG    1        1.728 -10.314  -5.212  0.00  0.00    +0.038 C 
ATOM      4  C   LIG    1        1.736 -11.002  -3.990  0.00  0.00    +0.124 C 
ATOM      5  N   LIG    1        1.648 -10.407  -2.775  0.00  0.00    -0.298 NA
ATOM      6  H   LIG    1        1.657 -10.945  -1.900  0.00  0.00    +0.124 HD
ATOM      7  C   LIG    1        1.546  -9.033  -2.789  0.00  0.00    +0.059 C 
ATOM      8  C   LIG    1        1.453  -8.363  -1.557  0.00  0.00    +0.021 C 
ATOM      9  C   LIG    1        1.351  -7.008  -1.525  0.00  0.00    +0.024 C 
ATOM     10  C   LIG    1        1.337  -6.259  -2.707  0.00  0.00    +0.073 C 
ATOM     11  C   LIG    1        1.422  -6.883  -3.933  0.00  0.00    +0.027 C 
ATOM     12  C   LIG    1        1.533  -8.280  -3.990  0.00  0.00    +0.011 C 
ENDROOT
BRANCH   4  13
ATOM     13  N   LIG    1        1.839 -12.386  -3.993  0.00  0.00    -0.291 NA
ATOM     14  C   LIG    1        0.768 -12.992  -4.797  0.00  0.00    +0.067 C 
ATOM     15  C   LIG    1        0.964 -14.509  -4.840  0.00  0.00    -0.064 C 
ATOM     16  N   LIG    1        0.930 -15.034  -3.458  0.00  0.00    +0.379 N 
ATOM     17  H   LIG    1        0.032 -14.784  -3.028  0.00  0.00    -0.082 HD
ATOM     18  C   LIG    1        1.063 -16.506  -3.473  0.00  0.00    -0.096 C 
ATOM     19  C   LIG    1        2.024 -14.435  -2.666  0.00  0.00    -0.064 C 
ATOM     20  C   LIG    1        1.829 -12.917  -2.623  0.00  0.00    +0.067 C 
ENDBRANCH   4  13
BRANCH  10  21
ATOM     21  N   LIG    1        1.231  -4.865  -2.644  0.00  0.00    -0.312 N 
ATOM     22  H   LIG    1        0.735  -4.385  -3.325  0.00  0.00    +0.149 HD
ATOM     23  C   LIG    1        1.820  -4.189  -1.637  0.00  0.00    +0.214 C 
ATOM     24  O   LIG    1        2.370  -4.793  -0.742  0.00  0.00    -0.276 OA
BRANCH  23  25
ATOM     25  C   LIG    1        1.794  -2.682  -1.625  0.00  0.00    +0.100 C 
BRANCH  25  26
ATOM     26  C   LIG    1        2.526  -2.170  -0.384  0.00  0.00    +0.044 C 
BRANCH  26  27
ATOM     27  C   LIG    1        2.500  -0.663  -0.371  0.00  0.00    -0.047 A 
ATOM     28  C   LIG    1        1.461   0.004   0.251  0.00  0.00    +0.007 A 
ATOM     29  C   LIG    1        1.435   1.385   0.264  0.00  0.00    +0.046 A 
ATOM     30  C   LIG    1        2.453   2.103  -0.347  0.00  0.00    +0.120 A 
ATOM     31  C   LIG    1        3.495   1.431  -0.970  0.00  0.00    +0.046 A 
ATOM     32  C   LIG    1        3.516   0.050  -0.981  0.00  0.00    +0.007 A 
BRANCH  30  33
ATOM     33  O   LIG    1        2.429   3.462  -0.336  0.00  0.00    -0.495 OA
ATOM     34  C   LIG    1        3.510   4.135  -0.985  0.00  0.00    +0.277 C 
ENDBRANCH  30  33
ENDBRANCH  26  27
ENDBRANCH  25  26
ENDBRANCH  23  25
ENDBRANCH  10  21
TORSDOF 6
