REMARK  Name = ZINC04535621
REMARK                            x       y       z     vdW  Elec       q    Type
REMARK                         _______ _______ _______ _____ _____    ______ ____
ROOT
ATOM      1  CA  PHE A  1       -2.945   0.711   1.462  0.00  0.00    +0.166 C 
ENDROOT
BRANCH   1   4
ATOM      2  N   PHE A  1       -5.359   0.678   0.922  0.00  0.00    -0.301 N 
ATOM      3  H   PHE A  1       -5.250   1.557   0.527  0.00  0.00    +0.150 HD
ATOM      4  C   PHE A  1       -4.299   0.049   1.467  0.00  0.00    +0.234 C 
ATOM      5  O   PHE A  1       -4.434  -1.051   1.961  0.00  0.00    -0.274 OA
BRANCH   2   6
ATOM      6  CA  PHE A  1       -6.675   0.034   0.927  0.00  0.00    +0.182 C 
BRANCH   6   7
ATOM      7  C   PHE A  1       -6.790  -0.882  -0.264  0.00  0.00    +0.325 C 
ATOM      8  O   PHE A  1       -5.867  -0.987  -1.037  0.00  0.00    -0.249 OA
BRANCH   7   9
ATOM      9  OXT PHE A  1       -7.917  -1.582  -0.466  0.00  0.00    -0.479 OA
ATOM     10  HXT PHE A  1       -8.633  -1.501   0.134  0.00  0.00    +0.295 HD
ENDBRANCH   7   9
ENDBRANCH   6   7
BRANCH   6  11
ATOM     11  CB  PHE A  1       -7.766   1.104   0.855  0.00  0.00    +0.036 C 
BRANCH  11  13
ATOM     12  CD1 PHE A  1       -8.735   3.103   1.998  0.00  0.00    +0.007 C 
ATOM     13  CG  PHE A  1       -7.729   1.958   2.124  0.00  0.00    -0.015 C 
ATOM     14  CD2 PHE A  1       -8.091   1.091   3.332  0.00  0.00    +0.007 C 
ENDBRANCH  11  13
ENDBRANCH   6  11
ENDBRANCH   2   6
ENDBRANCH   1   4
BRANCH   1  15
ATOM     15  N   PHE A  1       -1.968  -0.170   2.108  0.00  0.00    -0.269 N 
ATOM     16  H   PHE A  1       -2.119  -1.128   2.129  0.00  0.00    +0.153 HD
ATOM     17  C   UNK A  0       -0.861   0.351   2.672  0.00  0.00    +0.401 C 
ATOM     18  O   UNK A  0       -0.672   1.551   2.646  0.00  0.00    -0.226 OA
BRANCH  17  19
ATOM     19  O   UNK A  0        0.037  -0.459   3.266  0.00  0.00    -0.446 OA
BRANCH  19  20
ATOM     20  C   UNK A  0        1.206   0.172   3.853  0.00  0.00    +0.269 C 
BRANCH  20  21
ATOM     21  C   UNK A  0        2.090  -0.883   4.466  0.00  0.00    -0.010 A 
ATOM     22  C   UNK A  0        1.916  -1.248   5.788  0.00  0.00    +0.007 A 
ATOM     23  C   UNK A  0        2.724  -2.219   6.349  0.00  0.00    +0.000 A 
ATOM     24  C   UNK A  0        3.713  -2.818   5.591  0.00  0.00    +0.000 A 
ATOM     25  C   UNK A  0        3.891  -2.449   4.271  0.00  0.00    +0.000 A 
ATOM     26  C   UNK A  0        3.079  -1.482   3.708  0.00  0.00    +0.007 A 
ENDBRANCH  20  21
ENDBRANCH  19  20
ENDBRANCH  17  19
ENDBRANCH   1  15
BRANCH   1  27
ATOM     27  CB  PHE A  1       -2.514   0.980   0.019  0.00  0.00    +0.067 C 
BRANCH  27  28
ATOM     28  CG  PHE A  1       -1.219   1.751   0.017  0.00  0.00    -0.045 A 
ATOM     29  CD2 PHE A  1       -0.013   1.076   0.008  0.00  0.00    +0.004 A 
ATOM     30  CE2 PHE A  1        1.175   1.783   0.000  0.00  0.00    +0.000 A 
ATOM     31  CZ  PHE A  1        1.156   3.165   0.008  0.00  0.00    +0.000 A 
ATOM     32  CE1 PHE A  1       -0.050   3.840   0.022  0.00  0.00    +0.000 A 
ATOM     33  CD1 PHE A  1       -1.238   3.133   0.030  0.00  0.00    +0.004 A 
ENDBRANCH  27  28
ENDBRANCH   1  27
TORSDOF 12
