REMARK  Name = ZINC04134477
REMARK                            x       y       z     vdW  Elec       q    Type
REMARK                         _______ _______ _______ _____ _____    ______ ____
ROOT
ATOM      1  C   LIG    1        2.216  -4.332  -1.672  0.00  0.00    +0.184 C 
ATOM      2  C   LIG    1        0.940  -5.138  -1.906  0.00  0.00    +0.049 C 
ATOM      3  C   LIG    1        1.303  -6.630  -1.906  0.00  0.00    +0.031 C 
ATOM      4  C   LIG    1        2.259  -6.866  -3.048  0.00  0.00    -0.023 C 
ATOM      5  C   LIG    1        3.119  -5.935  -3.416  0.00  0.00    -0.045 C 
ATOM      6  C   LIG    1        4.002  -6.179  -4.579  0.00  0.00    -0.000 C 
ATOM      7  C   LIG    1        4.638  -5.168  -5.141  0.00  0.00    -0.023 C 
ATOM      8  C   LIG    1        4.554  -3.751  -4.663  0.00  0.00    +0.012 C 
ATOM      9  C   LIG    1        5.808  -3.425  -3.850  0.00  0.00    +0.012 C 
ATOM     10  C   LIG    1        3.320  -3.519  -3.790  0.00  0.00    +0.007 C 
ATOM     11  C   LIG    1        3.263  -4.614  -2.722  0.00  0.00    +0.063 C 
ENDROOT
BRANCH   1  12
ATOM     12  O   LIG    1        1.897  -2.939  -1.695  0.00  0.00    -0.461 OA
BRANCH  12  13
ATOM     13  C   LIG    1        1.537  -2.377  -0.531  0.00  0.00    +0.310 C 
ATOM     14  O   LIG    1        1.494  -3.045   0.475  0.00  0.00    -0.251 OA
BRANCH  13  15
ATOM     15  C   LIG    1        1.186  -0.912  -0.478  0.00  0.00    +0.094 C 
ATOM     16  C   LIG    1       -0.001  -0.639  -1.404  0.00  0.00    +0.019 C 
BRANCH  15  18
ATOM     17  C   LIG    1        0.579   0.981   1.034  0.00  0.00    +0.004 C 
ATOM     18  C   LIG    1        0.814  -0.528   0.955  0.00  0.00    +0.011 C 
ENDBRANCH  15  18
ENDBRANCH  13  15
ENDBRANCH  12  13
ENDBRANCH   1  12
BRANCH  10  19
ATOM     19  C   LIG    1        3.413  -2.149  -3.116  0.00  0.00    +0.007 C 
BRANCH  19  20
ATOM     20  C   LIG    1        3.943  -1.122  -4.119  0.00  0.00    +0.032 C 
BRANCH  20  21
ATOM     21  C   LIG    1        4.037   0.248  -3.445  0.00  0.00    +0.117 C 
BRANCH  21  22
ATOM     22  O   LIG    1        5.012   0.200  -2.401  0.00  0.00    -0.392 OA
ATOM     23  H   LIG    1        5.901  -0.030  -2.704  0.00  0.00    +0.210 HD
ENDBRANCH  21  22
BRANCH  21  24
ATOM     24  C   LIG    1        4.448   1.298  -4.479  0.00  0.00    +0.063 C 
BRANCH  24  25
ATOM     25  C   LIG    1        4.420   2.686  -3.835  0.00  0.00    +0.128 C 
BRANCH  25  26
ATOM     26  O   LIG    1        5.414   2.755  -2.810  0.00  0.00    -0.391 OA
ATOM     27  H   LIG    1        6.315   2.605  -3.126  0.00  0.00    +0.210 HD
ENDBRANCH  25  26
BRANCH  25  28
ATOM     28  C   LIG    1        4.709   3.747  -4.898  0.00  0.00    +0.151 C 
BRANCH  28  29
ATOM     29  C   LIG    1        4.561   5.119  -4.292  0.00  0.00    +0.307 C 
ATOM     30  O   LIG    1        4.254   5.237  -3.118  0.00  0.00    -0.251 OA
BRANCH  29  31
ATOM     31  O   LIG    1        4.750   6.111  -4.975  0.00  0.00    -0.481 OA
ATOM     32  H   LIG    1        4.986   6.020  -5.878  0.00  0.00    +0.295 HD
ENDBRANCH  29  31
ENDBRANCH  28  29
ENDBRANCH  25  28
ENDBRANCH  24  25
ENDBRANCH  21  24
ENDBRANCH  20  21
ENDBRANCH  19  20
ENDBRANCH  10  19
TORSDOF 14
