REMARK  Name = ZINC04136159
REMARK                            x       y       z     vdW  Elec       q    Type
REMARK                         _______ _______ _______ _____ _____    ______ ____
ROOT
ATOM      1  C   LIG    1        1.129   2.014   0.449  0.00  0.00    +0.162 A 
ATOM      2  C   LIG    1        2.347   1.365   0.384  0.00  0.00    +0.057 A 
ATOM      3  C   LIG    1        2.397   0.011   0.034  0.00  0.00    -0.020 A 
ATOM      4  C   LIG    1        1.211  -0.679  -0.249  0.00  0.00    +0.012 A 
ATOM      5  C   LIG    1        0.001  -0.024  -0.182  0.00  0.00    +0.050 A 
ATOM      6  C   LIG    1       -0.047   1.320   0.166  0.00  0.00    +0.162 A 
ENDROOT
BRANCH   3   7
ATOM      7  C   LIG    1        3.688  -0.685  -0.037  0.00  0.00    +0.028 C 
ATOM      8  C   LIG    1        3.754  -1.943  -0.542  0.00  0.00    +0.077 C 
ATOM      9  C   LIG    1        4.892  -2.884  -0.579  0.00  0.00    +0.258 C 
ATOM     10  N   LIG    1        4.669  -4.062  -1.137  0.00  0.00    -0.255 N 
ATOM     11  C   LIG    1        3.465  -4.380  -1.654  0.00  0.00    +0.121 C 
ATOM     12  S   LIG    1        2.986  -5.836  -2.417  0.00  0.00    -0.027 S 
ATOM     13  O   LIG    1        5.979  -2.591  -0.116  0.00  0.00    -0.269 OA
ATOM     14  S   LIG    1        2.490  -2.914  -1.352  0.00  0.00    -0.061 S 
BRANCH  10  15
ATOM     15  C   LIG    1        5.756  -5.041  -1.200  0.00  0.00    +0.115 C 
BRANCH  15  16
ATOM     16  C   LIG    1        6.543  -4.848  -2.498  0.00  0.00    +0.019 C 
BRANCH  16  17
ATOM     17  C   LIG    1        7.678  -5.871  -2.563  0.00  0.00    +0.002 C 
BRANCH  17  18
ATOM     18  C   LIG    1        8.465  -5.677  -3.862  0.00  0.00    +0.011 C 
BRANCH  18  19
ATOM     19  C   LIG    1        9.600  -6.700  -3.927  0.00  0.00    +0.120 C 
BRANCH  19  20
ATOM     20  C   LIG    1       10.375  -6.510  -5.206  0.00  0.00    +0.305 C 
ATOM     21  O   LIG    1       10.052  -5.644  -5.985  0.00  0.00    -0.251 OA
BRANCH  20  22
ATOM     22  O   LIG    1       11.424  -7.301  -5.480  0.00  0.00    -0.481 OA
ATOM     23  H   LIG    1       11.675  -7.972  -4.876  0.00  0.00    +0.295 HD
ENDBRANCH  20  22
ENDBRANCH  19  20
ENDBRANCH  18  19
ENDBRANCH  17  18
ENDBRANCH  16  17
ENDBRANCH  15  16
ENDBRANCH  10  15
ENDBRANCH   3   7
BRANCH   1  25
ATOM     24  C   LIG    1        2.320   3.978   1.066  0.00  0.00    +0.277 C 
ATOM     25  O   LIG    1        1.077   3.329   0.789  0.00  0.00    -0.491 OA
ENDBRANCH   1  25
BRANCH   6  26
ATOM     26  O   LIG    1       -1.243   1.962   0.224  0.00  0.00    -0.484 OA
BRANCH  26  27
ATOM     27  C   LIG    1       -2.407   1.193  -0.083  0.00  0.00    +0.264 C 
BRANCH  27  28
ATOM     28  C   LIG    1       -3.630   2.066   0.033  0.00  0.00    -0.010 A 
ATOM     29  C   LIG    1       -4.300   2.159   1.239  0.00  0.00    +0.008 A 
ATOM     30  C   LIG    1       -5.418   2.964   1.349  0.00  0.00    +0.020 A 
ATOM     31  C   LIG    1       -5.875   3.667   0.248  0.00  0.00    +0.041 A 
ATOM     32 CL   LIG    1       -7.283   4.673   0.383  0.00  0.00    -0.084 Cl
ATOM     33  C   LIG    1       -5.207   3.569  -0.960  0.00  0.00    +0.020 A 
ATOM     34  C   LIG    1       -4.086   2.768  -1.067  0.00  0.00    +0.008 A 
ENDBRANCH  27  28
ENDBRANCH  26  27
ENDBRANCH   6  26
TORSDOF 12
