REMARK  Name = ZINC04392967
REMARK                            x       y       z     vdW  Elec       q    Type
REMARK                         _______ _______ _______ _____ _____    ______ ____
ROOT
ATOM      1  C   LIG    1       -3.875  -0.616  -0.668  0.00  0.00    +0.012 C 
ATOM      2  C   LIG    1       -4.187   0.882  -0.634  0.00  0.00    -0.019 C 
ATOM      3  C   LIG    1       -5.132   1.178   0.531  0.00  0.00    +0.013 C 
ATOM      4  C   LIG    1       -6.387   0.307   0.396  0.00  0.00    +0.055 C 
ATOM      5  C   LIG    1       -6.988   0.530  -0.974  0.00  0.00    +0.058 C 
ATOM      6  C   LIG    1       -6.086   0.413  -2.184  0.00  0.00    +0.065 C 
ATOM      7  N   LIG    1       -8.229   0.810  -1.107  0.00  0.00    -0.094 NA
ATOM      8  C   LIG    1       -2.877   1.648  -0.446  0.00  0.00    -0.001 C 
ATOM      9  C   LIG    1       -2.290   1.343   0.929  0.00  0.00    +0.005 C 
ATOM     10  C   LIG    1       -0.924   2.019   1.122  0.00  0.00    +0.015 C 
ATOM     11  C   LIG    1       -0.019   1.526   0.010  0.00  0.00    +0.029 C 
ATOM     12  C   LIG    1        0.002  -0.004   0.002  0.00  0.00    +0.019 C 
ATOM     13  C   LIG    1       -0.612   2.048  -1.325  0.00  0.00    +0.006 C 
ATOM     14  C   LIG    1        0.536   1.751  -2.298  0.00  0.00    +0.012 C 
ATOM     15  C   LIG    1        1.789   2.143  -1.468  0.00  0.00    +0.075 C 
ATOM     16  C   LIG    1        1.387   2.051  -0.000  0.00  0.00    +0.139 C 
ATOM     17  O   LIG    1        2.062   2.341   0.958  0.00  0.00    -0.297 OA
ATOM     18  C   LIG    1       -1.900   1.282  -1.574  0.00  0.00    +0.004 C 
ATOM     19  C   LIG    1       -2.487   1.695  -2.928  0.00  0.00    +0.078 C 
ATOM     20  C   LIG    1       -3.862   1.083  -3.072  0.00  0.00    +0.138 C 
ATOM     21  O   LIG    1       -4.160   0.446  -4.054  0.00  0.00    -0.297 OA
ATOM     22  C   LIG    1       -4.853   1.292  -1.950  0.00  0.00    +0.067 C 
ENDROOT
BRANCH   7  23
ATOM     23  O   LIG    1       -9.058   0.915   0.037  0.00  0.00    -0.396 OA
BRANCH  23  24
ATOM     24  C   LIG    1      -10.419   1.232  -0.259  0.00  0.00    +0.243 C 
BRANCH  24  25
ATOM     25  C   LIG    1      -11.217   1.320   1.044  0.00  0.00    -0.042 C 
BRANCH  25  26
ATOM     26  N   LIG    1      -10.727   2.464   1.831  0.00  0.00    +0.380 N 
ATOM     27  H   LIG    1      -10.877   3.329   1.299  0.00  0.00    -0.090 HD
ATOM     28  H   LIG    1       -9.731   2.358   2.018  0.00  0.00    -0.090 HD
ATOM     29  H   LIG    1      -11.233   2.524   2.713  0.00  0.00    -0.090 HD
ENDBRANCH  25  26
ENDBRANCH  24  25
ENDBRANCH  23  24
ENDBRANCH   7  23
TORSDOF 4
