REMARK  Name = ZINC04420173
REMARK                            x       y       z     vdW  Elec       q    Type
REMARK                         _______ _______ _______ _____ _____    ______ ____
ROOT
ATOM      1  C   LIG    1       -1.294  -0.774   0.010  0.00  0.00    +0.187 C 
ATOM      2  N   LIG    1       -2.320  -0.010   0.741  0.00  0.00    -0.322 N 
ATOM      3  H   LIG    1       -3.039   0.440   0.269  0.00  0.00    +0.148 HD
ATOM      4  C   LIG    1       -2.228   0.047   2.133  0.00  0.00    +0.038 A 
ATOM      5  C   LIG    1       -2.778   1.079   2.855  0.00  0.00    +0.023 A 
ATOM      6  C   LIG    1       -2.672   1.101   4.245  0.00  0.00    +0.002 A 
ATOM      7  C   LIG    1       -2.025   0.111   4.922  0.00  0.00    +0.009 A 
ATOM      8  C   LIG    1       -1.447  -0.959   4.218  0.00  0.00    -0.014 A 
ATOM      9  C   LIG    1       -0.765  -1.998   4.874  0.00  0.00    +0.009 A 
ATOM     10  C   LIG    1       -0.217  -3.016   4.151  0.00  0.00    +0.002 A 
ATOM     11  C   LIG    1       -0.318  -3.054   2.762  0.00  0.00    +0.023 A 
ATOM     12  C   LIG    1       -0.978  -2.056   2.085  0.00  0.00    +0.038 A 
ATOM     13  C   LIG    1       -1.552  -0.990   2.809  0.00  0.00    +0.024 A 
ATOM     14  N   LIG    1       -1.101  -2.064   0.695  0.00  0.00    -0.322 N 
ATOM     15  H   LIG    1       -1.060  -2.894   0.195  0.00  0.00    +0.148 HD
ENDROOT
BRANCH   1  19
ATOM     16  C   LIG    1        2.386   1.405  -0.013  0.00  0.00    +0.161 A 
ATOM     17  C   LIG    1        2.398   0.019  -0.020  0.00  0.00    +0.050 A 
ATOM     18  C   LIG    1        1.207  -0.682  -0.013  0.00  0.00    +0.011 A 
ATOM     19  C   LIG    1        0.002  -0.004   0.002  0.00  0.00    -0.006 A 
ATOM     20  C   LIG    1       -0.017   1.378   0.010  0.00  0.00    +0.056 A 
ATOM     21  C   LIG    1        1.174   2.087   0.002  0.00  0.00    +0.159 A 
BRANCH  16  23
ATOM     22  C   LIG    1        4.763   1.330  -0.036  0.00  0.00    +0.277 C 
ATOM     23  O   LIG    1        3.557   2.096  -0.020  0.00  0.00    -0.491 OA
ENDBRANCH  16  23
BRANCH  21  24
ATOM     24  O   LIG    1        1.157   3.447   0.010  0.00  0.00    -0.503 OA
ATOM     25  H   LIG    1        1.161   3.835   0.896  0.00  0.00    +0.292 HD
ENDBRANCH  21  24
ENDBRANCH   1  19
TORSDOF 3
