REMARK  Name = ZINC04217336
REMARK                            x       y       z     vdW  Elec       q    Type
REMARK                         _______ _______ _______ _____ _____    ______ ____
ROOT
ATOM      1  C   LIG    1        3.400   3.985  -0.033  0.00  0.00    +0.220 C 
ATOM      2  N   LIG    1        3.620   5.299   0.170  0.00  0.00    -0.287 N 
ATOM      3  O   LIG    1        4.333   3.212  -0.071  0.00  0.00    -0.275 OA
ENDROOT
BRANCH   2   4
ATOM      4  C   LIG    1        2.490   6.213   0.348  0.00  0.00    +0.077 C 
ATOM      5  C   LIG    1        2.553   7.343  -0.702  0.00  0.00    +0.022 C 
ATOM      6  C   LIG    1        2.061   8.598   0.061  0.00  0.00    +0.002 C 
ATOM      7  C   LIG    1        2.680   8.407   1.468  0.00  0.00    +0.002 C 
ATOM      8  C   LIG    1        2.570   6.890   1.727  0.00  0.00    +0.022 C 
ENDBRANCH   2   4
BRANCH   1  10
ATOM      9  C   LIG    1        1.345   3.271   1.157  0.00  0.00    +0.018 C 
ATOM     10  C   LIG    1        1.992   3.477  -0.214  0.00  0.00    +0.082 C 
BRANCH  10  11
ATOM     11  C   LIG    1        2.024   2.147  -0.969  0.00  0.00    +0.089 C 
BRANCH  11  12
ATOM     12  S   LIG    1        0.330   1.609  -1.315  0.00  0.00    -0.087 S 
BRANCH  12  13
ATOM     13  C   LIG    1        0.646   0.143  -2.140  0.00  0.00    +0.195 C 
ATOM     14  O   LIG    1        1.791  -0.219  -2.317  0.00  0.00    -0.285 OA
BRANCH  13  15
ATOM     15  C   LIG    1       -0.497  -0.699  -2.645  0.00  0.00    +0.031 C 
ATOM     16  C   LIG    1       -1.327   0.114  -3.641  0.00  0.00    +0.019 C 
ATOM     17  C   LIG    1       -1.380  -1.119  -1.469  0.00  0.00    +0.019 C 
ATOM     18  C   LIG    1        0.055  -1.945  -3.340  0.00  0.00    +0.019 C 
ENDBRANCH  13  15
ENDBRANCH  12  13
ENDBRANCH  11  12
ENDBRANCH  10  11
ENDBRANCH   1  10
BRANCH   2  19
ATOM     19  C   LIG    1        4.992   5.813   0.214  0.00  0.00    +0.228 C 
BRANCH  19  20
ATOM     20  C   LIG    1        5.423   6.213  -1.173  0.00  0.00    +0.322 C 
ATOM     21  O   LIG    1        4.663   6.083  -2.103  0.00  0.00    -0.249 OA
BRANCH  20  22
ATOM     22  O   LIG    1        6.651   6.715  -1.376  0.00  0.00    -0.480 OA
ATOM     23  H   LIG    1        7.241   6.816  -0.655  0.00  0.00    +0.295 HD
ENDBRANCH  20  22
ENDBRANCH  19  20
ENDBRANCH   2  19
TORSDOF 9
