REMARK  Name = ZINC04321884
REMARK                            x       y       z     vdW  Elec       q    Type
REMARK                         _______ _______ _______ _____ _____    ______ ____
ROOT
ATOM      1  C   VAL A  1       -2.174   0.012   1.351  0.00  0.00    +0.234 C 
ATOM      2  N   TYR A  2       -2.766   1.222   1.308  0.00  0.00    -0.301 N 
ATOM      3  H   TYR A  2       -2.793   1.720   0.476  0.00  0.00    +0.150 HD
ATOM      4  O   VAL A  1       -2.059  -0.570   2.409  0.00  0.00    -0.274 OA
ENDROOT
BRANCH   1   5
ATOM      5  CA  VAL A  1       -1.654  -0.618   0.084  0.00  0.00    +0.165 C 
BRANCH   5   6
ATOM      6  N   VAL A  1       -1.687  -2.076   0.215  0.00  0.00    -0.270 N 
ATOM      7  H   VAL A  1       -1.653  -2.485   1.094  0.00  0.00    +0.153 HD
ATOM      8  C   UNK A  0       -1.764  -2.850  -0.886  0.00  0.00    +0.401 C 
ATOM      9  O   UNK A  0       -1.806  -2.338  -1.987  0.00  0.00    -0.226 OA
BRANCH   8  10
ATOM     10  O   UNK A  0       -1.794  -4.191  -0.765  0.00  0.00    -0.446 OA
BRANCH  10  11
ATOM     11  C   UNK A  0       -1.876  -4.949  -1.974  0.00  0.00    +0.269 C 
BRANCH  11  12
ATOM     12  C   UNK A  0       -1.899  -6.419  -1.644  0.00  0.00    -0.010 A 
ATOM     13  C   UNK A  0       -0.715  -7.125  -1.548  0.00  0.00    +0.007 A 
ATOM     14  C   UNK A  0       -0.736  -8.473  -1.246  0.00  0.00    +0.000 A 
ATOM     15  C   UNK A  0       -1.942  -9.116  -1.039  0.00  0.00    +0.000 A 
ATOM     16  C   UNK A  0       -3.127  -8.411  -1.134  0.00  0.00    +0.000 A 
ATOM     17  C   UNK A  0       -3.105  -7.061  -1.432  0.00  0.00    +0.007 A 
ENDBRANCH  11  12
ENDBRANCH  10  11
ENDBRANCH   8  10
ENDBRANCH   5   6
BRANCH   5  19
ATOM     18  CG1 VAL A  1       -0.190   1.355  -0.374  0.00  0.00    +0.009 C 
ATOM     19  CB  VAL A  1       -0.214  -0.160  -0.159  0.00  0.00    +0.012 C 
ATOM     20  CG2 VAL A  1        0.647  -0.517   1.054  0.00  0.00    +0.009 C 
ENDBRANCH   5  19
ENDBRANCH   1   5
BRANCH   2  21
ATOM     21  CA  TYR A  2       -3.370   1.785   2.518  0.00  0.00    +0.186 C 
BRANCH  21  22
ATOM     22  C   TYR A  2       -4.732   1.175   2.731  0.00  0.00    +0.326 C 
ATOM     23  O   TYR A  2       -5.158   0.347   1.944  0.00  0.00    -0.249 OA
BRANCH  22  24
ATOM     24  OXT TYR A  2       -5.407   1.510   3.689  0.00  0.00    -0.479 OA
ATOM     25  HXT TYR A  2       -5.079   2.147   4.293  0.00  0.00    +0.295 HD
ENDBRANCH  22  24
ENDBRANCH  21  22
BRANCH  21  26
ATOM     26  CB  TYR A  2       -3.509   3.301   2.361  0.00  0.00    +0.069 C 
BRANCH  26  27
ATOM     27  CG  TYR A  2       -2.140   3.926   2.289  0.00  0.00    -0.045 A 
ATOM     28  CD2 TYR A  2       -1.449   4.210   3.452  0.00  0.00    +0.007 A 
ATOM     29  CE2 TYR A  2       -0.194   4.784   3.389  0.00  0.00    +0.045 A 
ATOM     30  CZ  TYR A  2        0.374   5.074   2.157  0.00  0.00    +0.117 A 
ATOM     31  CE1 TYR A  2       -0.321   4.787   0.991  0.00  0.00    +0.045 A 
ATOM     32  CD1 TYR A  2       -1.574   4.209   1.060  0.00  0.00    +0.007 A 
BRANCH  30  33
ATOM     33  OH  TYR A  2        1.608   5.639   2.093  0.00  0.00    -0.507 OA
ATOM     34  HH  TYR A  2        2.332   4.999   2.054  0.00  0.00    +0.292 HD
ENDBRANCH  30  33
ENDBRANCH  26  27
ENDBRANCH  21  26
ENDBRANCH   2  21
TORSDOF 12
