REMARK  Name = ZINC04532105
REMARK                            x       y       z     vdW  Elec       q    Type
REMARK                         _______ _______ _______ _____ _____    ______ ____
ROOT
ATOM      1  C   LIG    1        0.475  -1.464  -0.949  0.00  0.00    +0.043 C 
ATOM      2  C   LIG    1        1.741  -1.145  -1.770  0.00  0.00    +0.010 C 
ATOM      3  C   LIG    1        2.367  -2.504  -2.154  0.00  0.00    +0.005 C 
ATOM      4  C   LIG    1        1.166  -3.495  -2.104  0.00  0.00    -0.001 C 
ATOM      5  C   LIG    1        0.372  -3.279  -3.396  0.00  0.00    +0.000 C 
ATOM      6  C   LIG    1        1.111  -4.010  -4.526  0.00  0.00    +0.031 C 
ATOM      7  C   LIG    1        0.294  -3.974  -5.782  0.00  0.00    -0.027 C 
ATOM      8  C   LIG    1       -0.986  -3.783  -5.799  0.00  0.00    -0.065 C 
ATOM      9  C   LIG    1       -1.835  -3.559  -4.546  0.00  0.00    -0.008 C 
ATOM     10  C   LIG    1       -3.022  -4.523  -4.605  0.00  0.00    +0.016 C 
ATOM     11  C   LIG    1       -2.393  -2.138  -4.531  0.00  0.00    +0.014 C 
ATOM     12  C   LIG    1       -2.555  -1.625  -5.961  0.00  0.00    +0.032 C 
ATOM     13  C   LIG    1       -2.951  -2.754  -6.910  0.00  0.00    +0.119 C 
ATOM     14  C   LIG    1       -1.724  -3.736  -7.127  0.00  0.00    +0.062 C 
ATOM     15  C   LIG    1       -1.046  -3.851  -3.275  0.00  0.00    +0.003 C 
ATOM     16  C   LIG    1       -1.768  -3.179  -2.098  0.00  0.00    +0.005 C 
ATOM     17  C   LIG    1       -1.021  -3.507  -0.808  0.00  0.00    +0.008 C 
ATOM     18  C   LIG    1        0.400  -2.994  -0.867  0.00  0.00    -0.021 C 
ATOM     19  C   LIG    1        1.132  -3.461   0.393  0.00  0.00    +0.012 C 
ENDROOT
BRANCH   1  21
ATOM     20  C   LIG    1       -0.552  -1.011   1.408  0.00  0.00    +0.064 C 
ATOM     21  C   LIG    1        0.590  -0.875   0.434  0.00  0.00    +0.058 C 
ATOM     22  N   LIG    1        1.657  -0.260   0.780  0.00  0.00    -0.097 NA
BRANCH  22  23
ATOM     23  O   LIG    1        1.766   0.293   2.079  0.00  0.00    -0.409 OA
ATOM     24  H   LIG    1        2.607   0.738   2.248  0.00  0.00    +0.328 HD
ENDBRANCH  22  23
ENDBRANCH   1  21
BRANCH  13  25
ATOM     25  O   LIG    1       -4.043  -3.486  -6.350  0.00  0.00    -0.391 OA
ATOM     26  H   LIG    1       -4.307  -4.258  -6.870  0.00  0.00    +0.210 HD
ENDBRANCH  13  25
TORSDOF 3
