REMARK  Name = ZINC04243470
REMARK                            x       y       z     vdW  Elec       q    Type
REMARK                         _______ _______ _______ _____ _____    ______ ____
ROOT
ATOM      1  C   LIG    1       -1.309   2.117   0.020  0.00  0.00    +0.091 A 
ATOM      2  C   LIG    1       -1.319   3.523   0.033  0.00  0.00    +0.140 A 
ATOM      3  N   LIG    1       -2.455   4.181   0.037  0.00  0.00    -0.246 NA
ATOM      4  C   LIG    1       -3.607   3.512   0.039  0.00  0.00    +0.147 A 
ATOM      5  C   LIG    1       -4.859   4.178   0.049  0.00  0.00    +0.147 A 
ATOM      6  N   LIG    1       -5.962   3.442   0.050  0.00  0.00    -0.219 NA
ATOM      7  C   LIG    1       -5.909   2.120   0.042  0.00  0.00    +0.225 A 
ATOM      8  N   LIG    1       -4.781   1.450   0.033  0.00  0.00    -0.214 NA
ATOM      9  C   LIG    1       -3.605   2.095   0.031  0.00  0.00    +0.184 A 
ATOM     10  N   LIG    1       -2.445   1.437   0.021  0.00  0.00    -0.224 NA
ENDROOT
BRANCH   1  14
ATOM     11  C   LIG    1        2.396   0.033  -0.021  0.00  0.00    +0.000 A 
ATOM     12  C   LIG    1        1.208  -0.675  -0.013  0.00  0.00    +0.001 A 
ATOM     13  C   LIG    1        0.002  -0.004   0.002  0.00  0.00    +0.010 A 
ATOM     14  C   LIG    1       -0.017   1.390   0.010  0.00  0.00    +0.002 A 
ATOM     15  C   LIG    1        1.184   2.098   0.002  0.00  0.00    +0.010 A 
ATOM     16  C   LIG    1        2.384   1.416  -0.013  0.00  0.00    +0.001 A 
ENDBRANCH   1  14
BRANCH   5  17
ATOM     17  N   LIG    1       -4.928   5.554   0.057  0.00  0.00    -0.341 N 
ATOM     18  H   LIG    1       -5.791   5.997   0.064  0.00  0.00    +0.144 HD
ATOM     19  H   LIG    1       -4.113   6.081   0.057  0.00  0.00    +0.144 HD
ENDBRANCH   5  17
TORSDOF 2
