REMARK  Name = ZINC04394823
REMARK                            x       y       z     vdW  Elec       q    Type
REMARK                         _______ _______ _______ _____ _____    ______ ____
ROOT
ATOM      1  C   LIG    1        0.005   1.379   0.027  0.00  0.00    +0.019 A 
ATOM      2  C   LIG    1        1.196   2.071  -0.009  0.00  0.00    +0.047 A 
ATOM      3  C   LIG    1        2.399   1.383  -0.101  0.00  0.00    +0.129 A 
ATOM      4  C   LIG    1        2.406  -0.006  -0.156  0.00  0.00    +0.047 A 
ATOM      5  C   LIG    1        1.219  -0.705  -0.120  0.00  0.00    +0.019 A 
ATOM      6  C   LIG    1        0.009  -0.016  -0.029  0.00  0.00    +0.070 A 
ENDROOT
BRANCH   6   7
ATOM      7  C   LIG    1       -1.268  -0.763   0.011  0.00  0.00    +0.362 C 
ATOM      8  N   LIG    1       -1.298  -1.976   0.481  0.00  0.00    +0.151 NA
BRANCH   7   9
ATOM      9  N   LIG    1       -2.431  -0.171  -0.453  0.00  0.00    -0.243 N 
ATOM     10  H   LIG    1       -3.268  -0.661  -0.428  0.00  0.00    +0.289 HD
ATOM     11  H   LIG    1       -2.408   0.733  -0.804  0.00  0.00    +0.289 HD
ENDBRANCH   7   9
BRANCH   8  12
ATOM     12  O   LIG    1       -0.142  -2.532   1.080  0.00  0.00    -0.311 OA
ATOM     13  H   LIG    1       -0.261  -3.437   1.399  0.00  0.00    +0.361 HD
ENDBRANCH   8  12
ENDBRANCH   6   7
BRANCH   3  14
ATOM     14  O   LIG    1        3.571   2.068  -0.137  0.00  0.00    -0.453 OA
BRANCH  14  15
ATOM     15  C   LIG    1        4.723   1.356  -0.227  0.00  0.00    +0.168 A 
ATOM     16  C   LIG    1        5.391   0.930   0.919  0.00  0.00    +0.103 A 
ATOM     17 CL   LIG    1        4.762   1.302   2.494  0.00  0.00    -0.078 Cl
ATOM     18  C   LIG    1        6.560   0.207   0.785  0.00  0.00    +0.134 A 
ATOM     19  N   LIG    1        7.045  -0.079  -0.408  0.00  0.00    -0.260 NA
ATOM     20  C   LIG    1        6.443   0.306  -1.516  0.00  0.00    +0.134 A 
ATOM     21  C   LIG    1        5.266   1.028  -1.468  0.00  0.00    +0.103 A 
ATOM     22 CL   LIG    1        4.477   1.524  -2.932  0.00  0.00    -0.078 Cl
ENDBRANCH  14  15
ENDBRANCH   3  14
TORSDOF 5
