REMARK  Name = ZINC04694491
REMARK                            x       y       z     vdW  Elec       q    Type
REMARK                         _______ _______ _______ _____ _____    ______ ____
ROOT
ATOM      1  C   LIG    1       -1.177   3.559   0.024  0.00  0.00    +0.033 A 
ATOM      2  C   LIG    1       -0.166   4.288  -0.595  0.00  0.00    +0.024 A 
ATOM      3  C   LIG    1       -0.129   5.659  -0.472  0.00  0.00    +0.015 A 
ATOM      4  C   LIG    1       -1.103   6.317   0.285  0.00  0.00    +0.037 A 
ATOM      5  C   LIG    1       -2.114   5.582   0.909  0.00  0.00    +0.015 A 
ATOM      6  C   LIG    1       -2.147   4.212   0.778  0.00  0.00    +0.024 A 
ENDROOT
BRANCH   4   7
ATOM      7  C   LIG    1       -1.064   7.786   0.423  0.00  0.00    +0.251 C 
ATOM      8  N   LIG    1        0.108   8.443   0.312  0.00  0.00    -0.267 N 
ATOM      9  C   LIG    1        1.371   7.701   0.203  0.00  0.00    +0.114 C 
ATOM     10  C   LIG    1        2.391   8.365   1.131  0.00  0.00    +0.024 C 
ATOM     11  C   LIG    1        2.641   9.795   0.652  0.00  0.00    +0.038 C 
ATOM     12  C   LIG    1        1.337  10.526   0.469  0.00  0.00    -0.026 A 
ATOM     13  C   LIG    1        1.339  11.910   0.463  0.00  0.00    +0.005 A 
ATOM     14  C   LIG    1        0.160  12.609   0.293  0.00  0.00    +0.000 A 
ATOM     15  C   LIG    1       -1.033  11.929   0.127  0.00  0.00    +0.002 A 
ATOM     16  C   LIG    1       -1.044  10.548   0.134  0.00  0.00    +0.024 A 
ATOM     17  C   LIG    1        0.141   9.843   0.306  0.00  0.00    +0.040 A 
ATOM     18  O   LIG    1       -2.090   8.404   0.636  0.00  0.00    -0.270 OA
ENDBRANCH   4   7
BRANCH   1  20
ATOM     19  C   LIG    1       -0.797   1.591  -1.250  0.00  0.00    +0.220 C 
ATOM     20  N   LIG    1       -1.214   2.172  -0.107  0.00  0.00    -0.285 N 
ATOM     21  H   LIG    1       -1.539   1.624   0.625  0.00  0.00    +0.155 HD
ATOM     22  O   LIG    1       -0.484   2.278  -2.199  0.00  0.00    -0.275 OA
BRANCH  19  24
ATOM     23  C   LIG    1       -2.117  -0.503  -1.113  0.00  0.00    +0.017 C 
ATOM     24  C   LIG    1       -0.727   0.089  -1.350  0.00  0.00    +0.069 C 
ATOM     25  C   LIG    1       -0.234  -0.306  -2.744  0.00  0.00    +0.017 C 
ENDBRANCH  19  24
ENDBRANCH   1  20
TORSDOF 3
