REMARK  Name = ZINC04098580
REMARK                            x       y       z     vdW  Elec       q    Type
REMARK                         _______ _______ _______ _____ _____    ______ ____
ROOT
ATOM      1  C   UNK    1       -2.057   1.053   3.786  0.00  0.00    +0.015 C 
ATOM      2  C   UNK    1       -2.804   1.456   2.513  0.00  0.00    -0.079 C 
ATOM      3  N   UNK    1       -2.070   0.967   1.330  0.00  0.00    +0.384 N 
ATOM      4  H   UNK    1       -1.973  -0.053   1.390  0.00  0.00    -0.085 HD
ATOM      5  H   UNK    1       -2.594   1.212   0.482  0.00  0.00    -0.085 HD
ATOM      6  C   UNK    1       -0.729   1.579   1.267  0.00  0.00    -0.014 C 
ATOM      7  C   UNK    1        0.080   1.179   2.503  0.00  0.00    +0.131 C 
ATOM      8  C   UNK    1       -0.651   1.658   3.761  0.00  0.00    +0.140 C 
ENDROOT
BRANCH   7   9
ATOM      9  O   UNK    1        1.373   1.784   2.443  0.00  0.00    -0.391 OA
ATOM     10  H   UNK    1        1.941   1.574   3.197  0.00  0.00    +0.210 HD
ENDBRANCH   7   9
BRANCH   8  11
ATOM     11  O   UNK    1        0.070   1.239   4.922  0.00  0.00    -0.389 OA
ATOM     12  H   UNK    1       -0.339   1.505   5.756  0.00  0.00    +0.210 HD
ENDBRANCH   8  11
BRANCH   6  13
ATOM     13  C   UNK    1       -0.013   1.086   0.008  0.00  0.00    +0.143 C 
BRANCH  13  14
ATOM     14  O   UNK    1       -0.704   1.559  -1.150  0.00  0.00    -0.397 OA
ATOM     15  H   UNK    1       -0.304   1.284  -1.986  0.00  0.00    +0.209 HD
ENDBRANCH  13  14
ENDBRANCH   6  13
TORSDOF 4
