REMARK  Name = ZINC04472043
REMARK                            x       y       z     vdW  Elec       q    Type
REMARK                         _______ _______ _______ _____ _____    ______ ____
ROOT
ATOM      1  C   LIG    1       -0.167   5.795   0.111  0.00  0.00    +0.232 C 
ATOM      2  N   LIG    1        0.870   6.548  -0.131  0.00  0.00    -0.205 NA
ATOM      3  C   LIG    1        0.513   7.857   0.014  0.00  0.00    +0.152 C 
ATOM      4  C   LIG    1       -0.914   7.837   0.386  0.00  0.00    +0.364 C 
ATOM      5  O   LIG    1       -1.633   8.792   0.612  0.00  0.00    -0.243 OA
ATOM      6  C   LIG    1        1.316   8.964  -0.153  0.00  0.00    +0.044 C 
ATOM      7  O   LIG    1       -1.253   6.529   0.418  0.00  0.00    -0.402 OA
ENDROOT
BRANCH   1  12
ATOM      8  C   LIG    1       -0.113   0.047  -0.130  0.00  0.00    +0.046 C 
ATOM      9  C   LIG    1       -0.127   1.552  -0.067  0.00  0.00    -0.020 A 
ATOM     10  C   LIG    1        1.028   2.264  -0.341  0.00  0.00    +0.006 A 
ATOM     11  C   LIG    1        1.022   3.642  -0.286  0.00  0.00    +0.013 A 
ATOM     12  C   LIG    1       -0.153   4.319   0.049  0.00  0.00    +0.039 A 
ATOM     13  C   LIG    1       -1.315   3.595   0.324  0.00  0.00    +0.046 A 
ATOM     14  C   LIG    1       -1.296   2.217   0.260  0.00  0.00    +0.125 A 
BRANCH  14  15
ATOM     15  N   LIG    1       -2.527   1.448   0.545  0.00  0.00    +0.006 N 
ATOM     16  O   LIG    1       -3.588   2.028   0.690  0.00  0.00    -0.130 OA
BRANCH  15  17
ATOM     17  O   LIG    1       -2.480   0.234   0.636  0.00  0.00    -0.396 OA
ATOM     18  H   LIG    1       -1.663  -0.213   0.526  0.00  0.00    +0.329 HD
ENDBRANCH  15  17
ENDBRANCH  14  15
ENDBRANCH   1  12
BRANCH   6  19
ATOM     19  C   LIG    1        2.691   8.807  -0.640  0.00  0.00    -0.005 A 
ATOM     20  C   LIG    1        3.242   7.527  -0.826  0.00  0.00    +0.011 A 
ATOM     21  C   LIG    1        4.541   7.436  -1.287  0.00  0.00    +0.020 A 
ATOM     22  C   LIG    1        5.252   8.595  -1.549  0.00  0.00    +0.111 A 
ATOM     23  N   LIG    1        4.711   9.784  -1.366  0.00  0.00    -0.263 NA
ATOM     24  C   LIG    1        3.476   9.928  -0.935  0.00  0.00    +0.118 A 
ENDBRANCH   6  19
TORSDOF 4
