REMARK  Name = ZINC04535247
REMARK                            x       y       z     vdW  Elec       q    Type
REMARK                         _______ _______ _______ _____ _____    ______ ____
ROOT
ATOM      1  C   LIG    1        2.438   7.130   1.459  0.00  0.00    +0.008 C 
ENDROOT
BRANCH   1   2
ATOM      2  C   LIG    1        2.190   6.684   0.017  0.00  0.00    +0.074 C 
BRANCH   2   9
ATOM      3  C   LIG    1       -1.226   1.748   0.017  0.00  0.00    +0.002 A 
ATOM      4  C   LIG    1       -0.013   1.076   0.008  0.00  0.00    +0.002 A 
ATOM      5  C   LIG    1        1.175   1.777   0.000  0.00  0.00    +0.028 A 
ATOM      6  C   LIG    1        1.154   3.165   0.008  0.00  0.00    +0.069 A 
ATOM      7  C   LIG    1       -0.075   3.845   0.023  0.00  0.00    +0.089 A 
ATOM      8  N   LIG    1        0.208   5.173   0.028  0.00  0.00    -0.232 NA
ATOM      9  C   LIG    1        1.497   5.345   0.017  0.00  0.00    +0.111 A 
ATOM     10  N   LIG    1        2.130   4.141   0.004  0.00  0.00    -0.317 N 
ATOM     11  C   LIG    1       -1.266   3.114   0.030  0.00  0.00    +0.030 A 
BRANCH  10  12
ATOM     12  C   LIG    1        3.578   3.921  -0.011  0.00  0.00    +0.243 C 
BRANCH  12  13
ATOM     13  C   LIG    1        4.061   3.853  -1.436  0.00  0.00    +0.325 C 
ATOM     14  O   LIG    1        3.277   3.976  -2.347  0.00  0.00    -0.249 OA
BRANCH  13  15
ATOM     15  O   LIG    1        5.364   3.656  -1.695  0.00  0.00    -0.479 OA
ATOM     16  H   LIG    1        5.972   3.561  -0.989  0.00  0.00    +0.295 HD
ENDBRANCH  13  15
ENDBRANCH  12  13
ENDBRANCH  10  12
ENDBRANCH   2   9
ENDBRANCH   1   2
BRANCH   1  17
ATOM     17  C   LIG    1        3.141   8.488   1.459  0.00  0.00    +0.008 C 
BRANCH  17  18
ATOM     18  C   LIG    1        3.390   8.934   2.902  0.00  0.00    +0.074 C 
BRANCH  18  19
ATOM     19  C   LIG    1        4.082  10.273   2.902  0.00  0.00    +0.111 A 
ATOM     20  N   LIG    1        5.372  10.445   2.896  0.00  0.00    -0.232 NA
ATOM     21  C   LIG    1        5.655  11.773   2.895  0.00  0.00    +0.089 A 
ATOM     22  C   LIG    1        6.846  12.504   2.887  0.00  0.00    +0.030 A 
ATOM     23  C   LIG    1        6.806  13.869   2.895  0.00  0.00    +0.002 A 
ATOM     24  C   LIG    1        5.592  14.542   2.911  0.00  0.00    +0.002 A 
ATOM     25  C   LIG    1        4.405  13.841   2.918  0.00  0.00    +0.028 A 
ATOM     26  C   LIG    1        4.426  12.453   2.910  0.00  0.00    +0.069 A 
ATOM     27  N   LIG    1        3.450  11.477   2.914  0.00  0.00    -0.317 N 
BRANCH  27  28
ATOM     28  C   LIG    1        2.002  11.697   2.930  0.00  0.00    +0.243 C 
BRANCH  28  29
ATOM     29  C   LIG    1        1.519  11.765   4.356  0.00  0.00    +0.325 C 
ATOM     30  O   LIG    1        2.304  11.642   5.266  0.00  0.00    -0.249 OA
BRANCH  29  31
ATOM     31  O   LIG    1        0.217  11.962   4.615  0.00  0.00    -0.479 OA
ATOM     32  H   LIG    1       -0.392  12.058   3.909  0.00  0.00    +0.295 HD
ENDBRANCH  29  31
ENDBRANCH  28  29
ENDBRANCH  27  28
ENDBRANCH  18  19
ENDBRANCH  17  18
ENDBRANCH   1  17
TORSDOF 11
