REMARK  Name = ZINC04775332
REMARK                            x       y       z     vdW  Elec       q    Type
REMARK                         _______ _______ _______ _____ _____    ______ ____
ROOT
ATOM      1  C   LIG    1       -0.055   4.236   0.025  0.00  0.00    +0.121 A 
ATOM      2  C   LIG    1        1.159   3.560   0.010  0.00  0.00    +0.046 A 
ATOM      3  C   LIG    1        1.184   2.184   0.003  0.00  0.00    +0.011 A 
ATOM      4  C   LIG    1       -0.018   1.465   0.010  0.00  0.00    -0.025 A 
ATOM      5  C   LIG    1       -1.238   2.151   0.020  0.00  0.00    +0.011 A 
ATOM      6  C   LIG    1       -1.252   3.527   0.033  0.00  0.00    +0.046 A 
ENDROOT
BRANCH   4   7
ATOM      7  C   LIG    1        0.002  -0.004   0.002  0.00  0.00    +0.012 C 
ATOM      8  C   LIG    1       -1.159  -0.696   0.009  0.00  0.00    +0.052 C 
BRANCH   8   9
ATOM      9  C   LIG    1       -1.140  -2.157   0.001  0.00  0.00    +0.190 C 
ATOM     10  O   LIG    1       -0.077  -2.752  -0.012  0.00  0.00    -0.287 OA
BRANCH   9  11
ATOM     11  C   LIG    1       -2.408  -2.913   0.009  0.00  0.00    +0.063 A 
ATOM     12  C   LIG    1       -3.630  -2.235   0.025  0.00  0.00    +0.015 A 
ATOM     13  C   LIG    1       -4.810  -2.946   0.032  0.00  0.00    +0.001 A 
ATOM     14  C   LIG    1       -4.791  -4.331   0.025  0.00  0.00    +0.004 A 
ATOM     15  C   LIG    1       -3.591  -5.014   0.009  0.00  0.00    +0.046 A 
ATOM     16  C   LIG    1       -2.394  -4.314  -0.004  0.00  0.00    +0.128 A 
BRANCH  16  17
ATOM     17  O   LIG    1       -1.214  -4.983  -0.025  0.00  0.00    -0.506 OA
ATOM     18  H   LIG    1       -0.861  -5.186   0.853  0.00  0.00    +0.292 HD
ENDBRANCH  16  17
ENDBRANCH   9  11
ENDBRANCH   8   9
ENDBRANCH   4   7
BRANCH   1  19
ATOM     19  O   LIG    1       -0.074   5.593   0.033  0.00  0.00    -0.487 OA
BRANCH  19  20
ATOM     20  C   LIG    1       -1.356   6.225   0.048  0.00  0.00    +0.264 C 
BRANCH  20  24
ATOM     21  C   LIG    1       -0.854  10.467   0.068  0.00  0.00    +0.000 A 
ATOM     22  C   LIG    1       -0.946   9.787  -1.133  0.00  0.00    +0.000 A 
ATOM     23  C   LIG    1       -1.109   8.414  -1.139  0.00  0.00    +0.007 A 
ATOM     24  C   LIG    1       -1.179   7.721   0.055  0.00  0.00    -0.010 A 
ATOM     25  C   LIG    1       -1.092   8.402   1.255  0.00  0.00    +0.007 A 
ATOM     26  C   LIG    1       -0.924   9.774   1.262  0.00  0.00    +0.000 A 
ENDBRANCH  20  24
ENDBRANCH  19  20
ENDBRANCH   1  19
TORSDOF 7
