REMARK  Name = ZINC04535268
REMARK                            x       y       z     vdW  Elec       q    Type
REMARK                         _______ _______ _______ _____ _____    ______ ____
ROOT
ATOM      1  C   LIG    1        0.356   0.607   1.884  0.00  0.00    +0.028 C 
ATOM      2  C   LIG    1       -0.666   1.336   1.009  0.00  0.00    +0.081 C 
ATOM      3  C   LIG    1       -0.235   1.265  -0.462  0.00  0.00    +0.050 C 
ATOM      4  C   LIG    1       -1.230   2.058  -1.310  0.00  0.00    +0.115 C 
ATOM      5  C   LIG    1       -2.640   1.622  -1.013  0.00  0.00    -0.005 A 
ATOM      6  C   LIG    1       -3.632   1.884  -1.944  0.00  0.00    +0.007 A 
ATOM      7  C   LIG    1       -4.936   1.499  -1.699  0.00  0.00    +0.000 A 
ATOM      8  C   LIG    1       -5.260   0.849  -0.522  0.00  0.00    +0.002 A 
ATOM      9  C   LIG    1       -4.277   0.584   0.410  0.00  0.00    +0.024 A 
ATOM     10  C   LIG    1       -2.963   0.969   0.166  0.00  0.00    +0.042 A 
ATOM     11  N   LIG    1       -1.980   0.682   1.121  0.00  0.00    -0.265 N 
ATOM     12  C   LIG    1       -2.232  -0.178   2.127  0.00  0.00    +0.244 C 
ATOM     13  O   LIG    1       -1.521  -0.184   3.115  0.00  0.00    -0.270 OA
ENDROOT
BRANCH   4  14
ATOM     14  N   LIG    1       -0.942   1.833  -2.729  0.00  0.00    -0.264 N 
ATOM     15  C   LIG    1       -0.974   0.584  -3.233  0.00  0.00    +0.217 C 
ATOM     16  C   LIG    1       -0.565   0.338  -4.663  0.00  0.00    +0.109 C 
ATOM     17  O   LIG    1       -1.331  -0.343  -2.537  0.00  0.00    -0.276 OA
BRANCH  14  18
ATOM     18  C   LIG    1       -0.635   2.916  -3.560  0.00  0.00    +0.037 A 
ATOM     19  C   LIG    1        0.541   3.628  -3.369  0.00  0.00    +0.023 A 
ATOM     20  C   LIG    1        0.844   4.693  -4.196  0.00  0.00    +0.002 A 
ATOM     21  C   LIG    1       -0.028   5.056  -5.205  0.00  0.00    +0.000 A 
ATOM     22  C   LIG    1       -1.204   4.353  -5.394  0.00  0.00    +0.002 A 
ATOM     23  C   LIG    1       -1.509   3.284  -4.575  0.00  0.00    +0.023 A 
ENDBRANCH  14  18
ENDBRANCH   4  14
BRANCH  12  24
ATOM     24  C   LIG    1       -3.360  -1.106   2.031  0.00  0.00    +0.068 C 
ATOM     25  C   LIG    1       -3.723  -1.839   3.103  0.00  0.00    +0.013 C 
BRANCH  25  26
ATOM     26  C   LIG    1       -4.857  -2.772   3.006  0.00  0.00    -0.025 A 
ATOM     27  C   LIG    1       -5.564  -2.897   1.807  0.00  0.00    +0.008 A 
ATOM     28  C   LIG    1       -6.622  -3.777   1.722  0.00  0.00    +0.001 A 
ATOM     29  C   LIG    1       -6.992  -4.528   2.825  0.00  0.00    +0.000 A 
ATOM     30  C   LIG    1       -6.301  -4.406   4.018  0.00  0.00    +0.001 A 
ATOM     31  C   LIG    1       -5.237  -3.534   4.116  0.00  0.00    +0.008 A 
ENDBRANCH  25  26
ENDBRANCH  12  24
TORSDOF 4
