REMARK  Name = ZINC04632541
REMARK                            x       y       z     vdW  Elec       q    Type
REMARK                         _______ _______ _______ _____ _____    ______ ____
ROOT
ATOM      1  N   LIG    1        6.749  -4.801  -3.904  0.00  0.00    -0.333 N 
ATOM      2  C   LIG    1        7.561  -3.577  -3.862  0.00  0.00    +0.086 C 
ATOM      3  C   LIG    1        7.293  -2.835  -2.550  0.00  0.00    -0.060 C 
ATOM      4  N   LIG    1        5.854  -2.502  -2.477  0.00  0.00    +0.382 N 
ATOM      5  H   LIG    1        5.603  -1.927  -3.289  0.00  0.00    -0.082 HD
ATOM      6  C   LIG    1        5.049  -3.741  -2.496  0.00  0.00    -0.060 C 
ATOM      7  C   LIG    1        5.317  -4.483  -3.807  0.00  0.00    +0.086 C 
ENDROOT
BRANCH   1  12
ATOM      8  C   LIG    1        7.849  -7.811  -8.582  0.00  0.00    +0.044 C 
ATOM      9  C   LIG    1        7.558  -7.012  -7.338  0.00  0.00    -0.047 A 
ATOM     10  C   LIG    1        8.222  -5.820  -7.112  0.00  0.00    +0.005 A 
ATOM     11  C   LIG    1        7.953  -5.082  -5.976  0.00  0.00    +0.023 A 
ATOM     12  C   LIG    1        7.020  -5.543  -5.055  0.00  0.00    +0.030 A 
ATOM     13  C   LIG    1        6.354  -6.740  -5.286  0.00  0.00    +0.026 A 
ATOM     14  C   LIG    1        6.625  -7.471  -6.426  0.00  0.00    -0.046 A 
ATOM     15  C   LIG    1        5.903  -8.770  -6.676  0.00  0.00    +0.044 C 
ENDBRANCH   1  12
BRANCH   4  16
ATOM     16  C   LIG    1        5.575  -1.737  -1.243  0.00  0.00    -0.077 C 
BRANCH  16  17
ATOM     17  C   LIG    1        4.138  -1.214  -1.300  0.00  0.00    +0.008 C 
BRANCH  17  18
ATOM     18  C   LIG    1        3.841  -0.402  -0.038  0.00  0.00    +0.102 C 
ATOM     19  C   LIG    1        2.392   0.017  -0.021  0.00  0.00    -0.015 A 
ATOM     20  C   LIG    1        1.208  -0.684  -0.013  0.00  0.00    +0.006 A 
ATOM     21  C   LIG    1        0.002  -0.004   0.002  0.00  0.00    +0.000 A 
ATOM     22  C   LIG    1       -0.017   1.380   0.010  0.00  0.00    +0.001 A 
ATOM     23  C   LIG    1        1.164   2.092   0.002  0.00  0.00    +0.013 A 
ATOM     24  C   LIG    1        2.385   1.414  -0.013  0.00  0.00    +0.042 A 
ATOM     25  C   LIG    1        3.783   1.884  -0.025  0.00  0.00    +0.245 C 
ATOM     26  O   LIG    1        4.124   3.051  -0.022  0.00  0.00    -0.270 OA
ATOM     27  N   LIG    1        4.627   0.837  -0.039  0.00  0.00    -0.305 N 
ATOM     28  H   LIG    1        5.595   0.892  -0.049  0.00  0.00    +0.150 HD
ENDBRANCH  17  18
ENDBRANCH  16  17
ENDBRANCH   4  16
TORSDOF 4
