REMARK  Name = ZINC04765037
REMARK                            x       y       z     vdW  Elec       q    Type
REMARK                         _______ _______ _______ _____ _____    ______ ____
ROOT
ATOM      1  C   LIG    1       -2.679   0.935   3.846  0.00  0.00    +0.040 C 
ATOM      2  C   LIG    1       -2.860   1.602   2.507  0.00  0.00    -0.052 C 
ATOM      3  C   LIG    1       -3.636   2.690   2.413  0.00  0.00    +0.065 C 
ATOM      4  C   LIG    1       -3.836   3.352   1.104  0.00  0.00    +0.340 C 
ATOM      5  O   LIG    1       -3.093   2.908   0.055  0.00  0.00    -0.457 OA
ATOM      6  C   LIG    1       -2.912   1.466   0.035  0.00  0.00    +0.185 C 
ATOM      7  C   LIG    1       -2.177   1.028  -1.224  0.00  0.00    +0.064 C 
ATOM      8  C   LIG    1       -0.756   1.594  -1.230  0.00  0.00    +0.084 C 
ATOM      9 CL   LIG    1       -0.824   3.396  -1.196  0.00  0.00    -0.122 Cl
ATOM     10  C   LIG    1       -0.013   1.086   0.008  0.00  0.00    +0.020 C 
ATOM     11  C   LIG    1       -0.731   1.580   1.263  0.00  0.00    +0.013 C 
ATOM     12  O   LIG    1       -4.635   4.257   0.971  0.00  0.00    -0.245 OA
ATOM     13  C   LIG    1       -2.163   1.035   1.294  0.00  0.00    +0.056 C 
ENDROOT
BRANCH   3  14
ATOM     14  C   LIG    1       -4.299   3.233   3.624  0.00  0.00    -0.011 A 
ATOM     15  C   LIG    1       -5.273   2.486   4.282  0.00  0.00    +0.009 A 
ATOM     16  C   LIG    1       -5.883   2.994   5.412  0.00  0.00    +0.001 A 
ATOM     17  C   LIG    1       -5.536   4.246   5.884  0.00  0.00    +0.000 A 
ATOM     18  C   LIG    1       -4.574   4.995   5.231  0.00  0.00    +0.001 A 
ATOM     19  C   LIG    1       -3.953   4.495   4.104  0.00  0.00    +0.009 A 
ENDBRANCH   3  14
TORSDOF 1
