REMARK  Name = ZINC04639456
REMARK                            x       y       z     vdW  Elec       q    Type
REMARK                         _______ _______ _______ _____ _____    ______ ____
ROOT
ATOM      1  C   LIG    1        2.386   1.396  -0.019  0.00  0.00    +0.004 A 
ATOM      2  C   LIG    1        2.418   0.019   0.002  0.00  0.00    +0.026 A 
ATOM      3  C   LIG    1        1.230  -0.706   0.027  0.00  0.00    +0.048 A 
ATOM      4  C   LIG    1        0.003  -0.022   0.031  0.00  0.00    +0.021 A 
ATOM      5  C   LIG    1       -0.017   1.379   0.010  0.00  0.00    +0.039 A 
ATOM      6  C   LIG    1       -1.037  -1.053   0.059  0.00  0.00    +0.029 A 
ATOM      7  C   LIG    1       -0.412  -2.240   0.069  0.00  0.00    +0.083 A 
ATOM      8  N   LIG    1        0.945  -2.053   0.051  0.00  0.00    -0.361 N 
ATOM      9  H   LIG    1        1.606  -2.763   0.054  0.00  0.00    +0.165 HD
ATOM     10  C   LIG    1        1.178   2.078  -0.015  0.00  0.00    +0.024 A 
ENDROOT
BRANCH   5  11
ATOM     11  N   LIG    1       -1.232   2.066   0.019  0.00  0.00    -0.333 N 
ATOM     12  C   LIG    1       -1.022   3.504   0.236  0.00  0.00    +0.086 C 
ATOM     13  C   LIG    1       -2.379   4.208   0.319  0.00  0.00    -0.063 C 
ATOM     14  N   LIG    1       -3.132   3.976  -0.928  0.00  0.00    +0.381 N 
ATOM     15  H   LIG    1       -4.044   4.443  -0.866  0.00  0.00    -0.086 HD
ATOM     16  H   LIG    1       -2.604   4.362  -1.720  0.00  0.00    -0.086 HD
ATOM     17  C   LIG    1       -3.338   2.530  -1.139  0.00  0.00    -0.063 C 
ATOM     18  C   LIG    1       -1.981   1.827  -1.222  0.00  0.00    +0.086 C 
ENDBRANCH   5  11
TORSDOF 1
