REMARK  Name = ZINC04302693
REMARK                            x       y       z     vdW  Elec       q    Type
REMARK                         _______ _______ _______ _____ _____    ______ ____
ROOT
ATOM      1  C   LIG    1        1.690   1.388   5.615  0.00  0.00    +0.041 C 
ATOM      2  C   LIG    1        1.837   2.723   5.933  0.00  0.00    +0.048 C 
ATOM      3  C   LIG    1        2.550   3.299   7.095  0.00  0.00    +0.008 A 
ATOM      4  C   LIG    1        3.248   2.738   8.159  0.00  0.00    +0.010 A 
ATOM      5  C   LIG    1        3.818   3.558   9.112  0.00  0.00    +0.001 A 
ATOM      6  C   LIG    1        3.696   4.934   9.008  0.00  0.00    +0.002 A 
ATOM      7  C   LIG    1        3.005   5.500   7.956  0.00  0.00    +0.024 A 
ATOM      8  C   LIG    1        2.423   4.691   6.986  0.00  0.00    +0.042 A 
ATOM      9  N   LIG    1        1.688   4.994   5.847  0.00  0.00    -0.281 N 
ATOM     10  H   LIG    1        1.469   5.895   5.561  0.00  0.00    +0.155 HD
ATOM     11  C   LIG    1        1.324   3.881   5.188  0.00  0.00    +0.249 C 
ATOM     12  O   LIG    1        0.678   3.838   4.156  0.00  0.00    -0.270 OA
ENDROOT
BRANCH   1  15
ATOM     13  C   LIG    1       -0.803   0.929   3.104  0.00  0.00    +0.108 A 
ATOM     14  N   LIG    1       -0.321   1.628   4.149  0.00  0.00    -0.342 N 
ATOM     15  C   LIG    1        0.846   1.004   4.552  0.00  0.00    +0.063 A 
ATOM     16  C   LIG    1        1.019  -0.070   3.696  0.00  0.00    +0.063 A 
ATOM     17  C   LIG    1        2.157  -1.058   3.727  0.00  0.00    +0.068 C 
ATOM     18  H   LIG    1       -0.730   2.445   4.557  0.00  0.00    +0.167 HD
ATOM     19  N   LIG    1       -0.002  -0.072   2.841  0.00  0.00    -0.237 NA
BRANCH  13  21
ATOM     20  C   LIG    1       -1.749   1.400   0.861  0.00  0.00    +0.012 C 
ATOM     21  C   LIG    1       -2.067   1.253   2.350  0.00  0.00    +0.071 C 
ENDBRANCH  13  21
ENDBRANCH   1  15
TORSDOF 2
