REMARK  Name = ZINC04098876
REMARK                            x       y       z     vdW  Elec       q    Type
REMARK                         _______ _______ _______ _____ _____    ______ ____
ROOT
ATOM      1  C   LIG    1       -8.899  -3.542  -2.997  0.00  0.00    +0.005 C 
ATOM      2  C   LIG    1       -7.843  -2.816  -2.160  0.00  0.00    -0.029 C 
ATOM      3  C   LIG    1       -6.674  -3.776  -1.881  0.00  0.00    +0.031 C 
ATOM      4  C   LIG    1       -5.613  -2.979  -1.147  0.00  0.00    +0.106 C 
ATOM      5  C   LIG    1       -5.148  -1.851  -2.111  0.00  0.00    -0.037 C 
ATOM      6  N   LIG    1       -6.251  -0.914  -2.227  0.00  0.00    +0.383 N 
ATOM      7  H   LIG    1       -6.548  -0.616  -1.291  0.00  0.00    -0.085 HD
ATOM      8  H   LIG    1       -5.951  -0.095  -2.768  0.00  0.00    -0.085 HD
ATOM      9  C   LIG    1       -3.896  -1.349  -1.386  0.00  0.00    +0.010 C 
ATOM     10  C   LIG    1       -4.243  -0.200  -0.438  0.00  0.00    +0.009 C 
ATOM     11  C   LIG    1       -3.436  -2.594  -0.592  0.00  0.00    +0.092 C 
ATOM     12  C   LIG    1       -3.359  -2.273   0.890  0.00  0.00    +0.040 C 
ATOM     13  C   LIG    1       -2.228  -1.312   1.239  0.00  0.00    +0.012 C 
ATOM     14  C   LIG    1       -1.428  -0.899   0.009  0.00  0.00    +0.027 C 
ATOM     15  C   LIG    1       -0.056  -0.347   0.396  0.00  0.00    +0.012 C 
ATOM     16  C   LIG    1        0.038   1.171   0.451  0.00  0.00    +0.032 C 
ATOM     17  C   LIG    1        1.503   1.513   0.587  0.00  0.00    -0.027 C 
ATOM     18  C   LIG    1        2.472   0.731   0.199  0.00  0.00    -0.064 C 
ATOM     19  C   LIG    1        3.898   1.188   0.442  0.00  0.00    +0.062 C 
ATOM     20  C   LIG    1        4.686   1.061  -0.864  0.00  0.00    +0.119 C 
ATOM     21  C   LIG    1        4.581  -0.376  -1.378  0.00  0.00    +0.032 C 
ATOM     22  C   LIG    1        3.126  -0.688  -1.726  0.00  0.00    +0.014 C 
ATOM     23  C   LIG    1        2.263  -0.611  -0.463  0.00  0.00    -0.001 C 
ATOM     24  C   LIG    1        2.687  -1.723   0.498  0.00  0.00    +0.016 C 
ATOM     25  C   LIG    1        0.807  -0.786  -0.821  0.00  0.00    +0.074 C 
ATOM     26  C   LIG    1        0.341  -2.205  -1.043  0.00  0.00    +0.164 C 
ATOM     27  O   LIG    1        1.011  -3.168  -1.356  0.00  0.00    -0.292 OA
ATOM     28  C   LIG    1       -1.101  -2.159  -0.797  0.00  0.00    +0.000 C 
ATOM     29  C   LIG    1       -2.075  -3.029  -1.105  0.00  0.00    -0.034 C 
ATOM     30  C   LIG    1       -1.844  -4.293  -1.892  0.00  0.00    +0.042 C 
ATOM     31  O   LIG    1       -4.394  -3.647  -0.834  0.00  0.00    -0.367 OA
ATOM     32  C   LIG    1       -7.373  -1.576  -2.915  0.00  0.00    -0.079 C 
ENDROOT
BRANCH  20  33
ATOM     33  O   LIG    1        6.058   1.385  -0.628  0.00  0.00    -0.391 OA
ATOM     34  H   LIG    1        6.198   2.282  -0.296  0.00  0.00    +0.210 HD
ENDBRANCH  20  33
TORSDOF 1
