REMARK  Name = ZINC04398210
REMARK                            x       y       z     vdW  Elec       q    Type
REMARK                         _______ _______ _______ _____ _____    ______ ____
ROOT
ATOM      1  N   LIG    1       -2.417  -0.039   0.024  0.00  0.00    -0.331 N 
ATOM      2  C   LIG    1       -3.160  -0.319   1.261  0.00  0.00    +0.086 C 
ATOM      3  C   LIG    1       -4.452   0.502   1.274  0.00  0.00    -0.060 C 
ATOM      4  N   LIG    1       -5.261   0.137   0.092  0.00  0.00    +0.382 N 
ATOM      5  H   LIG    1       -5.458  -0.870   0.121  0.00  0.00    -0.082 HD
ATOM      6  C   LIG    1       -4.513   0.444  -1.145  0.00  0.00    -0.060 C 
ATOM      7  C   LIG    1       -3.222  -0.377  -1.158  0.00  0.00    +0.086 C 
ENDROOT
BRANCH   1  13
ATOM      8  C   LIG    1        0.002  -0.004   0.002  0.00  0.00    +0.141 A 
ATOM      9  C   LIG    1        1.210  -0.682  -0.019  0.00  0.00    +0.047 A 
ATOM     10  C   LIG    1        1.227  -2.065  -0.021  0.00  0.00    +0.004 A 
ATOM     11  C   LIG    1        0.041  -2.775  -0.013  0.00  0.00    +0.002 A 
ATOM     12  C   LIG    1       -1.169  -2.106   0.002  0.00  0.00    +0.027 A 
ATOM     13  C   LIG    1       -1.194  -0.719   0.010  0.00  0.00    +0.072 A 
BRANCH   8  15
ATOM     14  C   LIG    1        1.248   2.022   0.001  0.00  0.00    +0.277 C 
ATOM     15  O   LIG    1       -0.016   1.356   0.009  0.00  0.00    -0.493 OA
ENDBRANCH   8  15
ENDBRANCH   1  13
BRANCH   4  16
ATOM     16  C   LIG    1       -6.540   0.878   0.107  0.00  0.00    -0.077 C 
BRANCH  16  17
ATOM     17  C   LIG    1       -7.169   0.767   1.498  0.00  0.00    +0.000 C 
BRANCH  17  18
ATOM     18  C   LIG    1       -8.506   1.510   1.514  0.00  0.00    +0.106 C 
BRANCH  18  19
ATOM     19  N   LIG    1       -9.108   1.403   2.846  0.00  0.00    -0.291 N 
ATOM     20  C   LIG    1       -8.834   2.401   3.896  0.00  0.00    +0.203 C 
ATOM     21  C   LIG    1      -10.147   2.771   4.556  0.00  0.00    +0.234 C 
ATOM     22  N   LIG    1      -11.002   1.745   4.854  0.00  0.00    -0.289 N 
ATOM     23  C   LIG    1      -12.313   2.079   5.391  0.00  0.00    +0.108 C 
ATOM     24  C   LIG    1      -13.006   0.841   5.959  0.00  0.00    +0.019 C 
ATOM     25  C   LIG    1      -12.929  -0.264   4.894  0.00  0.00    +0.004 C 
ATOM     26  C   LIG    1      -11.477  -0.732   4.816  0.00  0.00    +0.032 C 
ATOM     27  C   LIG    1      -10.527   0.406   4.562  0.00  0.00    +0.162 C 
ATOM     28  O   LIG    1      -10.427   3.924   4.807  0.00  0.00    -0.274 OA
ATOM     29  C   LIG    1       -9.950   0.380   3.167  0.00  0.00    +0.237 C 
ATOM     30  O   LIG    1      -10.219  -0.502   2.379  0.00  0.00    -0.274 OA
ENDBRANCH  18  19
ENDBRANCH  17  18
ENDBRANCH  16  17
ENDBRANCH   4  16
TORSDOF 6
