REMARK  Name = ZINC04159137
REMARK                            x       y       z     vdW  Elec       q    Type
REMARK                         _______ _______ _______ _____ _____    ______ ____
ROOT
ATOM      1  C   LIG    1       -2.112   5.752  -0.958  0.00  0.00    +0.251 C 
ATOM      2  N   LIG    1       -1.510   5.081   0.044  0.00  0.00    -0.306 N 
ATOM      3  H   LIG    1       -1.089   5.567   0.770  0.00  0.00    +0.150 HD
ATOM      4  O   LIG    1       -2.639   5.142  -1.868  0.00  0.00    -0.270 OA
ENDROOT
BRANCH   1  11
ATOM      5  C   LIG    1       -1.031  11.460   1.039  0.00  0.00    +0.001 A 
ATOM      6  C   LIG    1       -1.661  12.114  -0.011  0.00  0.00    +0.004 A 
ATOM      7  C   LIG    1       -2.251  11.400  -1.032  0.00  0.00    +0.047 A 
ATOM      8  C   LIG    1       -2.218  10.009  -1.016  0.00  0.00    +0.139 A 
ATOM      9  C   LIG    1       -1.579   9.348   0.048  0.00  0.00    +0.018 A 
ATOM     10  C   LIG    1       -1.536   7.932   0.080  0.00  0.00    +0.031 A 
ATOM     11  C   LIG    1       -2.132   7.225  -0.950  0.00  0.00    +0.122 A 
ATOM     12  C   LIG    1       -2.779   7.969  -2.036  0.00  0.00    +0.350 A 
ATOM     13  O   LIG    1       -3.304   7.368  -2.954  0.00  0.00    -0.244 OA
ATOM     14  O   LIG    1       -2.797   9.312  -2.017  0.00  0.00    -0.422 OA
ATOM     15  C   LIG    1       -0.985  10.096   1.076  0.00  0.00    +0.011 A 
ENDBRANCH   1  11
BRANCH   2  16
ATOM     16  C   LIG    1       -1.490   3.616   0.036  0.00  0.00    +0.036 C 
ATOM     17  C   LIG    1       -0.773   3.123  -1.223  0.00  0.00    +0.029 C 
ATOM     18  C   LIG    1       -0.753   1.593  -1.232  0.00  0.00    -0.008 C 
ATOM     19  C   LIG    1       -0.013   1.086   0.008  0.00  0.00    +0.007 C 
ATOM     20  C   LIG    1       -0.729   1.579   1.267  0.00  0.00    -0.008 C 
ATOM     21  C   LIG    1       -2.164   1.050   1.278  0.00  0.00    +0.007 C 
ATOM     22  C   LIG    1       -2.904   1.556   0.038  0.00  0.00    -0.008 C 
ATOM     23  C   LIG    1       -2.188   1.063  -1.221  0.00  0.00    +0.007 C 
ATOM     24  C   LIG    1       -2.925   3.086   0.047  0.00  0.00    +0.029 C 
ATOM     25  C   LIG    1       -0.750   3.109   1.275  0.00  0.00    +0.029 C 
ENDBRANCH   2  16
TORSDOF 2
