REMARK  Name = ZINC04430221
REMARK                            x       y       z     vdW  Elec       q    Type
REMARK                         _______ _______ _______ _____ _____    ______ ____
ROOT
ATOM      1  C   LIG    1        0.605  -0.606  -1.054  0.00  0.00    +0.133 A 
ATOM      2  C   LIG    1        1.172   0.156  -2.061  0.00  0.00    +0.046 A 
ATOM      3  C   LIG    1        1.785  -0.460  -3.140  0.00  0.00    +0.006 A 
ATOM      4  C   LIG    1        1.840  -1.835  -3.232  0.00  0.00    +0.026 A 
ATOM      5  C   LIG    1        1.277  -2.624  -2.234  0.00  0.00    +0.054 A 
ATOM      6  N   LIG    1        1.325  -4.001  -2.324  0.00  0.00    -0.354 N 
ATOM      7  H   LIG    1        1.553  -4.411  -3.173  0.00  0.00    +0.166 HD
ATOM      8  C   LIG    1        1.069  -4.807  -1.230  0.00  0.00    +0.051 A 
ATOM      9  C   LIG    1        1.415  -6.156  -1.253  0.00  0.00    +0.026 A 
ATOM     10  C   LIG    1        1.141  -6.955  -0.165  0.00  0.00    +0.002 A 
ATOM     11  C   LIG    1        0.522  -6.432   0.962  0.00  0.00    +0.001 A 
ATOM     12  C   LIG    1        0.173  -5.100   1.007  0.00  0.00    +0.014 A 
ATOM     13  C   LIG    1        0.445  -4.279  -0.087  0.00  0.00    +0.046 A 
ATOM     14  C   LIG    1        0.088  -2.847  -0.070  0.00  0.00    +0.201 A 
ATOM     15  O   LIG    1       -0.648  -2.384   0.783  0.00  0.00    -0.286 OA
ATOM     16  C   LIG    1        0.663  -2.003  -1.131  0.00  0.00    +0.087 A 
ENDROOT
BRANCH   1  18
ATOM     17  C   LIG    1       -0.017   1.425   0.010  0.00  0.00    +0.277 C 
ATOM     18  O   LIG    1        0.002  -0.004   0.002  0.00  0.00    -0.494 OA
ENDBRANCH   1  18
TORSDOF 1
