REMARK  Name = ZINC04544252
REMARK                            x       y       z     vdW  Elec       q    Type
REMARK                         _______ _______ _______ _____ _____    ______ ____
ROOT
ATOM      1  C   LIG    1        0.099  -2.758  -0.371  0.00  0.00    +0.244 C 
ATOM      2  C   LIG    1       -1.083  -2.197   0.430  0.00  0.00    +0.226 C 
ATOM      3  C   LIG    1       -1.310  -0.746   0.000  0.00  0.00    +0.091 C 
ATOM      4  C   LIG    1        0.002  -0.004   0.002  0.00  0.00    +0.039 A 
ATOM      5  C   LIG    1       -0.017   1.386   0.010  0.00  0.00    +0.127 A 
ATOM      6  C   LIG    1        1.170   2.101   0.002  0.00  0.00    +0.091 A 
ATOM      7  C   LIG    1        2.382   1.427  -0.012  0.00  0.00    +0.124 A 
ATOM      8  C   LIG    1        2.402   0.042  -0.018  0.00  0.00    +0.091 A 
ATOM      9  C   LIG    1        1.211  -0.677  -0.009  0.00  0.00    +0.132 A 
ATOM     10  O   LIG    1        1.274  -2.034  -0.005  0.00  0.00    -0.480 OA
ENDROOT
BRANCH   1  16
ATOM     11  C   LIG    1        0.922  -4.593   1.117  0.00  0.00    +0.011 A 
ATOM     12  C   LIG    1        1.088  -5.933   1.419  0.00  0.00    +0.049 A 
ATOM     13  C   LIG    1        0.623  -6.902   0.546  0.00  0.00    +0.158 A 
ATOM     14  C   LIG    1       -0.017  -6.525  -0.632  0.00  0.00    +0.159 A 
ATOM     15  C   LIG    1       -0.185  -5.182  -0.925  0.00  0.00    +0.056 A 
ATOM     16  C   LIG    1        0.283  -4.219  -0.050  0.00  0.00    -0.000 A 
BRANCH  13  17
ATOM     17  O   LIG    1        0.790  -8.220   0.839  0.00  0.00    -0.503 OA
ATOM     18  H   LIG    1        1.615  -8.596   0.503  0.00  0.00    +0.292 HD
ENDBRANCH  13  17
BRANCH  14  19
ATOM     19  O   LIG    1       -0.476  -7.473  -1.492  0.00  0.00    -0.503 OA
ATOM     20  H   LIG    1        0.168  -7.742  -2.161  0.00  0.00    +0.292 HD
ENDBRANCH  14  19
ENDBRANCH   1  16
BRANCH   5  21
ATOM     21  O   LIG    1       -1.204   2.047   0.019  0.00  0.00    -0.506 OA
ATOM     22  H   LIG    1       -1.544   2.233   0.905  0.00  0.00    +0.292 HD
ENDBRANCH   5  21
BRANCH   7  23
ATOM     23  O   LIG    1        3.548   2.124  -0.022  0.00  0.00    -0.507 OA
ATOM     24  H   LIG    1        3.877   2.329  -0.908  0.00  0.00    +0.292 HD
ENDBRANCH   7  23
BRANCH   2  25
ATOM     25  O   LIG    1       -0.779  -2.246   1.849  0.00  0.00    -0.453 OA
BRANCH  25  26
ATOM     26  C   LIG    1       -1.819  -2.400   2.693  0.00  0.00    +0.340 C 
ATOM     27  O   LIG    1       -2.948  -2.492   2.254  0.00  0.00    -0.245 OA
BRANCH  26  28
ATOM     28  C   LIG    1       -1.586  -2.458   4.148  0.00  0.00    +0.066 A 
ATOM     29  C   LIG    1       -0.287  -2.359   4.653  0.00  0.00    +0.064 A 
ATOM     30  C   LIG    1       -0.072  -2.407   6.018  0.00  0.00    +0.163 A 
ATOM     31  C   LIG    1       -1.147  -2.567   6.888  0.00  0.00    +0.201 A 
ATOM     32  C   LIG    1       -2.442  -2.672   6.387  0.00  0.00    +0.163 A 
ATOM     33  C   LIG    1       -2.663  -2.618   5.024  0.00  0.00    +0.064 A 
BRANCH  30  34
ATOM     34  O   LIG    1        1.191  -2.304   6.511  0.00  0.00    -0.503 OA
ATOM     35  H   LIG    1        1.647  -3.152   6.604  0.00  0.00    +0.292 HD
ENDBRANCH  30  34
BRANCH  31  36
ATOM     36  O   LIG    1       -0.933  -2.620   8.229  0.00  0.00    -0.501 OA
ATOM     37  H   LIG    1       -0.780  -3.512   8.568  0.00  0.00    +0.292 HD
ENDBRANCH  31  36
BRANCH  32  38
ATOM     38  O   LIG    1       -3.490  -2.828   7.239  0.00  0.00    -0.503 OA
ATOM     39  H   LIG    1       -3.703  -3.750   7.437  0.00  0.00    +0.292 HD
ENDBRANCH  32  38
ENDBRANCH  26  28
ENDBRANCH  25  26
ENDBRANCH   2  25
TORSDOF 11
