REMARK  Name = ZINC04136163
REMARK                            x       y       z     vdW  Elec       q    Type
REMARK                         _______ _______ _______ _____ _____    ______ ____
ROOT
ATOM      1  C   LIG    1       -2.143   2.557   7.409  0.00  0.00    +0.028 C 
ATOM      2  C   LIG    1       -3.461   2.860   7.524  0.00  0.00    +0.077 C 
ATOM      3  C   LIG    1       -4.215   3.353   8.695  0.00  0.00    +0.258 C 
ATOM      4  N   LIG    1       -5.507   3.570   8.519  0.00  0.00    -0.255 N 
ATOM      5  C   LIG    1       -6.105   3.340   7.332  0.00  0.00    +0.121 C 
ATOM      6  S   LIG    1       -7.752   3.549   6.913  0.00  0.00    -0.027 S 
ATOM      7  O   LIG    1       -3.673   3.554   9.766  0.00  0.00    -0.269 OA
ATOM      8  S   LIG    1       -4.764   2.763   6.304  0.00  0.00    -0.061 S 
ENDROOT
BRANCH   1  12
ATOM      9  C   LIG    1       -0.512   1.622   3.604  0.00  0.00    +0.162 A 
ATOM     10  C   LIG    1       -1.811   2.103   3.703  0.00  0.00    +0.050 A 
ATOM     11  C   LIG    1       -2.345   2.408   4.936  0.00  0.00    +0.012 A 
ATOM     12  C   LIG    1       -1.577   2.234   6.093  0.00  0.00    -0.020 A 
ATOM     13  C   LIG    1       -0.267   1.749   5.992  0.00  0.00    +0.057 A 
ATOM     14  C   LIG    1        0.258   1.441   4.753  0.00  0.00    +0.162 A 
BRANCH  14  15
ATOM     15  O   LIG    1        1.527   0.965   4.651  0.00  0.00    -0.491 OA
ATOM     16  C   LIG    1        2.259   0.803   5.868  0.00  0.00    +0.277 C 
ENDBRANCH  14  15
BRANCH   9  17
ATOM     17  O   LIG    1        0.008   1.323   2.386  0.00  0.00    -0.488 OA
BRANCH  17  18
ATOM     18  C   LIG    1       -0.837   1.527   1.252  0.00  0.00    +0.229 C 
BRANCH  18  19
ATOM     19  C   LIG    1       -0.083   1.139  -0.022  0.00  0.00    +0.041 C 
BRANCH  19  20
ATOM     20  C   LIG    1       -0.988   1.357  -1.237  0.00  0.00    +0.003 C 
BRANCH  20  21
ATOM     21  C   LIG    1       -0.234   0.969  -2.510  0.00  0.00    -0.000 C 
BRANCH  21  23
ATOM     22  C   LIG    1       -0.385   0.798  -4.998  0.00  0.00    +0.004 C 
ATOM     23  C   LIG    1       -1.139   1.187  -3.725  0.00  0.00    -0.003 C 
ENDBRANCH  21  23
ENDBRANCH  20  21
ENDBRANCH  19  20
ENDBRANCH  18  19
ENDBRANCH  17  18
ENDBRANCH   9  17
ENDBRANCH   1  12
BRANCH   4  24
ATOM     24  C   LIG    1       -6.309   4.066   9.640  0.00  0.00    +0.115 C 
BRANCH  24  25
ATOM     25  C   LIG    1       -6.864   2.881  10.434  0.00  0.00    +0.019 C 
BRANCH  25  26
ATOM     26  C   LIG    1       -7.701   3.398  11.605  0.00  0.00    +0.002 C 
BRANCH  26  27
ATOM     27  C   LIG    1       -8.256   2.213  12.398  0.00  0.00    +0.011 C 
BRANCH  27  28
ATOM     28  C   LIG    1       -9.094   2.731  13.569  0.00  0.00    +0.120 C 
BRANCH  28  29
ATOM     29  C   LIG    1       -9.640   1.564  14.351  0.00  0.00    +0.305 C 
ATOM     30  O   LIG    1       -9.386   0.434  14.006  0.00  0.00    -0.251 OA
BRANCH  29  31
ATOM     31  O   LIG    1      -10.409   1.780  15.429  0.00  0.00    -0.481 OA
ATOM     32  H   LIG    1      -10.606   2.656  15.696  0.00  0.00    +0.295 HD
ENDBRANCH  29  31
ENDBRANCH  28  29
ENDBRANCH  27  28
ENDBRANCH  26  27
ENDBRANCH  25  26
ENDBRANCH  24  25
ENDBRANCH   4  24
TORSDOF 15
