REMARK  Name = ZINC04617893
REMARK                            x       y       z     vdW  Elec       q    Type
REMARK                         _______ _______ _______ _____ _____    ______ ____
ROOT
ATOM      1  C   LIG    1        1.518  -2.275  -2.639  0.00  0.00    +0.155 A 
ATOM      2  C   LIG    1        1.734  -3.631  -3.009  0.00  0.00    +0.040 A 
ATOM      3  C   LIG    1        2.418  -3.567  -4.218  0.00  0.00    +0.078 A 
ATOM      4  N   LIG    1        2.573  -2.243  -4.504  0.00  0.00    -0.276 N 
ATOM      5  H   LIG    1        3.018  -1.895  -5.293  0.00  0.00    +0.189 HD
ATOM      6  N   LIG    1        2.043  -1.523  -3.584  0.00  0.00    -0.168 NA
ENDROOT
BRANCH   3   7
ATOM      7  C   LIG    1        2.885  -4.708  -5.031  0.00  0.00    +0.043 A 
ATOM      8  C   LIG    1        4.252  -4.923  -5.216  0.00  0.00    +0.037 A 
ATOM      9  C   LIG    1        4.684  -5.990  -5.976  0.00  0.00    +0.083 A 
ATOM     10 CL   LIG    1        6.384  -6.256  -6.206  0.00  0.00    -0.080 Cl
ATOM     11  C   LIG    1        3.762  -6.853  -6.557  0.00  0.00    +0.139 A 
ATOM     12  C   LIG    1        2.403  -6.646  -6.378  0.00  0.00    +0.093 A 
ATOM     13  C   LIG    1        1.958  -5.582  -5.613  0.00  0.00    +0.130 A 
BRANCH  11  14
ATOM     14  O   LIG    1        4.195  -7.902  -7.304  0.00  0.00    -0.505 OA
ATOM     15  H   LIG    1        4.339  -8.713  -6.797  0.00  0.00    +0.292 HD
ENDBRANCH  11  14
BRANCH  13  16
ATOM     16  O   LIG    1        0.627  -5.382  -5.433  0.00  0.00    -0.506 OA
ATOM     17  H   LIG    1        0.219  -4.818  -6.104  0.00  0.00    +0.292 HD
ENDBRANCH  13  16
ENDBRANCH   3   7
BRANCH   2  18
ATOM     18  C   LIG    1        1.322  -4.845  -2.269  0.00  0.00    -0.013 A 
ATOM     19  C   LIG    1        2.287  -5.702  -1.738  0.00  0.00    +0.012 A 
ATOM     20  C   LIG    1        1.899  -6.831  -1.049  0.00  0.00    +0.046 A 
ATOM     21  C   LIG    1        0.550  -7.116  -0.882  0.00  0.00    +0.120 A 
ATOM     22  C   LIG    1       -0.413  -6.266  -1.409  0.00  0.00    +0.046 A 
ATOM     23  C   LIG    1       -0.032  -5.132  -2.095  0.00  0.00    +0.012 A 
BRANCH  21  24
ATOM     24  O   LIG    1        0.172  -8.231  -0.203  0.00  0.00    -0.495 OA
ATOM     25  C   LIG    1       -1.232  -8.463  -0.069  0.00  0.00    +0.277 C 
ENDBRANCH  21  24
ENDBRANCH   2  18
BRANCH   1  28
ATOM     26  N   LIG    1        0.688  -0.476  -1.203  0.00  0.00    -0.310 N 
ATOM     27  H   LIG    1        1.042   0.162  -1.842  0.00  0.00    +0.149 HD
ATOM     28  C   LIG    1        0.827  -1.799  -1.425  0.00  0.00    +0.265 C 
ATOM     29  O   LIG    1        0.383  -2.599  -0.625  0.00  0.00    -0.268 OA
BRANCH  26  31
ATOM     30  C   LIG    1       -0.019   1.526   0.010  0.00  0.00    +0.024 C 
ATOM     31  C   LIG    1        0.002  -0.004   0.002  0.00  0.00    +0.101 C 
ENDBRANCH  26  31
ENDBRANCH   1  28
TORSDOF 7
