REMARK  Name = ZINC04673267
REMARK                            x       y       z     vdW  Elec       q    Type
REMARK                         _______ _______ _______ _____ _____    ______ ____
ROOT
ATOM      1  C   LIG    1       -2.112  -3.107   0.006  0.00  0.00    +0.001 A 
ATOM      2  C   LIG    1       -3.387  -2.567   0.020  0.00  0.00    +0.004 A 
ATOM      3  C   LIG    1       -3.566  -1.197   0.029  0.00  0.00    +0.046 A 
ATOM      4  C   LIG    1       -2.468  -0.353   0.023  0.00  0.00    +0.129 A 
ATOM      5  C   LIG    1       -1.176  -0.894   0.009  0.00  0.00    +0.080 A 
ATOM      6  C   LIG    1       -1.008  -2.280  -0.006  0.00  0.00    +0.017 A 
ENDROOT
BRANCH   5   7
ATOM      7  C   LIG    1        0.002  -0.004   0.002  0.00  0.00    +0.253 A 
ATOM      8  N   LIG    1       -0.016   1.307   0.009  0.00  0.00    -0.106 NA
ATOM      9  N   LIG    1        1.192   1.751   0.000  0.00  0.00    -0.101 NA
ATOM     10  C   LIG    1        2.029   0.740  -0.013  0.00  0.00    +0.275 A 
ATOM     11  O   LIG    1        1.297  -0.390  -0.012  0.00  0.00    -0.411 OA
BRANCH  10  12
ATOM     12  S   LIG    1        3.788   0.844  -0.029  0.00  0.00    -0.083 S 
ATOM     13  H   LIG    1        4.165   2.151  -0.026  0.00  0.00    +0.112 HD
ENDBRANCH  10  12
ENDBRANCH   5   7
BRANCH   4  14
ATOM     14  O   LIG    1       -2.642   0.994   0.032  0.00  0.00    -0.506 OA
ATOM     15  H   LIG    1       -1.768   1.662   0.027  0.00  0.00    +0.292 HD
ENDBRANCH   4  14
TORSDOF 3
