REMARK  Name = ZINC04474604
REMARK                            x       y       z     vdW  Elec       q    Type
REMARK                         _______ _______ _______ _____ _____    ______ ____
ROOT
ATOM      1  N   LIG    1       -1.455  -1.035  -1.439  0.00  0.00    -0.216 N 
ATOM      2  C   LIG    1       -2.000  -0.085  -2.420  0.00  0.00    +0.222 C 
ATOM      3  C   LIG    1       -1.988  -0.873  -3.745  0.00  0.00    +0.219 C 
ATOM      4  N   LIG    1       -1.437  -2.184  -3.370  0.00  0.00    -0.233 N 
ATOM      5  H   LIG    1       -1.294  -2.939  -3.986  0.00  0.00    +0.245 HD
ATOM      6  C   LIG    1       -1.160  -2.187  -2.059  0.00  0.00    +0.400 C 
ATOM      7  N   LIG    1       -0.637  -3.251  -1.421  0.00  0.00    +0.090 NA
ENDROOT
BRANCH   7   8
ATOM      8  N   LIG    1       -0.256  -3.144  -0.193  0.00  0.00    +0.176 N 
ATOM      9  O   LIG    1       -1.048  -3.546   0.780  0.00  0.00    -0.095 OA
BRANCH   8  10
ATOM     10  O   LIG    1        0.925  -2.633   0.088  0.00  0.00    -0.370 OA
ATOM     11  H   LIG    1        1.488  -2.347  -0.604  0.00  0.00    +0.332 HD
ENDBRANCH   8  10
ENDBRANCH   7   8
BRANCH   1  12
ATOM     12  C   LIG    1       -1.259  -0.764  -0.013  0.00  0.00    +0.225 C 
BRANCH  12  19
ATOM     13  C   LIG    1       -3.337  -1.800   0.945  0.00  0.00    +0.011 A 
ATOM     14  C   LIG    1       -4.565  -1.656   1.572  0.00  0.00    +0.040 A 
ATOM     15  C   LIG    1       -5.011  -0.387   1.897  0.00  0.00    +0.129 A 
ATOM     16 CL   LIG    1       -6.547  -0.192   2.682  0.00  0.00    -0.062 Cl
ATOM     17  N   LIG    1       -4.282   0.677   1.616  0.00  0.00    -0.243 NA
ATOM     18  C   LIG    1       -3.110   0.576   1.020  0.00  0.00    +0.119 A 
ATOM     19  C   LIG    1       -2.600  -0.659   0.667  0.00  0.00    +0.002 A 
ENDBRANCH  12  19
ENDBRANCH   1  12
TORSDOF 4
