REMARK  Name = ZINC04324631
REMARK                            x       y       z     vdW  Elec       q    Type
REMARK                         _______ _______ _______ _____ _____    ______ ____
ROOT
ATOM      1  C   LIG    1       -0.018   1.503   0.032  0.00  0.00    +0.088 C 
ATOM      2  C   LIG    1        0.002  -0.004   0.013  0.00  0.00    +0.126 A 
ATOM      3  C   LIG    1       -1.081  -0.809   0.007  0.00  0.00    +0.078 A 
ATOM      4  C   LIG    1       -0.599  -2.142  -0.011  0.00  0.00    +0.094 A 
ATOM      5  C   LIG    1        0.744  -2.070  -0.015  0.00  0.00    +0.260 A 
ATOM      6  O   LIG    1        1.103  -0.776  -0.006  0.00  0.00    -0.440 OA
ENDROOT
BRANCH   3   7
ATOM      7  N   LIG    1       -2.429  -0.404   0.018  0.00  0.00    -0.266 N 
ATOM      8  H   LIG    1       -2.651   0.540   0.031  0.00  0.00    +0.156 HD
ATOM      9  C   LIG    1       -3.410  -1.327   0.010  0.00  0.00    +0.308 C 
ATOM     10  N   LIG    1       -4.701  -0.939   0.020  0.00  0.00    -0.269 N 
ATOM     11  H   LIG    1       -4.924   0.001   0.101  0.00  0.00    +0.156 HD
ATOM     12  O   LIG    1       -3.131  -2.511  -0.006  0.00  0.00    -0.252 OA
BRANCH  10  13
ATOM     13  C   LIG    1       -5.719  -1.894  -0.086  0.00  0.00    +0.035 A 
ATOM     14  C   LIG    1       -5.567  -3.142   0.502  0.00  0.00    +0.025 A 
ATOM     15  C   LIG    1       -6.574  -4.082   0.396  0.00  0.00    +0.022 A 
ATOM     16  C   LIG    1       -7.733  -3.780  -0.296  0.00  0.00    +0.041 A 
ATOM     17 CL   LIG    1       -8.997  -4.963  -0.428  0.00  0.00    -0.084 Cl
ATOM     18  C   LIG    1       -7.888  -2.536  -0.883  0.00  0.00    +0.022 A 
ATOM     19  C   LIG    1       -6.887  -1.591  -0.775  0.00  0.00    +0.025 A 
ENDBRANCH  10  13
ENDBRANCH   3   7
BRANCH   5  20
ATOM     20  S   LIG    1        1.847  -3.444  -0.036  0.00  0.00    +0.094 S 
ATOM     21  O   LIG    1        1.132  -4.547   0.504  0.00  0.00    -0.150 OA
ATOM     22  O   LIG    1        3.074  -2.988   0.516  0.00  0.00    -0.150 OA
BRANCH  20  23
ATOM     23  N   LIG    1        2.148  -3.806  -1.623  0.00  0.00    -0.174 NA
ATOM     24  C   LIG    1        1.294  -4.757  -2.349  0.00  0.00    +0.109 C 
ATOM     25  C   LIG    1        0.791  -4.088  -3.632  0.00  0.00    +0.017 C 
ATOM     26  C   LIG    1        1.986  -3.574  -4.438  0.00  0.00    +0.003 C 
ATOM     27  C   LIG    1        2.748  -2.531  -3.616  0.00  0.00    +0.017 C 
ATOM     28  C   LIG    1        3.270  -3.179  -2.335  0.00  0.00    +0.109 C 
ENDBRANCH  20  23
ENDBRANCH   5  20
TORSDOF 4
