REMARK  Name = ZINC04706717
REMARK                            x       y       z     vdW  Elec       q    Type
REMARK                         _______ _______ _______ _____ _____    ______ ____
ROOT
ATOM      1  C   LIG    1       -2.465   3.875   0.046  0.00  0.00    +0.035 A 
ATOM      2  C   LIG    1       -3.644   3.160   0.054  0.00  0.00    +0.023 A 
ATOM      3  C   LIG    1       -3.633   1.769   0.047  0.00  0.00    +0.002 A 
ATOM      4  C   LIG    1       -2.461   1.075   0.032  0.00  0.00    +0.008 A 
ATOM      5  C   LIG    1       -1.237   1.766   0.018  0.00  0.00    -0.016 A 
ATOM      6  C   LIG    1       -0.013   1.076   0.008  0.00  0.00    +0.008 A 
ATOM      7  C   LIG    1        1.155   1.776   0.001  0.00  0.00    +0.001 A 
ATOM      8  C   LIG    1        1.155   3.169   0.008  0.00  0.00    +0.001 A 
ATOM      9  C   LIG    1       -0.012   3.870   0.023  0.00  0.00    +0.010 A 
ATOM     10  C   LIG    1       -1.235   3.182   0.031  0.00  0.00    +0.003 A 
ENDROOT
BRANCH   1  11
ATOM     11  N   LIG    1       -2.487   5.268   0.054  0.00  0.00    -0.342 N 
ATOM     12  H   LIG    1       -1.655   5.766   0.049  0.00  0.00    +0.146 HD
BRANCH  11  13
ATOM     13  C   LIG    1       -3.768   5.980   0.070  0.00  0.00    +0.120 C 
BRANCH  13  14
ATOM     14  C   LIG    1       -3.512   7.489   0.076  0.00  0.00    +0.122 C 
BRANCH  14  17
ATOM     15  C   LIG    1       -6.130  10.281   0.117  0.00  0.00    +0.109 C 
ATOM     16  C   LIG    1       -4.814   9.548   0.100  0.00  0.00    +0.210 C 
ATOM     17  N   LIG    1       -4.792   8.201   0.092  0.00  0.00    -0.314 N 
ATOM     18  H   LIG    1       -5.624   7.702   0.098  0.00  0.00    +0.149 HD
ATOM     19  O   LIG    1       -3.773  10.171   0.093  0.00  0.00    -0.276 OA
ENDBRANCH  14  17
ENDBRANCH  13  14
ENDBRANCH  11  13
ENDBRANCH   1  11
TORSDOF 4
