REMARK  Name = ZINC04141329
REMARK                            x       y       z     vdW  Elec       q    Type
REMARK                         _______ _______ _______ _____ _____    ______ ____
ROOT
ATOM      1  C   LIG    1       -1.641   4.556   0.042  0.00  0.00    +0.139 C 
ATOM      2  N   LIG    1       -0.771   3.377   0.028  0.00  0.00    -0.267 N 
ATOM      3  C   LIG    1        0.621   3.429   0.015  0.00  0.00    +0.047 A 
ATOM      4  C   LIG    1        1.500   4.505   0.011  0.00  0.00    +0.026 A 
ATOM      5  C   LIG    1        2.865   4.287  -0.004  0.00  0.00    +0.034 A 
ATOM      6  C   LIG    1        3.376   3.000  -0.015  0.00  0.00    +0.122 A 
ATOM      7  C   LIG    1        2.521   1.917  -0.012  0.00  0.00    +0.046 A 
ATOM      8  C   LIG    1        1.142   2.125   0.003  0.00  0.00    +0.050 A 
ATOM      9  C   LIG    1       -0.014   1.209   0.009  0.00  0.00    +0.250 C 
ATOM     10  O   LIG    1        0.002  -0.004   0.002  0.00  0.00    -0.282 OA
ATOM     11  C   LIG    1       -1.215   2.108   0.018  0.00  0.00    +0.291 C 
ATOM     12  O   LIG    1       -2.376   1.755   0.021  0.00  0.00    -0.266 OA
ENDROOT
BRANCH   6  13
ATOM     13  N   LIG    1        4.840   2.786  -0.031  0.00  0.00    +0.006 N 
ATOM     14  O   LIG    1        5.290   1.655  -0.042  0.00  0.00    -0.130 OA
BRANCH  13  15
ATOM     15  O   LIG    1        5.595   3.742  -0.034  0.00  0.00    -0.396 OA
ATOM     16  H   LIG    1        5.249   4.613  -0.026  0.00  0.00    +0.329 HD
ENDBRANCH  13  15
ENDBRANCH   6  13
TORSDOF 2
