REMARK  Name = ZINC04353331
REMARK                            x       y       z     vdW  Elec       q    Type
REMARK                         _______ _______ _______ _____ _____    ______ ____
ROOT
ATOM      1  C   LIG    1       -5.930   6.779   6.633  0.00  0.00    +0.001 A 
ATOM      2  C   LIG    1       -5.102   7.112   7.688  0.00  0.00    +0.001 A 
ATOM      3  C   LIG    1       -3.727   7.002   7.562  0.00  0.00    +0.012 A 
ATOM      4  C   LIG    1       -3.176   6.553   6.367  0.00  0.00    +0.036 A 
ATOM      5  C   LIG    1       -4.019   6.214   5.293  0.00  0.00    +0.029 A 
ATOM      6  C   LIG    1       -3.425   5.736   4.024  0.00  0.00    +0.174 C 
ATOM      7  O   LIG    1       -4.144   5.440   3.090  0.00  0.00    -0.291 OA
ATOM      8  C   LIG    1       -1.969   5.621   3.896  0.00  0.00    +0.134 C 
ATOM      9  C   LIG    1       -1.155   5.939   4.923  0.00  0.00    +0.213 C 
ATOM     10  O   LIG    1        0.185   5.817   4.778  0.00  0.00    -0.288 OA
ATOM     11  C   LIG    1       -1.712   6.426   6.207  0.00  0.00    +0.229 C 
ATOM     12  O   LIG    1       -0.970   6.715   7.124  0.00  0.00    -0.284 OA
ATOM     13  C   LIG    1       -5.396   6.330   5.435  0.00  0.00    +0.012 A 
ENDROOT
BRANCH   8  14
ATOM     14  C   LIG    1       -1.374   5.133   2.599  0.00  0.00    +0.019 C 
BRANCH  14  15
ATOM     15  C   LIG    1       -1.354   3.604   2.591  0.00  0.00    +0.001 C 
BRANCH  15  16
ATOM     16  C   LIG    1       -0.750   3.109   1.275  0.00  0.00    +0.003 C 
BRANCH  16  17
ATOM     17  C   LIG    1       -0.729   1.579   1.267  0.00  0.00    -0.011 C 
ATOM     18  C   LIG    1       -2.164   1.050   1.278  0.00  0.00    +0.004 C 
ATOM     19  C   LIG    1       -2.904   1.556   0.038  0.00  0.00    +0.004 C 
ATOM     20  C   LIG    1       -2.188   1.063  -1.221  0.00  0.00    -0.008 C 
ATOM     21  C   LIG    1       -2.928   1.570  -2.460  0.00  0.00    +0.004 C 
ATOM     22  C   LIG    1       -2.212   1.077  -3.719  0.00  0.00    +0.000 C 
ATOM     23  C   LIG    1       -0.777   1.606  -3.730  0.00  0.00    +0.000 C 
ATOM     24  C   LIG    1       -0.037   1.099  -2.490  0.00  0.00    +0.004 C 
ATOM     25  C   LIG    1       -0.753   1.593  -1.232  0.00  0.00    -0.008 C 
ATOM     26  C   LIG    1       -0.013   1.086   0.008  0.00  0.00    +0.007 C 
ENDBRANCH  16  17
ENDBRANCH  15  16
ENDBRANCH  14  15
ENDBRANCH   8  14
TORSDOF 4
