REMARK  Name = ZINC04102443
REMARK                            x       y       z     vdW  Elec       q    Type
REMARK                         _______ _______ _______ _____ _____    ______ ____
ROOT
ATOM      1  C   LIG    1       -6.167  -9.271  -7.348  0.00  0.00    +0.013 C 
ENDROOT
BRANCH   1   2
ATOM      2  C   LIG    1       -5.609  -8.198  -8.285  0.00  0.00    +0.027 C 
BRANCH   2   4
ATOM      3  C   LIG    1       -5.296  -5.858  -7.662  0.00  0.00    -0.027 C 
ATOM      4  C   LIG    1       -6.130  -6.847  -7.868  0.00  0.00    -0.031 C 
BRANCH   3   5
ATOM      5  C   LIG    1       -3.836  -6.021  -7.997  0.00  0.00    +0.053 C 
BRANCH   5   7
ATOM      6  C   LIG    1       -2.360  -4.168  -8.589  0.00  0.00    -0.027 C 
ATOM      7  C   LIG    1       -3.401  -4.899  -8.904  0.00  0.00    -0.027 C 
BRANCH   6   8
ATOM      8  C   LIG    1       -1.495  -4.556  -7.418  0.00  0.00    +0.053 C 
BRANCH   8  10
ATOM      9  C   LIG    1        0.866  -3.965  -7.224  0.00  0.00    -0.027 C 
ATOM     10  C   LIG    1       -0.057  -4.640  -7.862  0.00  0.00    -0.027 C 
BRANCH   9  11
ATOM     11  C   LIG    1        0.522  -3.236  -5.951  0.00  0.00    +0.053 C 
BRANCH  11  13
ATOM     12  C   LIG    1        2.147  -2.719  -4.203  0.00  0.00    -0.031 C 
ATOM     13  C   LIG    1        1.488  -3.637  -4.865  0.00  0.00    -0.027 C 
BRANCH  12  14
ATOM     14  C   LIG    1        1.823  -1.262  -4.410  0.00  0.00    +0.027 C 
BRANCH  14  15
ATOM     15  C   LIG    1        1.563  -0.600  -3.055  0.00  0.00    +0.004 C 
BRANCH  15  16
ATOM     16  C   LIG    1        1.234   0.879  -3.264  0.00  0.00    +0.000 C 
BRANCH  16  18
ATOM     17  C   LIG    1        0.645   3.020  -2.118  0.00  0.00    +0.004 C 
ATOM     18  C   LIG    1        0.975   1.541  -1.909  0.00  0.00    -0.003 C 
ENDBRANCH  16  18
ENDBRANCH  15  16
ENDBRANCH  14  15
ENDBRANCH  12  14
ENDBRANCH  11  13
ENDBRANCH   9  11
ENDBRANCH   8  10
ENDBRANCH   6   8
ENDBRANCH   5   7
ENDBRANCH   3   5
ENDBRANCH   2   4
ENDBRANCH   1   2
BRANCH   1  19
ATOM     19  C   LIG    1       -5.637 -10.643  -7.771  0.00  0.00    +0.096 C 
BRANCH  19  20
ATOM     20  C   LIG    1       -6.187 -11.700  -6.849  0.00  0.00    +0.213 C 
ATOM     21  N   LIG    1       -5.854 -12.993  -7.031  0.00  0.00    -0.315 N 
ATOM     22  H   LIG    1       -5.260 -13.243  -7.757  0.00  0.00    +0.149 HD
ATOM     23  O   LIG    1       -6.929 -11.387  -5.942  0.00  0.00    -0.276 OA
BRANCH  21  24
ATOM     24  C   LIG    1       -6.388 -14.021  -6.135  0.00  0.00    +0.109 C 
BRANCH  24  25
ATOM     25  C   LIG    1       -5.859 -15.393  -6.558  0.00  0.00    +0.054 C 
BRANCH  25  26
ATOM     26  C   LIG    1       -6.409 -16.450  -5.635  0.00  0.00    -0.042 A 
ATOM     27  C   LIG    1       -5.719 -16.789  -4.486  0.00  0.00    +0.007 A 
ATOM     28  C   LIG    1       -6.219 -17.758  -3.636  0.00  0.00    +0.049 A 
ATOM     29  C   LIG    1       -7.414 -18.392  -3.936  0.00  0.00    +0.158 A 
ATOM     30  C   LIG    1       -8.108 -18.050  -5.092  0.00  0.00    +0.158 A 
ATOM     31  C   LIG    1       -7.604 -17.075  -5.937  0.00  0.00    +0.052 A 
BRANCH  30  32
ATOM     32  O   LIG    1       -9.282 -18.670  -5.390  0.00  0.00    -0.503 OA
ATOM     33  H   LIG    1      -10.063 -18.228  -5.028  0.00  0.00    +0.292 HD
ENDBRANCH  30  32
BRANCH  29  34
ATOM     34  O   LIG    1       -7.907 -19.346  -3.101  0.00  0.00    -0.503 OA
ATOM     35  H   LIG    1       -8.491 -19.001  -2.411  0.00  0.00    +0.292 HD
ENDBRANCH  29  34
ENDBRANCH  25  26
ENDBRANCH  24  25
ENDBRANCH  21  24
ENDBRANCH  19  20
ENDBRANCH   1  19
TORSDOF 19
