REMARK  Name = ZINC04234974
REMARK                            x       y       z     vdW  Elec       q    Type
REMARK                         _______ _______ _______ _____ _____    ______ ____
ROOT
ATOM      1  C   LIG    1        1.323  -0.282  -0.012  0.00  0.00    +0.034 A 
ATOM      2  C   LIG    1        0.002  -0.004   0.002  0.00  0.00    +0.048 A 
ATOM      3  S   LIG    1       -0.022   1.781   0.012  0.00  0.00    -0.095 S 
ATOM      4  C   LIG    1        1.731   2.057  -0.003  0.00  0.00    +0.038 A 
ATOM      5  C   LIG    1        2.768   2.975  -0.008  0.00  0.00    +0.050 A 
ATOM      6  CA  LIG    1        3.948   2.263  -0.024  0.00  0.00    +0.126 A 
ATOM      7  N   LIG    1        3.644   0.917  -0.027  0.00  0.00    -0.349 N 
ATOM      8  H   LIG    1        4.291   0.195  -0.037  0.00  0.00    +0.166 HD
ATOM      9  C   LIG    1        2.260   0.760  -0.015  0.00  0.00    +0.054 A 
ENDROOT
BRANCH   6  10
ATOM     10  C   LIG    1        5.294   2.836  -0.033  0.00  0.00    +0.353 C 
ATOM     11  O   LIG    1        5.441   4.044  -0.028  0.00  0.00    -0.243 OA
BRANCH  10  12
ATOM     12  OXT LIG    1        6.372   2.026  -0.047  0.00  0.00    -0.476 OA
ATOM     13  HXT LIG    1        6.260   1.095  -0.051  0.00  0.00    +0.295 HD
ENDBRANCH  10  12
ENDBRANCH   6  10
TORSDOF 2
