REMARK  Name = ZINC04658787
REMARK                            x       y       z     vdW  Elec       q    Type
REMARK                         _______ _______ _______ _____ _____    ______ ____
ROOT
ATOM      1  C   LIG    1       -0.430   8.528   0.971  0.00  0.00    +0.001 A 
ATOM      2  C   LIG    1       -1.461   8.701   0.064  0.00  0.00    +0.004 A 
ATOM      3  C   LIG    1       -1.753   7.714  -0.859  0.00  0.00    +0.047 A 
ATOM      4  C   LIG    1       -1.010   6.545  -0.884  0.00  0.00    +0.141 A 
ATOM      5  C   LIG    1        0.032   6.364   0.036  0.00  0.00    +0.059 A 
ATOM      6  C   LIG    1        0.317   7.369   0.963  0.00  0.00    +0.015 A 
ENDROOT
BRANCH   5   7
ATOM      7  C   LIG    1        0.826   5.120   0.022  0.00  0.00    +0.139 A 
ATOM      8  C   LIG    1        2.200   5.044   0.008  0.00  0.00    +0.051 A 
ATOM      9  C   LIG    1        2.534   3.687   0.003  0.00  0.00    +0.057 A 
ATOM     10  C   LIG    1        1.347   2.985   0.005  0.00  0.00    +0.212 A 
ATOM     11  O   LIG    1        0.330   3.872   0.020  0.00  0.00    -0.448 OA
BRANCH  10  12
ATOM     12  C   LIG    1        1.214   1.528  -0.001  0.00  0.00    +0.372 C 
ATOM     13  O   LIG    1        2.208   0.827  -0.015  0.00  0.00    -0.242 OA
BRANCH  12  14
ATOM     14  O   LIG    1       -0.011   0.963   0.007  0.00  0.00    -0.475 OA
ATOM     15  H   LIG    1       -0.776   1.503   0.018  0.00  0.00    +0.296 HD
ENDBRANCH  12  14
ENDBRANCH  10  12
ENDBRANCH   5   7
BRANCH   4  16
ATOM     16  O   LIG    1       -1.292   5.577  -1.794  0.00  0.00    -0.405 OA
BRANCH  16  17
ATOM     17  C   LIG    1       -2.367   5.832  -2.700  0.00  0.00    +0.575 C 
ATOM     18  F   LIG    1       -3.550   6.027  -1.978  0.00  0.00    -0.133 F 
ATOM     19  F   LIG    1       -2.520   4.740  -3.561  0.00  0.00    -0.133 F 
ATOM     20  F   LIG    1       -2.084   6.980  -3.448  0.00  0.00    -0.133 F 
ENDBRANCH  16  17
ENDBRANCH   4  16
TORSDOF 5
