REMARK  Name = ZINC04217594
REMARK                            x       y       z     vdW  Elec       q    Type
REMARK                         _______ _______ _______ _____ _____    ______ ____
ROOT
ATOM      1  C   LIG    1        1.992   4.250  -1.918  0.00  0.00    +0.110 A 
ATOM      2  C   LIG    1        1.468   4.770  -3.064  0.00  0.00    +0.082 A 
ATOM      3  C   LIG    1        0.014   4.558  -2.987  0.00  0.00    +0.076 A 
ATOM      4  C   LIG    1       -1.076   4.850  -3.816  0.00  0.00    +0.130 A 
ATOM      5  N   LIG    1       -2.291   4.484  -3.414  0.00  0.00    -0.220 NA
ATOM      6  C   LIG    1       -2.468   3.873  -2.257  0.00  0.00    +0.225 A 
ATOM      7  N   LIG    1       -1.473   3.584  -1.446  0.00  0.00    -0.217 NA
ATOM      8  C   LIG    1       -0.219   3.904  -1.767  0.00  0.00    +0.149 A 
ATOM      9  N   LIG    1        0.993   3.740  -1.149  0.00  0.00    -0.302 N 
ENDROOT
BRANCH   9  10
ATOM     10  C1* LIG    1        1.186   3.100   0.155  0.00  0.00    +0.252 C 
ATOM     11  C2* LIG    1        1.286   1.562  -0.002  0.00  0.00    +0.195 C 
ATOM     12  C3* LIG    1        2.090   1.159   1.259  0.00  0.00    +0.178 C 
ATOM     13  C4* LIG    1        2.803   2.457   1.683  0.00  0.00    +0.177 C 
ATOM     14  O4* LIG    1        2.466   3.466   0.716  0.00  0.00    -0.346 OA
BRANCH  11  15
ATOM     15  O2* LIG    1       -0.011   0.963   0.007  0.00  0.00    -0.385 OA
ATOM     16  H2* LIG    1        0.002  -0.004   0.002  0.00  0.00    +0.210 HD
ENDBRANCH  11  15
BRANCH  12  17
ATOM     17  O3* LIG    1        1.209   0.712   2.292  0.00  0.00    -0.386 OA
ATOM     18  H3* LIG    1        1.659   0.447   3.105  0.00  0.00    +0.210 HD
ENDBRANCH  12  17
BRANCH  13  19
ATOM     19  C5* LIG    1        4.317   2.238   1.698  0.00  0.00    +0.190 C 
BRANCH  19  20
ATOM     20  O5* LIG    1        4.963   3.408   2.203  0.00  0.00    -0.392 OA
ATOM     21  H5* LIG    1        5.927   3.340   2.241  0.00  0.00    +0.210 HD
ENDBRANCH  19  20
ENDBRANCH  13  19
ENDBRANCH   9  10
BRANCH   4  22
ATOM     22  N   LIG    1       -0.893   5.489  -5.029  0.00  0.00    -0.342 N 
ATOM     23  H   LIG    1       -1.657   5.685  -5.594  0.00  0.00    +0.144 HD
ATOM     24  H   LIG    1       -0.001   5.741  -5.315  0.00  0.00    +0.144 HD
ENDBRANCH   4  22
BRANCH   2  25
ATOM     25  C   LIG    1        2.189   5.397  -4.131  0.00  0.00    +0.101 C 
ATOM     26  N   LIG    1        2.760   5.894  -4.977  0.00  0.00    -0.191 NA
ENDBRANCH   2  25
TORSDOF 7
