REMARK  Name = ZINC04668242
REMARK                            x       y       z     vdW  Elec       q    Type
REMARK                         _______ _______ _______ _____ _____    ______ ____
ROOT
ATOM      1  C   LIG    1       -6.815   1.823   5.002  0.00  0.00    +0.039 A 
ATOM      2  C   LIG    1       -6.199   2.628   5.965  0.00  0.00    +0.015 A 
ATOM      3  C   LIG    1       -6.933   3.125   7.017  0.00  0.00    +0.026 A 
ATOM      4  C   LIG    1       -8.286   2.816   7.130  0.00  0.00    +0.060 A 
ATOM      5  C   LIG    1       -8.901   2.010   6.176  0.00  0.00    +0.143 A 
ATOM      6  C   LIG    1       -8.174   1.515   5.118  0.00  0.00    +0.047 A 
ENDROOT
BRANCH   4   7
ATOM      7  N   LIG    1       -9.025   3.315   8.197  0.00  0.00    -0.328 N 
ATOM      8  C   LIG    1       -9.101   4.780   8.145  0.00  0.00    +0.105 C 
ATOM      9  C   LIG    1      -10.038   5.283   9.246  0.00  0.00    +0.019 C 
ATOM     10  C   LIG    1       -9.507   4.829  10.608  0.00  0.00    +0.003 C 
ATOM     11  C   LIG    1       -9.391   3.302  10.619  0.00  0.00    +0.019 C 
ATOM     12  C   LIG    1       -8.473   2.857   9.479  0.00  0.00    +0.105 C 
ENDBRANCH   4   7
BRANCH   1  15
ATOM     13  N   LIG    1       -4.722   1.593   3.758  0.00  0.00    -0.281 N 
ATOM     14  H   LIG    1       -4.277   2.090   4.462  0.00  0.00    +0.155 HD
ATOM     15  C   LIG    1       -6.032   1.295   3.869  0.00  0.00    +0.248 C 
ATOM     16  O   LIG    1       -6.568   0.591   3.035  0.00  0.00    -0.270 OA
BRANCH  13  21
ATOM     17  C   LIG    1       -3.920   0.719   0.275  0.00  0.00    +0.122 A 
ATOM     18  C   LIG    1       -2.580   0.379   0.394  0.00  0.00    +0.046 A 
ATOM     19  C   LIG    1       -1.956   0.442   1.625  0.00  0.00    +0.005 A 
ATOM     20  C   LIG    1       -2.664   0.844   2.742  0.00  0.00    +0.023 A 
ATOM     21  C   LIG    1       -4.005   1.186   2.628  0.00  0.00    +0.037 A 
ATOM     22  C   LIG    1       -4.632   1.128   1.391  0.00  0.00    +0.069 A 
BRANCH  17  24
ATOM     23  C   LIG    1       -3.736   0.232  -2.045  0.00  0.00    +0.277 C 
ATOM     24  O   LIG    1       -4.532   0.656  -0.937  0.00  0.00    -0.495 OA
ENDBRANCH  17  24
ENDBRANCH  13  21
ENDBRANCH   1  15
BRANCH   5  25
ATOM     25  N   LIG    1      -10.340   1.684   6.300  0.00  0.00    +0.008 N 
ATOM     26  O   LIG    1      -10.879   0.979   5.466  0.00  0.00    -0.130 OA
BRANCH  25  27
ATOM     27  O   LIG    1      -10.985   2.121   7.237  0.00  0.00    -0.396 OA
ATOM     28  H   LIG    1      -10.570   2.664   7.878  0.00  0.00    +0.329 HD
ENDBRANCH  25  27
ENDBRANCH   5  25
TORSDOF 6
