REMARK  Name = ZINC04657707
REMARK                            x       y       z     vdW  Elec       q    Type
REMARK                         _______ _______ _______ _____ _____    ______ ____
ROOT
ATOM      1  N   LIG    1       -1.172  -0.708   0.010  0.00  0.00    -0.149 NA
ATOM      2  N   LIG    1       -1.151  -1.997   0.003  0.00  0.00    -0.142 NA
ENDROOT
BRANCH   2   3
ATOM      3  C   LIG    1       -2.316  -2.696   0.011  0.00  0.00    +0.164 A 
ATOM      4  C   LIG    1       -3.615  -2.157   0.020  0.00  0.00    +0.139 A 
ATOM      5  N   LIG    1       -4.470  -3.171   0.026  0.00  0.00    -0.284 N 
ATOM      6  N   LIG    1       -3.751  -4.371   0.020  0.00  0.00    -0.284 N 
ATOM      7  H   LIG    1       -4.138  -5.260   0.022  0.00  0.00    +0.188 HD
ATOM      8  H   LIG    1       -5.437  -3.094   0.032  0.00  0.00    +0.188 HD
ATOM      9  C   LIG    1       -2.454  -4.095   0.004  0.00  0.00    +0.139 A 
BRANCH   4  10
ATOM     10  N   LIG    1       -3.943  -0.810   0.024  0.00  0.00    -0.342 N 
ATOM     11  H   LIG    1       -4.874  -0.537   0.031  0.00  0.00    +0.144 HD
ATOM     12  H   LIG    1       -3.242  -0.140   0.020  0.00  0.00    +0.144 HD
ENDBRANCH   4  10
BRANCH   9  13
ATOM     13  N   LIG    1       -1.420  -5.020  -0.011  0.00  0.00    -0.342 N 
ATOM     14  H   LIG    1       -1.619  -5.969  -0.014  0.00  0.00    +0.144 HD
ATOM     15  H   LIG    1       -0.499  -4.717  -0.019  0.00  0.00    +0.144 HD
ENDBRANCH   9  13
ENDBRANCH   2   3
BRANCH   1  21
ATOM     16  C   LIG    1       -0.017   1.393   0.010  0.00  0.00    +0.031 A 
ATOM     17  C   LIG    1        1.170   2.095   0.002  0.00  0.00    +0.030 A 
ATOM     18  C   LIG    1        2.378   1.420  -0.013  0.00  0.00    +0.105 A 
ATOM     19  C   LIG    1        2.404   0.036  -0.021  0.00  0.00    +0.030 A 
ATOM     20  C   LIG    1        1.225  -0.679  -0.014  0.00  0.00    +0.031 A 
ATOM     21  C   LIG    1        0.002  -0.004   0.002  0.00  0.00    +0.086 A 
BRANCH  18  22
ATOM     22  S   LIG    1        3.889   2.325  -0.023  0.00  0.00    +0.056 S 
ATOM     23  O   LIG    1        3.592   3.605  -0.564  0.00  0.00    -0.153 OA
ATOM     24  O   LIG    1        4.872   1.469  -0.587  0.00  0.00    -0.153 OA
BRANCH  22  25
ATOM     25  N   LIG    1        4.324   2.568   1.557  0.00  0.00    -0.204 NA
ATOM     26  H   LIG    1        5.137   3.054   1.766  0.00  0.00    +0.144 HD
ATOM     27  H   LIG    1        3.765   2.226   2.272  0.00  0.00    +0.144 HD
ENDBRANCH  22  25
ENDBRANCH  18  22
ENDBRANCH   1  21
TORSDOF 6
