REMARK  Name = ZINC04562873
REMARK                            x       y       z     vdW  Elec       q    Type
REMARK                         _______ _______ _______ _____ _____    ______ ____
ROOT
ATOM      1  C   LIG    1        0.559   0.073   4.766  0.00  0.00    +0.246 A 
ATOM      2  C   LIG    1        0.787  -0.439   6.051  0.00  0.00    +0.114 A 
ATOM      3  C   LIG    1        0.814   0.610   6.918  0.00  0.00    +0.143 A 
ATOM      4  N   LIG    1        0.610   1.743   6.197  0.00  0.00    -0.112 N 
ATOM      5  N   LIG    1        0.459   1.377   4.854  0.00  0.00    -0.110 NA
ENDROOT
BRANCH   3   6
ATOM      6  N   LIG    1        1.015   0.536   8.294  0.00  0.00    -0.342 N 
ATOM      7  H   LIG    1        1.018   1.345   8.828  0.00  0.00    +0.144 HD
ATOM      8  H   LIG    1        1.153  -0.326   8.718  0.00  0.00    +0.144 HD
ENDBRANCH   3   6
BRANCH   4   9
ATOM      9  S   LIG    1        0.556   3.285   6.800  0.00  0.00    +0.101 S 
ATOM     10  O   LIG    1        0.201   3.173   8.171  0.00  0.00    -0.146 OA
ATOM     11  O   LIG    1       -0.203   4.055   5.877  0.00  0.00    -0.146 OA
BRANCH   9  12
ATOM     12  C   LIG    1        2.199   3.920   6.755  0.00  0.00    +0.113 A 
ATOM     13  C   LIG    1        3.034   3.749   7.843  0.00  0.00    +0.032 A 
ATOM     14  C   LIG    1        4.325   4.241   7.808  0.00  0.00    +0.047 A 
ATOM     15  C   LIG    1        4.778   4.917   6.684  0.00  0.00    +0.120 A 
ATOM     16  C   LIG    1        3.936   5.091   5.596  0.00  0.00    +0.047 A 
ATOM     17  C   LIG    1        2.648   4.593   5.634  0.00  0.00    +0.032 A 
BRANCH  15  18
ATOM     18  O   LIG    1        6.045   5.406   6.650  0.00  0.00    -0.495 OA
ATOM     19  C   LIG    1        6.857   5.189   7.806  0.00  0.00    +0.277 C 
ENDBRANCH  15  18
ENDBRANCH   9  12
ENDBRANCH   4   9
BRANCH   1  20
ATOM     20  O   LIG    1        0.465  -0.658   3.624  0.00  0.00    -0.402 OA
BRANCH  20  21
ATOM     21  C   LIG    1        0.242   0.019   2.481  0.00  0.00    +0.346 C 
ATOM     22  O   LIG    1        0.135   1.229   2.503  0.00  0.00    -0.244 OA
BRANCH  21  29
ATOM     23  C   LIG    1       -0.500   1.455   0.081  0.00  0.00    +0.044 C 
ATOM     24  C   LIG    1       -0.229  -0.027   0.036  0.00  0.00    -0.036 A 
ATOM     25  C   LIG    1       -0.339  -0.715  -1.155  0.00  0.00    +0.004 A 
ATOM     26  C   LIG    1       -0.086  -2.074  -1.199  0.00  0.00    +0.000 A 
ATOM     27  C   LIG    1        0.268  -2.756  -0.048  0.00  0.00    +0.001 A 
ATOM     28  C   LIG    1        0.377  -2.082   1.150  0.00  0.00    +0.015 A 
ATOM     29  C   LIG    1        0.128  -0.709   1.201  0.00  0.00    +0.062 A 
ENDBRANCH  21  29
ENDBRANCH  20  21
ENDBRANCH   1  20
TORSDOF 7
