REMARK  Name = ZINC04280929
REMARK                            x       y       z     vdW  Elec       q    Type
REMARK                         _______ _______ _______ _____ _____    ______ ____
ROOT
ATOM      1  N   LIG    1       -0.494   5.254   0.744  0.00  0.00    -0.281 N 
ATOM      2  H   LIG    1        0.390   5.652   0.728  0.00  0.00    +0.155 HD
ATOM      3  C   LIG    1       -1.580   6.014   0.500  0.00  0.00    +0.252 C 
ATOM      4  O   LIG    1       -2.692   5.535   0.604  0.00  0.00    -0.270 OA
ENDROOT
BRANCH   1   6
ATOM      5  C   LIG    1        0.309   2.983   0.569  0.00  0.00    +0.043 A 
ATOM      6  C   LIG    1       -0.641   3.891   1.019  0.00  0.00    +0.036 A 
ATOM      7  C   LIG    1       -1.739   3.442   1.742  0.00  0.00    +0.043 A 
ATOM      8  C   LIG    1       -1.882   2.094   2.013  0.00  0.00    +0.044 A 
ATOM      9 CL   LIG    1       -3.253   1.532   2.918  0.00  0.00    -0.083 Cl
ATOM     10  C   LIG    1       -0.934   1.192   1.564  0.00  0.00    +0.040 A 
ATOM     11  C   LIG    1        0.164   1.637   0.848  0.00  0.00    +0.044 A 
ATOM     12 CL   LIG    1        1.355   0.503   0.292  0.00  0.00    -0.083 Cl
ENDBRANCH   1   6
BRANCH   3  13
ATOM     13  C   LIG    1       -1.418   7.429   0.108  0.00  0.00    +0.085 A 
ATOM     14  C   LIG    1       -0.346   8.191   0.588  0.00  0.00    +0.129 A 
ATOM     15  N   LIG    1       -0.240   9.453   0.211  0.00  0.00    -0.225 NA
ATOM     16  C   LIG    1       -1.125   9.995  -0.605  0.00  0.00    +0.223 A 
ATOM     17 CL   LIG    1       -0.935  11.658  -1.067  0.00  0.00    -0.041 Cl
ATOM     18  N   LIG    1       -2.150   9.313  -1.080  0.00  0.00    -0.213 NA
ATOM     19  C   LIG    1       -2.329   8.044  -0.759  0.00  0.00    +0.160 A 
BRANCH  19  20
ATOM     20  C   LIG    1       -3.499   7.272  -1.313  0.00  0.00    +0.435 C 
ATOM     21  F   LIG    1       -3.047   6.063  -1.853  0.00  0.00    -0.164 F 
ATOM     22  F   LIG    1       -4.123   8.025  -2.313  0.00  0.00    -0.164 F 
ATOM     23  F   LIG    1       -4.414   7.011  -0.286  0.00  0.00    -0.164 F 
ENDBRANCH  19  20
ENDBRANCH   3  13
TORSDOF 3
