REMARK  Name = ZINC04214849
REMARK                            x       y       z     vdW  Elec       q    Type
REMARK                         _______ _______ _______ _____ _____    ______ ____
ROOT
ATOM      1  C   LIG    1        1.203  -5.269  -7.924  0.00  0.00    +0.014 C 
ENDROOT
BRANCH   1   2
ATOM      2  C   LIG    1        1.835  -5.438  -6.541  0.00  0.00    +0.016 C 
BRANCH   2   3
ATOM      3  C   LIG    1        1.438  -4.258  -5.651  0.00  0.00    +0.084 C 
BRANCH   3  10
ATOM      4  N   LIG    1        1.809  -3.425   0.419  0.00  0.00    -0.300 N 
ATOM      5  H   LIG    1        2.073  -2.595  -0.007  0.00  0.00    +0.150 HD
ATOM      6  C   LIG    1        1.902  -4.588  -0.255  0.00  0.00    +0.302 C 
ATOM      7  N   LIG    1        2.272  -4.588  -1.551  0.00  0.00    -0.283 N 
ATOM      8  C   LIG    1        2.684  -3.344  -2.218  0.00  0.00    +0.124 C 
ATOM      9  C   LIG    1        1.886  -3.202  -3.519  0.00  0.00    +0.103 C 
ATOM     10  N   LIG    1        2.046  -4.421  -4.323  0.00  0.00    -0.299 NA
ATOM     11  C   LIG    1        1.492  -5.592  -3.631  0.00  0.00    +0.103 C 
ATOM     12  C   LIG    1        2.280  -5.834  -2.333  0.00  0.00    +0.124 C 
ATOM     13  O   LIG    1        1.652  -5.638   0.306  0.00  0.00    -0.253 OA
BRANCH   4  15
ATOM     14  C   LIG    1        1.306  -1.979   2.326  0.00  0.00    +0.024 C 
ATOM     15  C   LIG    1        1.310  -3.414   1.797  0.00  0.00    +0.102 C 
ENDBRANCH   4  15
ENDBRANCH   3  10
ENDBRANCH   2   3
ENDBRANCH   1   2
BRANCH   1  16
ATOM     16  C   LIG    1        1.600  -6.448  -8.814  0.00  0.00    +0.049 C 
BRANCH  16  17
ATOM     17  C   LIG    1        1.080  -6.221 -10.210  0.00  0.00    -0.040 A 
ATOM     18  C   LIG    1       -0.250  -5.901 -10.408  0.00  0.00    +0.007 A 
ATOM     19  C   LIG    1       -0.728  -5.692 -11.688  0.00  0.00    +0.038 A 
ATOM     20  C   LIG    1        0.126  -5.804 -12.772  0.00  0.00    +0.123 A 
ATOM     21  F   LIG    1       -0.340  -5.600 -14.024  0.00  0.00    -0.205 F 
ATOM     22  C   LIG    1        1.458  -6.125 -12.572  0.00  0.00    +0.038 A 
ATOM     23  C   LIG    1        1.935  -6.328 -11.291  0.00  0.00    +0.007 A 
ENDBRANCH  16  17
BRANCH  16  24
ATOM     24  C   LIG    1        1.009  -7.718  -8.258  0.00  0.00    -0.040 A 
ATOM     25  C   LIG    1       -0.347  -7.795  -8.003  0.00  0.00    +0.007 A 
ATOM     26  C   LIG    1       -0.890  -8.959  -7.494  0.00  0.00    +0.038 A 
ATOM     27  C   LIG    1       -0.075 -10.049  -7.239  0.00  0.00    +0.123 A 
ATOM     28  F   LIG    1       -0.605 -11.188  -6.741  0.00  0.00    -0.205 F 
ATOM     29  C   LIG    1        1.284  -9.971  -7.494  0.00  0.00    +0.038 A 
ATOM     30  C   LIG    1        1.823  -8.807  -8.008  0.00  0.00    +0.007 A 
ENDBRANCH  16  24
ENDBRANCH   1  16
TORSDOF 7
