REMARK  Name = ZINC04802755
REMARK                            x       y       z     vdW  Elec       q    Type
REMARK                         _______ _______ _______ _____ _____    ______ ____
ROOT
ATOM      1  C   LIG    1        7.677  -2.925  -1.980  0.00  0.00    -0.038 A 
ATOM      2  C   LIG    1        6.931  -2.509  -3.068  0.00  0.00    +0.007 A 
ATOM      3  C   LIG    1        5.738  -1.841  -2.873  0.00  0.00    +0.046 A 
ATOM      4  C   LIG    1        5.287  -1.589  -1.586  0.00  0.00    +0.121 A 
ATOM      5  C   LIG    1        6.040  -2.003  -0.496  0.00  0.00    +0.046 A 
ATOM      6  C   LIG    1        7.229  -2.676  -0.696  0.00  0.00    +0.007 A 
ENDROOT
BRANCH   1   7
ATOM      7  C   LIG    1        8.979  -3.654  -2.195  0.00  0.00    +0.133 C 
BRANCH   7  10
ATOM      8  C   LIG    1       12.467  -2.112  -2.525  0.00  0.00    +0.166 C 
ATOM      9  N   LIG    1       11.371  -3.082  -2.455  0.00  0.00    -0.187 N 
ATOM     10  C   LIG    1       10.106  -2.656  -2.267  0.00  0.00    +0.242 C 
ATOM     11  O   LIG    1        9.875  -1.471  -2.154  0.00  0.00    -0.273 OA
BRANCH   9  12
ATOM     12  O   LIG    1       11.640  -4.466  -2.587  0.00  0.00    -0.293 OA
ATOM     13  H   LIG    1       12.575  -4.674  -2.719  0.00  0.00    +0.242 HD
ENDBRANCH   9  12
ENDBRANCH   7  10
ENDBRANCH   1   7
BRANCH   4  14
ATOM     14  O   LIG    1        4.113  -0.932  -1.392  0.00  0.00    -0.487 OA
BRANCH  14  15
ATOM     15  C   LIG    1        3.711  -0.707  -0.039  0.00  0.00    +0.264 C 
BRANCH  15  16
ATOM     16  C   LIG    1        2.396   0.029  -0.022  0.00  0.00    -0.010 A 
ATOM     17  C   LIG    1        1.208  -0.679  -0.014  0.00  0.00    +0.007 A 
ATOM     18  C   LIG    1        0.002  -0.004   0.002  0.00  0.00    +0.000 A 
ATOM     19  C   LIG    1       -0.017   1.378   0.010  0.00  0.00    +0.000 A 
ATOM     20  C   LIG    1        1.171   2.086   0.002  0.00  0.00    +0.000 A 
ATOM     21  C   LIG    1        2.377   1.411  -0.014  0.00  0.00    +0.007 A 
ENDBRANCH  15  16
ENDBRANCH  14  15
ENDBRANCH   4  14
TORSDOF 6
