REMARK  Name = ZINC04809571
REMARK                            x       y       z     vdW  Elec       q    Type
REMARK                         _______ _______ _______ _____ _____    ______ ____
ROOT
ATOM      1  C   LIG    1       -0.181  -4.195   0.882  0.00  0.00    +0.096 C 
ATOM      2  C   LIG    1       -0.299  -4.800  -0.489  0.00  0.00    +0.010 A 
ATOM      3  C   LIG    1        0.795  -4.811  -1.334  0.00  0.00    +0.053 A 
ATOM      4  C   LIG    1        0.690  -5.368  -2.600  0.00  0.00    +0.121 A 
ATOM      5  C   LIG    1       -0.515  -5.915  -3.018  0.00  0.00    +0.049 A 
ATOM      6  C   LIG    1       -1.607  -5.905  -2.174  0.00  0.00    +0.050 A 
ATOM      7  C   LIG    1       -1.502  -5.347  -0.906  0.00  0.00    +0.132 A 
ATOM      8  O   LIG    1       -2.576  -5.342  -0.081  0.00  0.00    -0.460 OA
ATOM      9  C   LIG    1       -2.409  -5.232   1.249  0.00  0.00    +0.114 C 
ATOM     10  C   LIG    1       -3.511  -5.745   2.146  0.00  0.00    +0.081 C 
ATOM     11  C   LIG    1       -3.571  -4.914   3.416  0.00  0.00    -0.021 C 
ATOM     12  C   LIG    1       -3.869  -3.454   3.071  0.00  0.00    +0.012 C 
ATOM     13  C   LIG    1       -4.663  -5.459   4.338  0.00  0.00    +0.012 C 
ATOM     14  C   LIG    1       -2.210  -5.011   4.115  0.00  0.00    +0.086 C 
ATOM     15  C   LIG    1       -1.138  -4.559   3.162  0.00  0.00    +0.164 C 
ATOM     16  O   LIG    1       -0.116  -4.073   3.603  0.00  0.00    -0.292 OA
ATOM     17  C   LIG    1       -1.297  -4.688   1.770  0.00  0.00    +0.045 C 
ENDROOT
BRANCH   1  23
ATOM     18  C   LIG    1       -0.162   1.512  -0.093  0.00  0.00    +0.012 C 
ATOM     19  C   LIG    1       -0.069  -0.015  -0.048  0.00  0.00    -0.021 C 
ATOM     20  C   LIG    1       -1.478  -0.613   0.018  0.00  0.00    +0.086 C 
ATOM     21  C   LIG    1       -1.371  -2.111   0.149  0.00  0.00    +0.164 C 
ATOM     22  O   LIG    1       -2.256  -2.818  -0.289  0.00  0.00    -0.292 OA
ATOM     23  C   LIG    1       -0.258  -2.694   0.773  0.00  0.00    +0.044 C 
ATOM     24  C   LIG    1        0.742  -1.948   1.276  0.00  0.00    +0.102 C 
ATOM     25  C   LIG    1        0.647  -0.522  -1.302  0.00  0.00    +0.012 C 
ATOM     26  C   LIG    1        0.710  -0.445   1.198  0.00  0.00    +0.080 C 
BRANCH  24  27
ATOM     27  O   LIG    1        1.791  -2.557   1.860  0.00  0.00    -0.511 OA
ATOM     28  H   LIG    1        1.772  -3.522   1.795  0.00  0.00    +0.292 HD
ENDBRANCH  24  27
ENDBRANCH   1  23
BRANCH   4  29
ATOM     29  O   LIG    1        1.766  -5.379  -3.430  0.00  0.00    -0.495 OA
ATOM     30  C   LIG    1        1.586  -5.969  -4.719  0.00  0.00    +0.277 C 
ENDBRANCH   4  29
TORSDOF 3
