REMARK  Name = ZINC04217438
REMARK                            x       y       z     vdW  Elec       q    Type
REMARK                         _______ _______ _______ _____ _____    ______ ____
ROOT
ATOM      1  C   LIG    1        0.139   0.855  -0.504  0.00  0.00    +0.104 A 
ATOM      2  C   LIG    1       -1.022   1.554  -0.355  0.00  0.00    +0.067 A 
ATOM      3  C   LIG    1       -0.634   2.950  -0.098  0.00  0.00    +0.070 A 
ATOM      4  C   LIG    1       -1.325   4.144   0.139  0.00  0.00    +0.129 A 
ATOM      5  N   LIG    1       -0.619   5.255   0.331  0.00  0.00    -0.220 NA
ATOM      6  C   LIG    1        0.701   5.235   0.299  0.00  0.00    +0.225 A 
ATOM      7  N   LIG    1        1.389   4.135   0.080  0.00  0.00    -0.218 NA
ATOM      8  C   LIG    1        0.769   2.974  -0.123  0.00  0.00    +0.149 A 
ATOM      9  N   LIG    1        1.198   1.695  -0.370  0.00  0.00    -0.302 N 
ENDROOT
BRANCH   2  10
ATOM     10  C   LIG    1       -2.389   1.019  -0.434  0.00  0.00    +0.244 C 
ATOM     11  N   LIG    1       -2.587  -0.308  -0.552  0.00  0.00    -0.325 N 
ATOM     12  H   LIG    1       -3.489  -0.661  -0.604  0.00  0.00    +0.145 HD
ATOM     13  H   LIG    1       -1.828  -0.911  -0.585  0.00  0.00    +0.145 HD
ATOM     14  O   LIG    1       -3.341   1.775  -0.392  0.00  0.00    -0.270 OA
ENDBRANCH   2  10
BRANCH   9  15
ATOM     15  C1* LIG    1        2.602   1.291  -0.475  0.00  0.00    +0.252 C 
ATOM     16  C2* LIG    1        3.191   0.996   0.928  0.00  0.00    +0.195 C 
ATOM     17  C3* LIG    1        4.352   0.027   0.595  0.00  0.00    +0.178 C 
ATOM     18  C4* LIG    1        3.986  -0.538  -0.791  0.00  0.00    +0.177 C 
ATOM     19  O4* LIG    1        2.717   0.027  -1.162  0.00  0.00    -0.346 OA
BRANCH  16  20
ATOM     20  O2* LIG    1        3.683   2.191   1.537  0.00  0.00    -0.385 OA
ATOM     21  H2* LIG    1        4.061   2.058   2.417  0.00  0.00    +0.210 HD
ENDBRANCH  16  20
BRANCH  17  22
ATOM     22  O3* LIG    1        5.592   0.734   0.539  0.00  0.00    -0.386 OA
ATOM     23  H3* LIG    1        6.354   0.176   0.333  0.00  0.00    +0.210 HD
ENDBRANCH  17  22
BRANCH  18  24
ATOM     24  C5* LIG    1        3.880  -2.062  -0.720  0.00  0.00    +0.190 C 
BRANCH  24  25
ATOM     25  O5* LIG    1        3.656  -2.586  -2.030  0.00  0.00    -0.392 OA
ATOM     26  H5* LIG    1        3.578  -3.550  -2.061  0.00  0.00    +0.210 HD
ENDBRANCH  24  25
ENDBRANCH  18  24
ENDBRANCH   9  15
BRANCH   4  27
ATOM     27  N   LIG    1       -2.709   4.169   0.173  0.00  0.00    -0.343 N 
ATOM     28  H   LIG    1       -3.188   4.946  -0.153  0.00  0.00    +0.144 HD
ATOM     29  H   LIG    1       -3.199   3.408   0.523  0.00  0.00    +0.144 HD
ENDBRANCH   4  27
TORSDOF 7
