REMARK  Name = ZINC04713641
REMARK                            x       y       z     vdW  Elec       q    Type
REMARK                         _______ _______ _______ _____ _____    ______ ____
ROOT
ATOM      1  C   LIG    1        2.800   0.552  -2.643  0.00  0.00    +0.268 C 
ENDROOT
BRANCH   1   4
ATOM      2  C   LIG    1        5.288  -0.997  -1.567  0.00  0.00    +0.086 C 
ATOM      3  C   LIG    1        4.230  -0.331  -0.725  0.00  0.00    +0.109 A 
ATOM      4  C   LIG    1        3.165   0.333  -1.198  0.00  0.00    +0.044 A 
ATOM      5  C   LIG    1        2.427   0.806  -0.017  0.00  0.00    +0.106 A 
ATOM      6  C   LIG    1        3.135   0.360   1.061  0.00  0.00    +0.117 A 
ATOM      7  C   LIG    1        2.776   0.586   2.507  0.00  0.00    +0.087 C 
ATOM      8  O   LIG    1        4.201  -0.312   0.617  0.00  0.00    -0.464 OA
BRANCH   5   9
ATOM      9  C   LIG    1        1.181   1.591  -0.001  0.00  0.00    +0.341 C 
ATOM     10  O   LIG    1        1.228   2.805   0.005  0.00  0.00    -0.245 OA
BRANCH   9  11
ATOM     11  O   LIG    1       -0.011   0.963   0.007  0.00  0.00    -0.477 OA
ATOM     12  H   LIG    1       -0.047   0.027   0.003  0.00  0.00    +0.295 HD
ENDBRANCH   9  11
ENDBRANCH   5   9
ENDBRANCH   1   4
BRANCH   1  13
ATOM     13  O   LIG    1        3.402   1.762  -3.108  0.00  0.00    -0.486 OA
BRANCH  13  14
ATOM     14  C   LIG    1        3.171   2.108  -4.399  0.00  0.00    +0.135 A 
ATOM     15  C   LIG    1        2.386   1.300  -5.208  0.00  0.00    +0.046 A 
ATOM     16  C   LIG    1        2.148   1.656  -6.520  0.00  0.00    +0.004 A 
ATOM     17  C   LIG    1        2.698   2.815  -7.043  0.00  0.00    +0.001 A 
ATOM     18  C   LIG    1        3.485   3.627  -6.257  0.00  0.00    +0.018 A 
ATOM     19  C   LIG    1        3.730   3.282  -4.925  0.00  0.00    +0.100 A 
BRANCH  19  20
ATOM     20  C   LIG    1        4.572   4.146  -4.077  0.00  0.00    +0.340 C 
ATOM     21  O   LIG    1        4.783   3.842  -2.920  0.00  0.00    -0.245 OA
BRANCH  20  22
ATOM     22  O   LIG    1        5.107   5.273  -4.586  0.00  0.00    -0.477 OA
ATOM     23  H   LIG    1        4.944   5.507  -5.479  0.00  0.00    +0.295 HD
ENDBRANCH  20  22
ENDBRANCH  19  20
ENDBRANCH  13  14
ENDBRANCH   1  13
TORSDOF 7
