REMARK  Name = ZINC04213659
REMARK                            x       y       z     vdW  Elec       q    Type
REMARK                         _______ _______ _______ _____ _____    ______ ____
ROOT
ATOM      1  C   LIG    1        4.415   1.923   1.301  0.00  0.00    +0.025 C 
ENDROOT
BRANCH   1   2
ATOM      2  C   LIG    1        3.668   2.182  -0.009  0.00  0.00    +0.084 C 
BRANCH   2   3
ATOM      3  C   LIG    1        2.372   1.413  -0.009  0.00  0.00    -0.027 A 
ATOM      4  C   LIG    1        1.167   2.090  -0.005  0.00  0.00    +0.005 A 
ATOM      5  C   LIG    1       -0.022   1.385  -0.006  0.00  0.00    +0.000 A 
ATOM      6  C   LIG    1       -0.006   0.003  -0.009  0.00  0.00    +0.000 A 
ATOM      7  C   LIG    1        1.200  -0.674  -0.011  0.00  0.00    +0.000 A 
ATOM      8  C   LIG    1        2.388   0.031  -0.011  0.00  0.00    +0.005 A 
ENDBRANCH   2   3
BRANCH   2  10
ATOM      9  C   LIG    1        2.526   3.923  -1.390  0.00  0.00    +0.009 C 
ATOM     10  C   LIG    1        3.374   3.678  -0.140  0.00  0.00    +0.007 C 
ATOM     11  C   LIG    1        2.610   4.158   1.096  0.00  0.00    +0.009 C 
ENDBRANCH   2  10
BRANCH   2  12
ATOM     12  C   LIG    1        4.498   1.744  -1.143  0.00  0.00    +0.074 C 
ATOM     13  N   LIG    1        5.139   1.407  -2.018  0.00  0.00    -0.196 NA
ENDBRANCH   2  12
ENDBRANCH   1   2
BRANCH   1  14
ATOM     14  C   LIG    1        5.731   2.703   1.301  0.00  0.00    -0.017 C 
BRANCH  14  15
ATOM     15  C   LIG    1        6.478   2.444   2.611  0.00  0.00    -0.079 C 
BRANCH  15  16
ATOM     16  N   LIG    1        7.736   3.221   2.604  0.00  0.00    +0.378 N 
ATOM     17  H   LIG    1        7.521   4.199   2.380  0.00  0.00    -0.082 HD
ATOM     18  C   LIG    1        8.656   2.684   1.580  0.00  0.00    -0.096 C 
BRANCH  16  19
ATOM     19  C   LIG    1        8.373   3.161   3.937  0.00  0.00    -0.075 C 
BRANCH  19  20
ATOM     20  C   LIG    1        9.543   4.146   3.969  0.00  0.00    +0.016 C 
BRANCH  20  21
ATOM     21  C   LIG    1       10.190   4.113   5.329  0.00  0.00    -0.049 A 
ATOM     22  C   LIG    1        9.752   4.967   6.324  0.00  0.00    +0.003 A 
ATOM     23  C   LIG    1       10.343   4.933   7.573  0.00  0.00    +0.000 A 
ATOM     24  C   LIG    1       11.379   4.053   7.824  0.00  0.00    +0.000 A 
ATOM     25  C   LIG    1       11.820   3.203   6.828  0.00  0.00    +0.000 A 
ATOM     26  C   LIG    1       11.226   3.233   5.580  0.00  0.00    +0.003 A 
ENDBRANCH  20  21
ENDBRANCH  19  20
ENDBRANCH  16  19
ENDBRANCH  15  16
ENDBRANCH  14  15
ENDBRANCH   1  14
TORSDOF 10
