REMARK  Name = ZINC04316464
REMARK                            x       y       z     vdW  Elec       q    Type
REMARK                         _______ _______ _______ _____ _____    ______ ____
ROOT
ATOM      1  C   LIG    1        4.406  -1.094   1.637  0.00  0.00    +0.249 A 
ATOM      2  C   LIG    1        5.167  -0.231   2.409  0.00  0.00    +0.204 A 
ATOM      3  N   LIG    1        5.729   0.961   2.145  0.00  0.00    -0.209 NA
ATOM      4  C   LIG    1        6.422   1.595   3.076  0.00  0.00    +0.137 A 
ATOM      5  C   LIG    1        6.572   1.022   4.343  0.00  0.00    +0.077 A 
ATOM      6  C   LIG    1        6.005  -0.216   4.662  0.00  0.00    +0.087 A 
ATOM      7  C   LIG    1        6.231  -0.671   5.962  0.00  0.00    +0.036 A 
ATOM      8  C   LIG    1        6.959   0.071   6.826  0.00  0.00    +0.048 A 
ATOM      9  S   LIG    1        7.388   1.499   5.844  0.00  0.00    -0.092 S 
ATOM     10  N   LIG    1        5.287  -0.829   3.631  0.00  0.00    -0.192 N 
ATOM     11  N   LIG    1        4.590  -2.040   3.557  0.00  0.00    -0.057 NA
ATOM     12  N   LIG    1        4.088  -2.150   2.376  0.00  0.00    -0.108 NA
ENDROOT
BRANCH   1  13
ATOM     13  S   LIG    1        3.934  -0.832  -0.041  0.00  0.00    +0.047 S 
ATOM     14  O   LIG    1        4.890   0.060  -0.597  0.00  0.00    -0.163 OA
ATOM     15  O   LIG    1        3.674  -2.114  -0.595  0.00  0.00    -0.163 OA
BRANCH  13  19
ATOM     16  C   LIG    1       -0.017   1.378   0.010  0.00  0.00    +0.000 A 
ATOM     17  C   LIG    1        1.171   2.086   0.002  0.00  0.00    +0.002 A 
ATOM     18  C   LIG    1        2.377   1.411  -0.013  0.00  0.00    +0.027 A 
ATOM     19  C   LIG    1        2.396   0.029  -0.020  0.00  0.00    +0.095 A 
ATOM     20  C   LIG    1        1.208  -0.679  -0.012  0.00  0.00    +0.027 A 
ATOM     21  C   LIG    1        0.002  -0.004   0.002  0.00  0.00    +0.002 A 
ENDBRANCH  13  19
ENDBRANCH   1  13
BRANCH   4  22
ATOM     22  N   LIG    1        6.997   2.822   2.797  0.00  0.00    -0.325 N 
ATOM     23  H   LIG    1        7.505   3.286   3.481  0.00  0.00    +0.148 HD
BRANCH  22  24
ATOM     24  C   LIG    1        6.840   3.420   1.469  0.00  0.00    +0.072 C 
ATOM     25  C   LIG    1        7.914   2.867   0.530  0.00  0.00    +0.022 C 
ATOM     26  C   LIG    1        7.749   3.492  -0.857  0.00  0.00    +0.002 C 
ATOM     27  C   LIG    1        7.896   5.011  -0.753  0.00  0.00    +0.000 C 
ATOM     28  C   LIG    1        6.822   5.564   0.186  0.00  0.00    +0.002 C 
ATOM     29  C   LIG    1        6.986   4.939   1.573  0.00  0.00    +0.022 C 
ENDBRANCH  22  24
ENDBRANCH   4  22
TORSDOF 4
