REMARK  Name = ZINC04352741
REMARK                            x       y       z     vdW  Elec       q    Type
REMARK                         _______ _______ _______ _____ _____    ______ ____
ROOT
ATOM      1  C   LIG    1        2.482   1.497  -0.013  0.00  0.00    +0.122 C 
ENDROOT
BRANCH   1   5
ATOM      2  C   LIG    1        3.894   5.508   0.387  0.00  0.00    +0.000 A 
ATOM      3  C   LIG    1        3.264   5.111  -0.777  0.00  0.00    +0.000 A 
ATOM      4  C   LIG    1        2.807   3.812  -0.907  0.00  0.00    +0.006 A 
ATOM      5  C   LIG    1        2.980   2.912   0.128  0.00  0.00    -0.013 A 
ATOM      6  C   LIG    1        3.606   3.312   1.294  0.00  0.00    +0.006 A 
ATOM      7  C   LIG    1        4.067   4.608   1.422  0.00  0.00    +0.000 A 
ENDBRANCH   1   5
BRANCH   1   8
ATOM      8  C   LIG    1        3.146   0.847  -1.199  0.00  0.00    -0.013 A 
ATOM      9  C   LIG    1        4.134   1.519  -1.893  0.00  0.00    +0.006 A 
ATOM     10  C   LIG    1        4.747   0.920  -2.978  0.00  0.00    +0.000 A 
ATOM     11  C   LIG    1        4.364  -0.347  -3.375  0.00  0.00    +0.000 A 
ATOM     12  C   LIG    1        3.372  -1.018  -2.684  0.00  0.00    +0.000 A 
ATOM     13  C   LIG    1        2.763  -0.421  -1.596  0.00  0.00    +0.006 A 
ENDBRANCH   1   8
BRANCH   1  14
ATOM     14  C   LIG    1        2.812   0.721   1.236  0.00  0.00    -0.013 A 
ATOM     15  C   LIG    1        4.126   0.407   1.527  0.00  0.00    +0.006 A 
ATOM     16  C   LIG    1        4.429  -0.300   2.675  0.00  0.00    +0.000 A 
ATOM     17  C   LIG    1        3.418  -0.703   3.527  0.00  0.00    +0.000 A 
ATOM     18  C   LIG    1        2.103  -0.394   3.233  0.00  0.00    +0.000 A 
ATOM     19  C   LIG    1        1.800   0.319   2.087  0.00  0.00    +0.006 A 
ENDBRANCH   1  14
BRANCH   1  20
ATOM     20  N   LIG    1        1.030   1.508  -0.212  0.00  0.00    -0.319 N 
ATOM     21  C   LIG    1        0.225   0.414  -0.379  0.00  0.00    +0.108 A 
ATOM     22  C   LIG    1       -1.031   0.875  -0.533  0.00  0.00    +0.130 A 
ATOM     23  N   LIG    1       -0.995   2.213  -0.453  0.00  0.00    -0.244 NA
ATOM     24  C   LIG    1        0.237   2.600  -0.264  0.00  0.00    +0.200 A 
ENDBRANCH   1  20
TORSDOF 4
