REMARK  Name = ZINC04175443
REMARK                            x       y       z     vdW  Elec       q    Type
REMARK                         _______ _______ _______ _____ _____    ______ ____
ROOT
ATOM      1  C   LIG    1        5.022  -4.207   0.040  0.00  0.00    +0.104 A 
ATOM      2  C   LIG    1        4.987  -4.827   1.300  0.00  0.00    +0.135 A 
ATOM      3  C   LIG    1        5.014  -6.207   1.387  0.00  0.00    +0.091 A 
ATOM      4  C   LIG    1        5.075  -6.979   0.234  0.00  0.00    +0.124 A 
ATOM      5  C   LIG    1        5.109  -6.373  -1.015  0.00  0.00    +0.091 A 
ATOM      6  C   LIG    1        5.077  -4.995  -1.121  0.00  0.00    +0.135 A 
ENDROOT
BRANCH   1   7
ATOM      7  C   LIG    1        4.994  -2.739  -0.063  0.00  0.00    +0.193 C 
ATOM      8  O   LIG    1        6.036  -2.115  -0.156  0.00  0.00    -0.287 OA
BRANCH   7  10
ATOM      9  C   LIG    1        3.690  -0.680  -0.041  0.00  0.00    +0.012 C 
ATOM     10  C   LIG    1        3.713  -2.029  -0.053  0.00  0.00    +0.052 C 
BRANCH   9  14
ATOM     11  C   LIG    1       -0.019   1.378  -0.014  0.00  0.00    +0.000 A 
ATOM     12  C   LIG    1        1.166   2.094  -0.010  0.00  0.00    +0.001 A 
ATOM     13  C   LIG    1        2.376   1.432  -0.019  0.00  0.00    +0.008 A 
ATOM     14  C   LIG    1        2.404   0.034  -0.031  0.00  0.00    -0.025 A 
ATOM     15  C   LIG    1        1.202  -0.682  -0.034  0.00  0.00    +0.008 A 
ATOM     16  C   LIG    1        0.001  -0.006  -0.026  0.00  0.00    +0.001 A 
ENDBRANCH   9  14
ENDBRANCH   7  10
ENDBRANCH   1   7
BRANCH   2  17
ATOM     17  O   LIG    1        4.929  -4.074   2.427  0.00  0.00    -0.506 OA
ATOM     18  H   LIG    1        4.029  -3.875   2.720  0.00  0.00    +0.292 HD
ENDBRANCH   2  17
BRANCH   4  19
ATOM     19  O   LIG    1        5.101  -8.332   0.329  0.00  0.00    -0.507 OA
ATOM     20  H   LIG    1        4.226  -8.744   0.324  0.00  0.00    +0.292 HD
ENDBRANCH   4  19
BRANCH   6  21
ATOM     21  O   LIG    1        5.105  -4.406  -2.343  0.00  0.00    -0.506 OA
ATOM     22  H   LIG    1        5.996  -4.216  -2.668  0.00  0.00    +0.292 HD
ENDBRANCH   6  21
TORSDOF 6
