REMARK  Name = ZINC04703888
REMARK                            x       y       z     vdW  Elec       q    Type
REMARK                         _______ _______ _______ _____ _____    ______ ____
ROOT
ATOM      1  C   LIG    1        2.577  -4.453  -0.050  0.00  0.00    +0.034 A 
ATOM      2  C   LIG    1        3.502  -3.432  -0.238  0.00  0.00    +0.024 A 
ATOM      3  C   LIG    1        3.091  -2.118  -0.233  0.00  0.00    +0.015 A 
ATOM      4  C   LIG    1        1.742  -1.810  -0.040  0.00  0.00    +0.037 A 
ATOM      5  C   LIG    1        0.816  -2.838   0.153  0.00  0.00    +0.015 A 
ATOM      6  C   LIG    1        1.233  -4.151   0.142  0.00  0.00    +0.024 A 
ENDROOT
BRANCH   4   7
ATOM      7  C   LIG    1        1.297  -0.402  -0.034  0.00  0.00    +0.228 A 
ATOM      8  N   LIG    1        2.081   0.633  -0.200  0.00  0.00    -0.209 NA
ATOM      9  C   LIG    1        1.330   1.763  -0.135  0.00  0.00    +0.110 A 
ATOM     10  C   LIG    1        1.626   3.125  -0.240  0.00  0.00    +0.035 A 
ATOM     11  C   LIG    1        0.616   4.053  -0.126  0.00  0.00    -0.048 A 
ATOM     12  C   LIG    1        0.933   5.522  -0.239  0.00  0.00    +0.044 C 
ATOM     13  C   LIG    1       -0.692   3.646   0.093  0.00  0.00    +0.010 A 
ATOM     14  C   LIG    1       -0.998   2.305   0.204  0.00  0.00    -0.006 A 
ATOM     15  C   LIG    1       -2.421   1.874   0.448  0.00  0.00    +0.047 C 
ATOM     16  C   LIG    1        0.005   1.355   0.087  0.00  0.00    +0.159 A 
ATOM     17  O   LIG    1        0.026   0.005   0.143  0.00  0.00    -0.435 OA
ENDBRANCH   4   7
BRANCH   1  19
ATOM     18  C   LIG    1        4.215  -6.108   0.425  0.00  0.00    +0.255 C 
ATOM     19  N   LIG    1        2.998  -5.784  -0.055  0.00  0.00    -0.283 N 
ATOM     20  H   LIG    1        2.414  -6.476  -0.404  0.00  0.00    +0.155 HD
ATOM     21  O   LIG    1        4.906  -5.260   0.948  0.00  0.00    -0.272 OA
BRANCH  18  22
ATOM     22  C   LIG    1        4.717  -7.524   0.311  0.00  0.00    +0.324 C 
BRANCH  22  23
ATOM     23  O   LIG    1        6.021  -7.615   0.888  0.00  0.00    -0.483 OA
BRANCH  23  28
ATOM     24  C   LIG    1        8.511 -12.667   0.803  0.00  0.00    +0.044 C 
ATOM     25  C   LIG    1        7.845 -11.315   0.826  0.00  0.00    -0.050 A 
ATOM     26  C   LIG    1        6.582 -11.159   0.284  0.00  0.00    +0.007 A 
ATOM     27  C   LIG    1        5.969  -9.921   0.304  0.00  0.00    +0.046 A 
ATOM     28  C   LIG    1        6.622  -8.834   0.868  0.00  0.00    +0.124 A 
ATOM     29  C   LIG    1        7.891  -8.992   1.405  0.00  0.00    -0.009 A 
ATOM     30  C   LIG    1        8.605  -7.813   2.013  0.00  0.00    +0.047 C 
ATOM     31  C   LIG    1        8.497 -10.234   1.387  0.00  0.00    +0.010 A 
ENDBRANCH  23  28
ENDBRANCH  22  23
ENDBRANCH  18  22
ENDBRANCH   1  19
TORSDOF 5
