REMARK  Name = ZINC04682967
REMARK                            x       y       z     vdW  Elec       q    Type
REMARK                         _______ _______ _______ _____ _____    ______ ____
ROOT
ATOM      1  C   LIG    1       -0.823  -1.153  -0.729  0.00  0.00    -0.066 C 
ATOM      2  C   LIG    1       -1.392  -2.136  -1.430  0.00  0.00    -0.019 C 
ATOM      3  C   LIG    1       -2.722  -2.606  -0.793  0.00  0.00    +0.006 C 
ATOM      4  C   LIG    1       -3.237  -3.771  -1.612  0.00  0.00    +0.012 C 
ATOM      5  C   LIG    1       -4.303  -4.564  -0.867  0.00  0.00    +0.006 C 
ATOM      6  C   LIG    1       -3.793  -5.096   0.468  0.00  0.00    +0.012 C 
ATOM      7  C   LIG    1       -3.163  -4.035   1.347  0.00  0.00    -0.025 C 
ATOM      8  C   LIG    1       -2.146  -4.759   2.286  0.00  0.00    +0.012 C 
ATOM      9  C   LIG    1       -4.130  -3.308   2.271  0.00  0.00    +0.007 C 
ATOM     10  C   LIG    1       -5.062  -4.276   2.999  0.00  0.00    +0.002 C 
ATOM     11  C   LIG    1       -5.837  -5.087   1.964  0.00  0.00    +0.018 C 
ATOM     12  C   LIG    1       -4.870  -5.937   1.143  0.00  0.00    +0.068 C 
ATOM     13  C   LIG    1       -4.251  -7.023   2.035  0.00  0.00    +0.023 C 
ATOM     14  C   LIG    1       -3.612  -1.379  -0.878  0.00  0.00    +0.122 C 
ATOM     15  C   LIG    1       -2.991  -0.202  -0.117  0.00  0.00    +0.119 C 
ATOM     16  C   LIG    1       -2.300  -3.046   0.587  0.00  0.00    +0.007 C 
ATOM     17  C   LIG    1       -1.885  -1.829   1.417  0.00  0.00    +0.013 C 
ATOM     18  C   LIG    1       -1.643  -0.656   0.458  0.00  0.00    +0.030 C 
ENDROOT
BRANCH   1  20
ATOM     19  C   LIG    1        0.317   0.936  -1.435  0.00  0.00    +0.012 C 
ATOM     20  C   LIG    1        0.506  -0.547  -1.110  0.00  0.00    +0.009 C 
ATOM     21  C   LIG    1        1.487  -0.693   0.056  0.00  0.00    +0.012 C 
ENDBRANCH   1  20
BRANCH  12  22
ATOM     22  C   LIG    1       -5.697  -6.677   0.107  0.00  0.00    +0.311 C 
ATOM     23  O   LIG    1       -5.183  -7.546  -0.576  0.00  0.00    -0.250 OA
BRANCH  22  24
ATOM     24  O   LIG    1       -6.876  -6.402  -0.043  0.00  0.00    -0.480 OA
ATOM     25  H   LIG    1       -7.271  -5.734   0.482  0.00  0.00    +0.295 HD
ENDBRANCH  22  24
ENDBRANCH  12  22
BRANCH  14  26
ATOM     26  C   LIG    1       -5.034  -1.574  -0.473  0.00  0.00    +0.309 C 
ATOM     27  O   LIG    1       -5.374  -1.364   0.679  0.00  0.00    -0.251 OA
BRANCH  26  28
ATOM     28  O   LIG    1       -5.856  -1.943  -1.294  0.00  0.00    -0.480 OA
ATOM     29  H   LIG    1       -5.595  -2.104  -2.179  0.00  0.00    +0.295 HD
ENDBRANCH  26  28
ENDBRANCH  14  26
BRANCH  15  30
ATOM     30  C   LIG    1       -3.910   0.281   0.966  0.00  0.00    +0.309 C 
ATOM     31  O   LIG    1       -3.707  -0.033   2.115  0.00  0.00    -0.251 OA
BRANCH  30  32
ATOM     32  O   LIG    1       -4.958   1.061   0.658  0.00  0.00    -0.480 OA
ATOM     33  H   LIG    1       -5.492   1.321   1.421  0.00  0.00    +0.295 HD
ENDBRANCH  30  32
ENDBRANCH  15  30
TORSDOF 7
