REMARK  Name = ZINC04785178
REMARK                            x       y       z     vdW  Elec       q    Type
REMARK                         _______ _______ _______ _____ _____    ______ ____
ROOT
ATOM      1  C   LIG    1       -0.094  -5.487  -1.627  0.00  0.00    +0.109 C 
ENDROOT
BRANCH   1   2
ATOM      2  N   LIG    1       -1.534  -5.700  -1.464  0.00  0.00    -0.291 N 
ATOM      3  C   LIG    1       -2.124  -5.438  -0.281  0.00  0.00    +0.282 C 
ATOM      4  O   LIG    1       -1.476  -4.954   0.628  0.00  0.00    -0.267 OA
BRANCH   3   5
ATOM      5  C   LIG    1       -3.547  -5.737  -0.090  0.00  0.00    +0.189 A 
ATOM      6  C   LIG    1       -4.233  -5.653   1.088  0.00  0.00    +0.054 A 
ATOM      7  C   LIG    1       -5.558  -6.026   0.811  0.00  0.00    +0.042 A 
ATOM      8  C   LIG    1       -5.622  -6.316  -0.507  0.00  0.00    +0.196 A 
ATOM      9  O   LIG    1       -4.410  -6.136  -1.047  0.00  0.00    -0.458 OA
ENDBRANCH   3   5
BRANCH   2  10
ATOM     10  C   LIG    1       -2.333  -6.198  -2.587  0.00  0.00    +0.143 C 
BRANCH  10  11
ATOM     11  C   LIG    1       -2.174  -7.693  -2.693  0.00  0.00    -0.030 A 
ATOM     12  C   LIG    1       -1.071  -8.227  -3.330  0.00  0.00    +0.005 A 
ATOM     13  C   LIG    1       -0.925  -9.599  -3.427  0.00  0.00    +0.000 A 
ATOM     14  C   LIG    1       -1.883 -10.435  -2.886  0.00  0.00    +0.000 A 
ATOM     15  C   LIG    1       -2.987  -9.900  -2.247  0.00  0.00    +0.000 A 
ATOM     16  C   LIG    1       -3.130  -8.529  -2.147  0.00  0.00    +0.005 A 
ENDBRANCH  10  11
ENDBRANCH   2  10
ENDBRANCH   1   2
BRANCH   1  17
ATOM     17  C   LIG    1        0.169  -4.021  -1.978  0.00  0.00    +0.030 C 
BRANCH  17  22
ATOM     18  C   LIG    1        2.126  -5.171  -5.706  0.00  0.00    +0.041 C 
ATOM     19  C   LIG    1        1.550  -4.312  -4.578  0.00  0.00    +0.065 C 
ATOM     20  C   LIG    1        0.040  -4.540  -4.483  0.00  0.00    +0.041 C 
ATOM     21  C   LIG    1        2.210  -4.701  -3.253  0.00  0.00    +0.046 C 
ATOM     22  C   LIG    1        1.673  -3.797  -2.139  0.00  0.00    +0.002 C 
ATOM     23  C   LIG    1        1.936  -2.335  -2.513  0.00  0.00    +0.040 C 
ATOM     24  C   LIG    1        1.287  -2.037  -3.866  0.00  0.00    +0.161 C 
ATOM     25  O   LIG    1        1.808  -2.933  -4.850  0.00  0.00    -0.374 OA
BRANCH  22  26
ATOM     26  C   LIG    1        2.374  -4.121  -0.845  0.00  0.00    -0.041 A 
ATOM     27  C   LIG    1        3.406  -5.041  -0.829  0.00  0.00    +0.004 A 
ATOM     28  C   LIG    1        4.049  -5.338   0.358  0.00  0.00    +0.000 A 
ATOM     29  C   LIG    1        3.660  -4.715   1.529  0.00  0.00    +0.000 A 
ATOM     30  C   LIG    1        2.630  -3.794   1.513  0.00  0.00    +0.000 A 
ATOM     31  C   LIG    1        1.990  -3.494   0.325  0.00  0.00    +0.004 A 
ENDBRANCH  22  26
ENDBRANCH  17  22
ENDBRANCH   1  17
TORSDOF 7
