REMARK  Name = ZINC04696510
REMARK                            x       y       z     vdW  Elec       q    Type
REMARK                         _______ _______ _______ _____ _____    ______ ____
ROOT
ATOM      1  C   LIG    1        6.088   4.219   0.228  0.00  0.00    +0.139 C 
ATOM      2  N   LIG    1        4.689   4.651   0.216  0.00  0.00    -0.258 N 
ATOM      3  C   LIG    1        3.733   3.742   0.111  0.00  0.00    +0.258 C 
ATOM      4  C   LIG    1        2.342   4.243   0.104  0.00  0.00    +0.077 C 
ATOM      5  S   LIG    1        2.620   6.003   0.249  0.00  0.00    -0.061 S 
ATOM      6  C   LIG    1        1.177   3.556   0.009  0.00  0.00    +0.028 C 
ATOM      7  O   LIG    1        3.986   2.555   0.023  0.00  0.00    -0.269 OA
ATOM      8  C   LIG    1        4.404   5.965   0.313  0.00  0.00    +0.120 C 
ATOM      9  S   LIG    1        5.490   7.280   0.454  0.00  0.00    -0.027 S 
ENDROOT
BRANCH   6  10
ATOM     10  C   LIG    1        1.194   2.115  -0.279  0.00  0.00    -0.024 A 
ATOM     11  C   LIG    1        0.298   1.258   0.369  0.00  0.00    +0.009 A 
ATOM     12  C   LIG    1        0.320  -0.093   0.093  0.00  0.00    +0.020 A 
ATOM     13  C   LIG    1        1.226  -0.601  -0.824  0.00  0.00    +0.041 A 
ATOM     14 CL   LIG    1        1.246  -2.303  -1.165  0.00  0.00    -0.084 Cl
ATOM     15  C   LIG    1        2.116   0.242  -1.469  0.00  0.00    +0.020 A 
ATOM     16  C   LIG    1        2.107   1.594  -1.203  0.00  0.00    +0.009 A 
ENDBRANCH   6  10
TORSDOF 1
