REMARK  Name = ZINC04727177
REMARK                            x       y       z     vdW  Elec       q    Type
REMARK                         _______ _______ _______ _____ _____    ______ ____
ROOT
ATOM      1  C   LIG    1       -0.830   1.488  -1.161  0.00  0.00    +0.176 C 
ATOM      2  C   LIG    1        0.094   0.976  -0.028  0.00  0.00    +0.057 C 
ATOM      3  C   LIG    1       -0.420   1.628   1.286  0.00  0.00    +0.009 C 
ATOM      4  C   LIG    1       -1.798   2.170   0.885  0.00  0.00    +0.003 C 
ATOM      5  C   LIG    1       -2.442   3.169   1.809  0.00  0.00    +0.001 C 
ATOM      6  C   LIG    1       -1.489   3.750   2.842  0.00  0.00    +0.039 C 
ATOM      7  C   LIG    1       -2.172   4.841   3.641  0.00  0.00    -0.050 C 
ATOM      8  C   LIG    1       -3.144   5.711   2.968  0.00  0.00    -0.035 C 
ATOM      9  C   LIG    1       -3.243   7.003   3.341  0.00  0.00    +0.050 C 
ATOM     10  C   LIG    1       -3.997   7.918   2.587  0.00  0.00    +0.156 C 
ATOM     11  C   LIG    1       -4.348   7.532   1.170  0.00  0.00    +0.080 C 
ATOM     12  C   LIG    1       -4.886   6.106   1.165  0.00  0.00    +0.019 C 
ATOM     13  O   LIG    1       -4.354   8.979   3.053  0.00  0.00    -0.293 OA
ATOM     14  C   LIG    1       -4.002   5.117   1.884  0.00  0.00    -0.003 C 
ATOM     15  C   LIG    1       -4.992   4.181   2.592  0.00  0.00    +0.016 C 
ATOM     16  C   LIG    1       -1.889   4.997   4.951  0.00  0.00    +0.012 C 
ATOM     17  C   LIG    1       -3.108   4.281   0.987  0.00  0.00    +0.003 C 
ATOM     18  C   LIG    1       -3.840   3.640  -0.187  0.00  0.00    +0.005 C 
ATOM     19  C   LIG    1       -2.819   3.116  -1.215  0.00  0.00    +0.011 C 
ATOM     20  C   LIG    1       -1.539   2.709  -0.532  0.00  0.00    +0.018 C 
ATOM     21  C   LIG    1       -0.518   3.851  -0.552  0.00  0.00    +0.016 C 
ENDROOT
BRANCH   1  23
ATOM     22  C   LIG    1       -0.644   1.932  -3.723  0.00  0.00    +0.090 C 
ATOM     23  C   LIG    1       -0.021   1.922  -2.351  0.00  0.00    +0.174 C 
ATOM     24  O   LIG    1        1.129   2.264  -2.207  0.00  0.00    -0.293 OA
ENDBRANCH   1  23
BRANCH   1  25
ATOM     25  O   LIG    1       -1.799   0.478  -1.527  0.00  0.00    -0.450 OA
BRANCH  25  26
ATOM     26  C   LIG    1       -1.322  -0.665  -2.045  0.00  0.00    +0.305 C 
ATOM     27  C   LIG    1       -2.273  -1.720  -2.547  0.00  0.00    +0.136 C 
ATOM     28  O   LIG    1       -0.129  -0.848  -2.108  0.00  0.00    -0.251 OA
ENDBRANCH  25  26
ENDBRANCH   1  25
TORSDOF 3
