REMARK  Name = ZINC04342758
REMARK                            x       y       z     vdW  Elec       q    Type
REMARK                         _______ _______ _______ _____ _____    ______ ____
ROOT
ATOM      1  C   LIG    1        1.016   1.886   1.194  0.00  0.00    -0.096 C 
ATOM      2  N   LIG    1        0.586   0.508   0.921  0.00  0.00    +0.378 N 
ATOM      3  H   LIG    1       -0.394   0.412   1.142  0.00  0.00    -0.082 HD
ATOM      4  C   LIG    1        0.795   0.205  -0.500  0.00  0.00    -0.076 C 
ATOM      5  C   LIG    1        0.275  -1.201  -0.807  0.00  0.00    +0.022 C 
ATOM      6  C   LIG    1        1.032  -2.219   0.051  0.00  0.00    +0.097 C 
ATOM      7  C   LIG    1        0.868  -1.849   1.528  0.00  0.00    +0.080 C 
ATOM      8  C   LIG    1        1.367  -0.420   1.748  0.00  0.00    -0.065 C 
ENDROOT
BRANCH   6   9
ATOM      9  C   LIG    1        0.471  -3.597  -0.190  0.00  0.00    -0.016 A 
ATOM     10  C   LIG    1        1.271  -4.710  -0.012  0.00  0.00    +0.006 A 
ATOM     11  C   LIG    1        0.757  -5.973  -0.233  0.00  0.00    +0.000 A 
ATOM     12  C   LIG    1       -0.559  -6.125  -0.629  0.00  0.00    +0.000 A 
ATOM     13  C   LIG    1       -1.360  -5.012  -0.805  0.00  0.00    +0.000 A 
ATOM     14  C   LIG    1       -0.846  -3.748  -0.581  0.00  0.00    +0.006 A 
ENDBRANCH   6   9
BRANCH   6  15
ATOM     15  O   LIG    1        2.418  -2.199  -0.296  0.00  0.00    -0.383 OA
ATOM     16  H   LIG    1        2.595  -2.418  -1.221  0.00  0.00    +0.211 HD
ENDBRANCH   6  15
BRANCH   7  17
ATOM     17  C   LIG    1       -0.587  -1.940   1.911  0.00  0.00    +0.167 C 
ATOM     18  O   LIG    1       -1.443  -1.581   1.131  0.00  0.00    -0.292 OA
BRANCH  17  19
ATOM     19  C   LIG    1       -0.969  -2.466   3.231  0.00  0.00    +0.018 A 
ATOM     20  C   LIG    1        0.016  -2.877   4.136  0.00  0.00    +0.011 A 
ATOM     21  C   LIG    1       -0.349  -3.367   5.371  0.00  0.00    +0.001 A 
ATOM     22  C   LIG    1       -1.687  -3.455   5.717  0.00  0.00    +0.000 A 
ATOM     23  C   LIG    1       -2.667  -3.051   4.828  0.00  0.00    +0.001 A 
ATOM     24  C   LIG    1       -2.317  -2.552   3.591  0.00  0.00    +0.011 A 
ENDBRANCH  17  19
ENDBRANCH   7  17
TORSDOF 4
