REMARK  Name = ZINC04475083
REMARK                            x       y       z     vdW  Elec       q    Type
REMARK                         _______ _______ _______ _____ _____    ______ ____
ROOT
ATOM      1  C   LIG    1        0.008   1.308  -0.643  0.00  0.00    +0.001 A 
ATOM      2  C   LIG    1        1.193   2.042  -0.654  0.00  0.00    +0.001 A 
ATOM      3  C   LIG    1        2.395   1.435  -0.459  0.00  0.00    +0.009 A 
ATOM      4  C   LIG    1        2.446   0.047  -0.242  0.00  0.00    -0.014 A 
ATOM      5  C   LIG    1        1.241  -0.699  -0.231  0.00  0.00    -0.018 A 
ATOM      6  C   LIG    1        1.292  -2.086  -0.014  0.00  0.00    +0.008 A 
ATOM      7  C   LIG    1        2.494  -2.693   0.182  0.00  0.00    +0.001 A 
ATOM      8  C   LIG    1        3.679  -1.960   0.171  0.00  0.00    +0.005 A 
ATOM      9  C   LIG    1        3.668  -0.615  -0.037  0.00  0.00    -0.026 A 
ATOM     10  C   LIG    1        0.018  -0.037  -0.437  0.00  0.00    +0.008 A 
ENDROOT
BRANCH   9  11
ATOM     11  C   LIG    1        4.960   0.161  -0.046  0.00  0.00    +0.129 C 
ATOM     12  C   LIG    1        5.737  -0.118   1.247  0.00  0.00    +0.027 C 
ATOM     13  C   LIG    1        7.113   0.554   1.152  0.00  0.00    +0.076 C 
ATOM     14  C   LIG    1        7.789   0.089  -0.119  0.00  0.00    +0.116 C 
ATOM     15  O   LIG    1        7.081   0.169  -1.286  0.00  0.00    -0.429 OA
ATOM     16  C   LIG    1        9.020  -0.379  -0.102  0.00  0.00    +0.092 C 
ATOM     17 BR   LIG    1        9.971  -0.478   1.530  0.00  0.00    -0.055 Br
ATOM     18  C   LIG    1        5.805  -0.274  -1.224  0.00  0.00    +0.320 C 
ATOM     19  O   LIG    1        5.354  -0.997  -2.080  0.00  0.00    -0.250 OA
ENDBRANCH   9  11
TORSDOF 1
