REMARK  Name = ZINC04620459
REMARK                            x       y       z     vdW  Elec       q    Type
REMARK                         _______ _______ _______ _____ _____    ______ ____
ROOT
ATOM      1  N   LIG    1        2.402   1.898  -1.775  0.00  0.00    -0.271 NA
ATOM      2  C   LIG    1        2.635   2.542  -2.869  0.00  0.00    +0.115 C 
ATOM      3  C   LIG    1        1.887   2.818  -4.155  0.00  0.00    +0.198 C 
ATOM      4  C   LIG    1        2.743   4.062  -4.257  0.00  0.00    +0.230 C 
ATOM      5  O   LIG    1        2.649   5.149  -4.775  0.00  0.00    -0.286 OA
ATOM      6  C   LIG    1        3.754   3.347  -3.424  0.00  0.00    +0.246 C 
ATOM      7  O   LIG    1        4.956   3.402  -3.269  0.00  0.00    -0.282 OA
ENDROOT
BRANCH   3   8
ATOM      8  N   LIG    1        2.143   1.836  -5.212  0.00  0.00    -0.326 N 
ATOM      9  H   LIG    1        2.970   1.330  -5.213  0.00  0.00    +0.147 HD
BRANCH   8  10
ATOM     10  C   LIG    1        1.194   1.629  -6.220  0.00  0.00    +0.071 A 
ATOM     11  C   LIG    1        0.014   2.356  -6.222  0.00  0.00    +0.026 A 
ATOM     12  C   LIG    1       -0.929   2.156  -7.216  0.00  0.00    +0.003 A 
ATOM     13  C   LIG    1       -0.704   1.232  -8.213  0.00  0.00    +0.017 A 
ATOM     14  C   LIG    1        0.480   0.490  -8.225  0.00  0.00    +0.080 A 
ATOM     15  C   LIG    1        1.437   0.695  -7.224  0.00  0.00    +0.150 A 
BRANCH  14  16
ATOM     16  C   LIG    1        0.724  -0.501  -9.291  0.00  0.00    +0.250 C 
ATOM     17  N   LIG    1       -0.174  -1.480  -9.519  0.00  0.00    -0.304 N 
ATOM     18  C   LIG    1       -1.431  -1.511  -8.767  0.00  0.00    +0.132 C 
ATOM     19  C   LIG    1        0.108  -2.514 -10.517  0.00  0.00    +0.132 C 
ATOM     20  O   LIG    1        1.734  -0.433  -9.965  0.00  0.00    -0.270 OA
ENDBRANCH  14  16
BRANCH  15  21
ATOM     21  O   LIG    1        2.593  -0.017  -7.229  0.00  0.00    -0.504 OA
ATOM     22  H   LIG    1        2.545  -0.850  -6.741  0.00  0.00    +0.292 HD
ENDBRANCH  15  21
ENDBRANCH   8  10
ENDBRANCH   3   8
BRANCH   1  23
ATOM     23  C   LIG    1        1.128   1.200  -1.593  0.00  0.00    +0.171 C 
BRANCH  23  24
ATOM     24  C   LIG    1        1.386  -0.270  -1.381  0.00  0.00    +0.129 A 
ATOM     25  C   LIG    1        0.661  -1.278  -1.898  0.00  0.00    +0.047 A 
ATOM     26  C   LIG    1        1.251  -2.481  -1.446  0.00  0.00    +0.045 A 
ATOM     27  C   LIG    1        2.301  -2.135  -0.679  0.00  0.00    +0.102 A 
ATOM     28  C   LIG    1        3.234  -3.090   0.021  0.00  0.00    +0.086 C 
ATOM     29  O   LIG    1        2.381  -0.795  -0.648  0.00  0.00    -0.463 OA
ENDBRANCH  23  24
BRANCH  23  31
ATOM     30  C   LIG    1        0.030   3.231  -0.639  0.00  0.00    +0.006 C 
ATOM     31  C   LIG    1        0.403   1.771  -0.373  0.00  0.00    +0.031 C 
ENDBRANCH  23  31
ENDBRANCH   1  23
TORSDOF 7
