REMARK  Name = ZINC04097714
REMARK                            x       y       z     vdW  Elec       q    Type
REMARK                         _______ _______ _______ _____ _____    ______ ____
ROOT
ATOM      1  C   LIG    1       -0.548  -0.343  -4.363  0.00  0.00    +0.019 C 
ATOM      2  C   LIG    1        0.142   0.132  -5.670  0.00  0.00    +0.009 C 
ATOM      3  C   LIG    1       -0.999   0.635  -6.596  0.00  0.00    +0.019 C 
ATOM      4  C   LIG    1       -2.195  -0.207  -6.111  0.00  0.00    +0.071 C 
ATOM      5  C   LIG    1       -3.560   0.320  -6.491  0.00  0.00    +0.019 C 
ATOM      6  C   LIG    1       -4.633  -0.533  -5.799  0.00  0.00    +0.008 C 
ATOM      7  C   LIG    1       -4.445  -0.577  -4.287  0.00  0.00    -0.023 C 
ATOM      8  C   LIG    1       -4.716   0.838  -3.760  0.00  0.00    +0.012 C 
ATOM      9  C   LIG    1       -5.447  -1.554  -3.648  0.00  0.00    -0.023 C 
ATOM     10  C   LIG    1       -5.144  -2.953  -4.211  0.00  0.00    +0.012 C 
ATOM     11  C   LIG    1       -6.871  -1.185  -4.068  0.00  0.00    +0.008 C 
ATOM     12  C   LIG    1       -7.879  -2.085  -3.336  0.00  0.00    +0.005 C 
ATOM     13  C   LIG    1       -7.728  -1.827  -1.838  0.00  0.00    +0.003 C 
ATOM     14  C   LIG    1       -8.909  -2.307  -1.026  0.00  0.00    -0.006 C 
ATOM     15  C   LIG    1       -9.272  -3.765  -1.306  0.00  0.00    +0.014 C 
ATOM     16  C   LIG    1      -10.140  -1.449  -1.409  0.00  0.00    +0.014 C 
ATOM     17  C   LIG    1       -8.692  -2.104   0.475  0.00  0.00    +0.120 C 
ATOM     18  C   LIG    1       -7.325  -2.598   0.926  0.00  0.00    +0.032 C 
ATOM     19  C   LIG    1       -6.220  -1.914   0.128  0.00  0.00    +0.010 C 
ATOM     20  C   LIG    1       -6.358  -2.290  -1.361  0.00  0.00    -0.025 C 
ATOM     21  C   LIG    1       -6.147  -3.793  -1.481  0.00  0.00    +0.012 C 
ATOM     22  C   LIG    1       -5.291  -1.511  -2.137  0.00  0.00    +0.002 C 
ATOM     23  C   LIG    1       -3.881  -1.914  -1.722  0.00  0.00    +0.005 C 
ATOM     24  C   LIG    1       -2.857  -0.983  -2.382  0.00  0.00    +0.005 C 
ATOM     25  C   LIG    1       -3.021  -0.999  -3.899  0.00  0.00    +0.000 C 
ATOM     26  C   LIG    1       -2.037  -0.073  -4.575  0.00  0.00    +0.017 C 
ENDROOT
BRANCH   1  28
ATOM     27  C   LIG    1       -0.152   1.968  -3.212  0.00  0.00    +0.039 C 
ATOM     28  C   LIG    1       -0.030   0.466  -3.199  0.00  0.00    -0.076 C 
ATOM     29  C   LIG    1        0.526  -0.137  -2.178  0.00  0.00    +0.007 C 
ENDBRANCH   1  28
BRANCH   4  30
ATOM     30  C   LIG    1       -2.010  -1.623  -6.588  0.00  0.00    +0.311 C 
ATOM     31  O   LIG    1       -1.041  -1.917  -7.266  0.00  0.00    -0.250 OA
BRANCH  30  32
ATOM     32  O   LIG    1       -2.830  -2.477  -6.295  0.00  0.00    -0.480 OA
ATOM     33  H   LIG    1       -3.575  -2.251  -5.773  0.00  0.00    +0.295 HD
ENDBRANCH  30  32
ENDBRANCH   4  30
BRANCH  17  34
ATOM     34  O   LIG    1       -9.716  -2.802   1.194  0.00  0.00    -0.391 OA
ATOM     35  H   LIG    1       -9.673  -2.684   2.152  0.00  0.00    +0.210 HD
ENDBRANCH  17  34
TORSDOF 4
