REMARK  Name = ZINC04131974
REMARK                            x       y       z     vdW  Elec       q    Type
REMARK                         _______ _______ _______ _____ _____    ______ ____
ROOT
ATOM      1  C   LIG    1       -1.422   3.427  -2.419  0.00  0.00    +0.031 A 
ATOM      2  C   LIG    1       -1.907   2.682  -3.487  0.00  0.00    +0.025 A 
ATOM      3  C   LIG    1       -2.502   3.316  -4.560  0.00  0.00    +0.036 A 
ATOM      4  C   LIG    1       -2.610   4.694  -4.579  0.00  0.00    +0.142 A 
ATOM      5  C   LIG    1       -2.122   5.445  -3.517  0.00  0.00    +0.059 A 
ATOM      6  C   LIG    1       -1.527   4.811  -2.435  0.00  0.00    +0.048 A 
ENDROOT
BRANCH   1  12
ATOM      7  C   LIG    1       -0.120   0.354   2.051  0.00  0.00    -0.096 C 
ATOM      8  N   LIG    1       -0.777   1.022   0.906  0.00  0.00    +0.380 N 
ATOM      9  H   LIG    1       -1.752   0.705   0.850  0.00  0.00    -0.082 HD
ATOM     10  C   LIG    1       -0.757   2.487   1.097  0.00  0.00    -0.060 C 
ATOM     11  C   LIG    1       -1.490   3.147  -0.074  0.00  0.00    +0.086 C 
ATOM     12  N   LIG    1       -0.823   2.785  -1.332  0.00  0.00    -0.333 N 
ATOM     13  C   LIG    1       -0.817   1.327  -1.521  0.00  0.00    +0.086 C 
ATOM     14  C   LIG    1       -0.084   0.667  -0.350  0.00  0.00    -0.060 C 
ENDBRANCH   1  12
BRANCH   4  15
ATOM     15  N   LIG    1       -3.244   5.369  -5.733  0.00  0.00    +0.008 N 
ATOM     16  O   LIG    1       -3.771   4.710  -6.611  0.00  0.00    -0.130 OA
BRANCH  15  17
ATOM     17  O   LIG    1       -3.240   6.585  -5.804  0.00  0.00    -0.396 OA
ATOM     18  H   LIG    1       -2.835   7.093  -5.129  0.00  0.00    +0.329 HD
ENDBRANCH  15  17
ENDBRANCH   4  15
BRANCH   5  19
ATOM     19  N   LIG    1       -2.230   6.837  -3.538  0.00  0.00    -0.339 N 
ATOM     20  H   LIG    1       -2.569   7.286  -4.328  0.00  0.00    +0.146 HD
BRANCH  19  21
ATOM     21  C   LIG    1       -1.832   7.621  -2.366  0.00  0.00    +0.142 C 
BRANCH  21  22
ATOM     22  C   LIG    1       -2.048   9.109  -2.649  0.00  0.00    +0.247 C 
BRANCH  22  23
ATOM     23  O   LIG    1       -3.445   9.363  -2.816  0.00  0.00    -0.490 OA
BRANCH  23  24
ATOM     24  C   LIG    1       -3.811  10.646  -3.076  0.00  0.00    +0.121 A 
ATOM     25  C   LIG    1       -2.847  11.639  -3.162  0.00  0.00    +0.049 A 
ATOM     26  C   LIG    1       -3.219  12.942  -3.431  0.00  0.00    +0.049 A 
ATOM     27  C   LIG    1       -4.558  13.259  -3.605  0.00  0.00    +0.120 A 
ATOM     28  C   LIG    1       -5.523  12.267  -3.514  0.00  0.00    +0.049 A 
ATOM     29  C   LIG    1       -5.150  10.963  -3.250  0.00  0.00    +0.049 A 
BRANCH  27  30
ATOM     30  O   LIG    1       -4.924  14.543  -3.865  0.00  0.00    -0.495 OA
ATOM     31  C   LIG    1       -3.878  15.513  -3.944  0.00  0.00    +0.277 C 
ENDBRANCH  27  30
ENDBRANCH  23  24
ENDBRANCH  22  23
ENDBRANCH  21  22
ENDBRANCH  19  21
ENDBRANCH   5  19
TORSDOF 9
