REMARK  Name = ZINC04654875
REMARK                            x       y       z     vdW  Elec       q    Type
REMARK                         _______ _______ _______ _____ _____    ______ ____
ROOT
ATOM      1  C   LIG    1        4.907   1.446  -0.037  0.00  0.00    -0.081 C 
ENDROOT
BRANCH   1   2
ATOM      2  N   LIG    1        6.009   2.427  -0.042  0.00  0.00    +0.379 N 
ATOM      3  H   LIG    1        5.931   3.020  -0.877  0.00  0.00    -0.086 HD
ATOM      4  H   LIG    1        5.947   3.011   0.800  0.00  0.00    -0.086 HD
BRANCH   2   5
ATOM      5  C   LIG    1        7.311   1.733  -0.058  0.00  0.00    -0.083 C 
BRANCH   5   6
ATOM      6  C   LIG    1        8.432   2.774  -0.064  0.00  0.00    -0.021 C 
BRANCH   6   7
ATOM      7  C   LIG    1        9.787   2.063  -0.080  0.00  0.00    -0.021 C 
BRANCH   7   8
ATOM      8  C   LIG    1       10.909   3.103  -0.085  0.00  0.00    -0.083 C 
BRANCH   8   9
ATOM      9  N   LIG    1       12.211   2.410  -0.102  0.00  0.00    +0.379 N 
ATOM     10  H   LIG    1       12.289   1.817   0.733  0.00  0.00    -0.086 HD
ATOM     11  H   LIG    1       12.273   1.825  -0.944  0.00  0.00    -0.086 HD
BRANCH   9  12
ATOM     12  C   LIG    1       13.313   3.390  -0.107  0.00  0.00    -0.084 C 
BRANCH  12  13
ATOM     13  C   LIG    1       14.649   2.643  -0.124  0.00  0.00    -0.039 C 
BRANCH  13  14
ATOM     14  C   LIG    1       15.798   3.653  -0.129  0.00  0.00    -0.088 C 
BRANCH  14  15
ATOM     15  N   LIG    1       17.078   2.924  -0.167  0.00  0.00    +0.378 N 
ATOM     16  H   LIG    1       17.126   2.372  -1.032  0.00  0.00    -0.090 HD
ATOM     17  H   LIG    1       17.146   2.296   0.632  0.00  0.00    -0.090 HD
ATOM     18  H   LIG    1       17.855   3.582  -0.149  0.00  0.00    -0.090 HD
ENDBRANCH  14  15
ENDBRANCH  13  14
ENDBRANCH  12  13
ENDBRANCH   9  12
ENDBRANCH   8   9
ENDBRANCH   7   8
ENDBRANCH   6   7
ENDBRANCH   5   6
ENDBRANCH   2   5
ENDBRANCH   1   2
BRANCH   1  19
ATOM     19  C   LIG    1        3.571   2.193  -0.020  0.00  0.00    -0.000 C 
BRANCH  19  20
ATOM     20  C   LIG    1        2.422   1.183  -0.015  0.00  0.00    +0.102 C 
BRANCH  20  22
ATOM     21  C   LIG    1       -0.014   1.209   0.009  0.00  0.00    +0.217 C 
ATOM     22  N   LIG    1        1.143   1.898   0.001  0.00  0.00    -0.315 N 
ATOM     23  H   LIG    1        1.130   2.868   0.007  0.00  0.00    +0.149 HD
ATOM     24  O   LIG    1        0.002  -0.004   0.002  0.00  0.00    -0.275 OA
BRANCH  21  25
ATOM     25  C   LIG    1       -1.330   1.944   0.019  0.00  0.00    +0.131 C 
BRANCH  25  34
ATOM     26  C   LIG    1       -3.849  -0.722   3.589  0.00  0.00    +0.001 A 
ATOM     27  C   LIG    1       -2.801   0.196   3.608  0.00  0.00    +0.001 A 
ATOM     28  C   LIG    1       -2.334   0.751   2.457  0.00  0.00    +0.009 A 
ATOM     29  C   LIG    1       -2.913   0.393   1.228  0.00  0.00    -0.014 A 
ATOM     30  C   LIG    1       -3.982  -0.537   1.208  0.00  0.00    -0.018 A 
ATOM     31  C   LIG    1       -4.563  -0.893  -0.021  0.00  0.00    +0.008 A 
ATOM     32  C   LIG    1       -4.097  -0.337  -1.173  0.00  0.00    +0.001 A 
ATOM     33  C   LIG    1       -3.049   0.581  -1.153  0.00  0.00    +0.005 A 
ATOM     34  C   LIG    1       -2.462   0.950   0.019  0.00  0.00    -0.031 A 
ATOM     35  C   LIG    1       -4.437  -1.090   2.418  0.00  0.00    +0.008 A 
ENDBRANCH  25  34
ENDBRANCH  21  25
ENDBRANCH  20  22
ENDBRANCH  19  20
ENDBRANCH   1  19
TORSDOF 15
