REMARK  Name = ZINC04456011
REMARK                            x       y       z     vdW  Elec       q    Type
REMARK                         _______ _______ _______ _____ _____    ______ ____
ROOT
ATOM      1  C   LIG    1        4.960   0.161  -0.046  0.00  0.00    +0.105 C 
ATOM      2  C   LIG    1        5.196   0.674  -1.435  0.00  0.00    +0.029 C 
ATOM      3  C   LIG    1        4.850  -0.373  -2.513  0.00  0.00    +0.033 C 
ATOM      4  C   LIG    1        5.751  -0.009  -3.674  0.00  0.00    -0.030 C 
ATOM      5  C   LIG    1        6.731   0.763  -3.280  0.00  0.00    -0.023 C 
ATOM      6  C   LIG    1        6.644   1.000  -1.792  0.00  0.00    +0.049 C 
ATOM      7  C   LIG    1        7.636   0.095  -1.119  0.00  0.00    -0.018 A 
ATOM      8  C   LIG    1        8.942   0.086  -1.588  0.00  0.00    +0.034 A 
ATOM      9  C   LIG    1        9.888  -0.736  -1.009  0.00  0.00    +0.105 A 
ATOM     10  C   LIG    1        9.540  -1.560   0.046  0.00  0.00    +0.030 A 
ATOM     11  C   LIG    1        8.245  -1.555   0.522  0.00  0.00    +0.025 A 
ATOM     12  C   LIG    1        7.291  -0.722  -0.057  0.00  0.00    +0.031 A 
ATOM     13  N   LIG    1        6.012  -0.695   0.464  0.00  0.00    -0.336 N 
ATOM     14  H   LIG    1        5.805  -1.301   1.192  0.00  0.00    +0.147 HD
ENDROOT
BRANCH   1  23
ATOM     15  C   LIG    1       -0.016   1.357   0.009  0.00  0.00    +0.001 A 
ATOM     16  C   LIG    1        1.169   2.091   0.002  0.00  0.00    +0.001 A 
ATOM     17  C   LIG    1        2.378   1.468  -0.013  0.00  0.00    +0.009 A 
ATOM     18  C   LIG    1        2.438   0.064  -0.021  0.00  0.00    -0.013 A 
ATOM     19  C   LIG    1        1.233  -0.683  -0.013  0.00  0.00    -0.018 A 
ATOM     20  C   LIG    1        1.292  -2.087  -0.021  0.00  0.00    +0.008 A 
ATOM     21  C   LIG    1        2.502  -2.709  -0.036  0.00  0.00    +0.001 A 
ATOM     22  C   LIG    1        3.687  -1.976  -0.043  0.00  0.00    +0.006 A 
ATOM     23  C   LIG    1        3.668  -0.615  -0.037  0.00  0.00    -0.019 A 
ATOM     24  C   LIG    1        0.002  -0.004   0.002  0.00  0.00    +0.008 A 
ENDBRANCH   1  23
BRANCH   9  25
ATOM     25  S   LIG    1       11.543  -0.735  -1.614  0.00  0.00    +0.056 S 
ATOM     26  O   LIG    1       11.483  -0.280  -2.959  0.00  0.00    -0.153 OA
ATOM     27  O   LIG    1       12.105  -1.991  -1.260  0.00  0.00    -0.153 OA
BRANCH  25  28
ATOM     28  N   LIG    1       12.376   0.414  -0.762  0.00  0.00    -0.204 NA
ATOM     29  H   LIG    1       13.315   0.571  -0.949  0.00  0.00    +0.144 HD
ATOM     30  H   LIG    1       11.925   0.931  -0.076  0.00  0.00    +0.144 HD
ENDBRANCH  25  28
ENDBRANCH   9  25
TORSDOF 3
