REMARK  Name = ZINC04423541
REMARK                            x       y       z     vdW  Elec       q    Type
REMARK                         _______ _______ _______ _____ _____    ______ ____
ROOT
ATOM      1  C   LIG    1        0.059   1.209   2.425  0.00  0.00    -0.096 C 
ATOM      2  N   LIG    1       -0.701   1.589   1.216  0.00  0.00    +0.378 N 
ATOM      3  H   LIG    1       -0.756   2.613   1.166  0.00  0.00    -0.082 HD
ATOM      4  C   LIG    1       -2.071   1.038   1.287  0.00  0.00    -0.064 C 
ATOM      5  C   LIG    1       -2.872   1.544   0.085  0.00  0.00    +0.089 C 
ATOM      6  C   LIG    1       -2.194   1.077  -1.207  0.00  0.00    +0.029 C 
ATOM      7  C   LIG    1       -0.752   1.593  -1.232  0.00  0.00    -0.010 C 
ATOM      8  C   LIG    1       -0.013   1.086   0.008  0.00  0.00    -0.079 C 
ENDROOT
BRANCH   6   9
ATOM      9  C   LIG    1       -2.945   1.622  -2.394  0.00  0.00    -0.044 A 
ATOM     10  C   LIG    1       -3.087   2.988  -2.555  0.00  0.00    +0.005 A 
ATOM     11  C   LIG    1       -3.770   3.488  -3.647  0.00  0.00    +0.020 A 
ATOM     12  C   LIG    1       -4.322   2.622  -4.574  0.00  0.00    +0.041 A 
ATOM     13 CL   LIG    1       -5.187   3.249  -5.942  0.00  0.00    -0.084 Cl
ATOM     14  C   LIG    1       -4.184   1.255  -4.410  0.00  0.00    +0.020 A 
ATOM     15  C   LIG    1       -3.496   0.756  -3.320  0.00  0.00    +0.005 A 
ENDBRANCH   6   9
BRANCH   5  16
ATOM     16  C   LIG    1       -4.273   0.991   0.146  0.00  0.00    +0.309 C 
ATOM     17  O   LIG    1       -4.687   0.296  -0.751  0.00  0.00    -0.251 OA
BRANCH  16  18
ATOM     18  O   LIG    1       -5.059   1.272   1.196  0.00  0.00    -0.468 OA
ATOM     19  C   LIG    1       -6.397   0.706   1.188  0.00  0.00    +0.280 C 
ENDBRANCH  16  18
ENDBRANCH   5  16
TORSDOF 3
