REMARK  Name = ZINC04746497
REMARK                            x       y       z     vdW  Elec       q    Type
REMARK                         _______ _______ _______ _____ _____    ______ ____
ROOT
ATOM      1  C   LIG    1        3.711  -0.707  -0.038  0.00  0.00    +0.100 C 
ENDROOT
BRANCH   1   2
ATOM      2  C   LIG    1        4.024  -1.380   1.274  0.00  0.00    +0.091 A 
ATOM      3  C   LIG    1        5.293  -1.818   1.536  0.00  0.00    +0.138 A 
ATOM      4  C   LIG    1        5.545  -2.468   2.831  0.00  0.00    +0.059 A 
ATOM      5  C   LIG    1        6.817  -2.939   3.165  0.00  0.00    +0.015 A 
ATOM      6  C   LIG    1        7.021  -3.543   4.386  0.00  0.00    +0.001 A 
ATOM      7  C   LIG    1        5.970  -3.684   5.281  0.00  0.00    +0.004 A 
ATOM      8  C   LIG    1        4.710  -3.224   4.963  0.00  0.00    +0.047 A 
ATOM      9  C   LIG    1        4.483  -2.612   3.738  0.00  0.00    +0.143 A 
ATOM     10  O   LIG    1        3.255  -2.154   3.412  0.00  0.00    -0.422 OA
ATOM     11  C   LIG    1        3.016  -1.555   2.234  0.00  0.00    +0.345 A 
ATOM     12  O   LIG    1        1.890  -1.156   1.991  0.00  0.00    -0.245 OA
BRANCH   3  13
ATOM     13  O   LIG    1        6.285  -1.658   0.631  0.00  0.00    -0.506 OA
ATOM     14  H   LIG    1        6.109  -1.242  -0.189  0.00  0.00    +0.292 HD
ENDBRANCH   3  13
ENDBRANCH   1   2
BRANCH   1  15
ATOM     15  C   LIG    1        3.936  -1.679  -1.167  0.00  0.00    +0.091 A 
ATOM     16  C   LIG    1        3.815  -3.024  -0.950  0.00  0.00    +0.138 A 
ATOM     17  C   LIG    1        4.045  -3.930  -2.086  0.00  0.00    +0.059 A 
ATOM     18  C   LIG    1        3.938  -5.315  -1.936  0.00  0.00    +0.015 A 
ATOM     19  C   LIG    1        4.159  -6.136  -3.019  0.00  0.00    +0.001 A 
ATOM     20  C   LIG    1        4.486  -5.594  -4.253  0.00  0.00    +0.004 A 
ATOM     21  C   LIG    1        4.596  -4.229  -4.415  0.00  0.00    +0.047 A 
ATOM     22  C   LIG    1        4.376  -3.383  -3.335  0.00  0.00    +0.143 A 
ATOM     23  O   LIG    1        4.478  -2.043  -3.476  0.00  0.00    -0.422 OA
ATOM     24  C   LIG    1        4.265  -1.208  -2.447  0.00  0.00    +0.345 A 
ATOM     25  O   LIG    1        4.365  -0.007  -2.629  0.00  0.00    -0.245 OA
BRANCH  16  26
ATOM     26  O   LIG    1        3.494  -3.506   0.272  0.00  0.00    -0.506 OA
ATOM     27  H   LIG    1        3.435  -4.471   0.312  0.00  0.00    +0.292 HD
ENDBRANCH  16  26
ENDBRANCH   1  15
BRANCH   1  31
ATOM     28  C   LIG    1       -0.365   0.569  -0.050  0.00  0.00    +0.000 A 
ATOM     29  C   LIG    1        0.637   1.462   0.278  0.00  0.00    +0.000 A 
ATOM     30  C   LIG    1        1.957   1.049   0.282  0.00  0.00    +0.004 A 
ATOM     31  C   LIG    1        2.273  -0.257  -0.041  0.00  0.00    -0.035 A 
ATOM     32  C   LIG    1        1.270  -1.151  -0.367  0.00  0.00    +0.004 A 
ATOM     33  C   LIG    1       -0.049  -0.737  -0.373  0.00  0.00    +0.000 A 
ENDBRANCH   1  31
TORSDOF 5
