REMARK  Name = ZINC04521465
REMARK                            x       y       z     vdW  Elec       q    Type
REMARK                         _______ _______ _______ _____ _____    ______ ____
ROOT
ATOM      1  C   LIG    1        1.735   1.924   0.834  0.00  0.00    +0.000 C 
ATOM      2  C   LIG    1        0.711   2.577   1.788  0.00  0.00    -0.073 C 
ATOM      3  N   LIG    1       -0.386   1.610   1.834  0.00  0.00    +0.388 N 
ATOM      4  H1  LIG    1       -0.159   0.846   2.482  0.00  0.00    -0.085 HD
ATOM      5  H2  LIG    1       -1.252   2.071   2.139  0.00  0.00    -0.085 HD
ATOM      6  CA  LIG    1       -0.541   1.092   0.474  0.00  0.00    +0.043 C 
ATOM      7  C   LIG    1        0.911   0.947  -0.030  0.00  0.00    +0.001 C 
ENDROOT
BRANCH   1   9
ATOM      8  C   LIG    1        3.702   2.971  -0.201  0.00  0.00    -0.001 C 
ATOM      9  C   LIG    1        2.384   2.970  -0.034  0.00  0.00    -0.071 C 
ATOM     10  C   LIG    1        1.538   4.017  -0.713  0.00  0.00    +0.039 C 
BRANCH   8  12
ATOM     11  C   LIG    1        5.654   3.994  -1.216  0.00  0.00    -0.013 C 
ATOM     12  C   LIG    1        4.336   3.993  -1.049  0.00  0.00    -0.003 C 
BRANCH  11  14
ATOM     13  C   LIG    1        7.295   5.852  -1.249  0.00  0.00    +0.023 C 
ATOM     14  C   LIG    1        6.303   5.040  -2.084  0.00  0.00    +0.117 C 
BRANCH  14  15
ATOM     15  C   LIG    1        7.032   4.370  -3.219  0.00  0.00    +0.311 C 
ATOM     16  O   LIG    1        7.026   3.165  -3.314  0.00  0.00    -0.250 OA
BRANCH  15  17
ATOM     17  O   LIG    1        7.689   5.110  -4.126  0.00  0.00    -0.480 OA
ATOM     18  H   LIG    1        7.694   6.044  -4.053  0.00  0.00    +0.295 HD
ENDBRANCH  15  17
ENDBRANCH  14  15
ENDBRANCH  11  14
ENDBRANCH   8  12
ENDBRANCH   1   9
BRANCH   6  19
ATOM     19  C   LIG    1       -1.235  -0.246   0.470  0.00  0.00    +0.291 C 
ATOM     20  O   LIG    1       -1.097  -1.001   1.403  0.00  0.00    -0.253 OA
BRANCH  19  21
ATOM     21  OXT LIG    1       -2.007  -0.598  -0.570  0.00  0.00    -0.482 OA
ATOM     22  HXT LIG    1       -2.114  -0.012  -1.294  0.00  0.00    +0.295 HD
ENDBRANCH  19  21
ENDBRANCH   6  19
BRANCH   7  23
ATOM     23  C   LIG    1        1.004   1.335  -1.507  0.00  0.00    +0.123 C 
BRANCH  23  24
ATOM     24  C   LIG    1        0.359   0.265  -2.349  0.00  0.00    +0.305 C 
ATOM     25  O   LIG    1        0.037  -0.786  -1.848  0.00  0.00    -0.251 OA
BRANCH  24  26
ATOM     26  O   LIG    1        0.142   0.479  -3.656  0.00  0.00    -0.481 OA
ATOM     27  H   LIG    1        0.392   1.295  -4.045  0.00  0.00    +0.295 HD
ENDBRANCH  24  26
ENDBRANCH  23  24
ENDBRANCH   7  23
TORSDOF 10
