REMARK  Name = ZINC04662097
REMARK                            x       y       z     vdW  Elec       q    Type
REMARK                         _______ _______ _______ _____ _____    ______ ____
ROOT
ATOM      1  S   LIG    1        1.097   3.914   0.013  0.00  0.00    +0.144 S 
ATOM      2  O   LIG    1       -0.270   4.301   0.055  0.00  0.00    -0.132 OA
ATOM      3  O   LIG    1        1.978   4.338  -1.019  0.00  0.00    -0.132 OA
ENDROOT
BRANCH   1   5
ATOM      4  C   LIG    1       -0.018   1.474   0.010  0.00  0.00    +0.030 C 
ATOM      5  C   LIG    1        1.121   2.152   0.003  0.00  0.00    +0.178 C 
BRANCH   4   9
ATOM      6  C   LIG    1        0.040  -2.773  -0.014  0.00  0.00    +0.000 A 
ATOM      7  C   LIG    1       -1.169  -2.100   0.002  0.00  0.00    +0.001 A 
ATOM      8  C   LIG    1       -1.195  -0.721   0.010  0.00  0.00    +0.008 A 
ATOM      9  C   LIG    1        0.002  -0.004   0.002  0.00  0.00    -0.024 A 
ATOM     10  C   LIG    1        1.218  -0.688  -0.019  0.00  0.00    +0.008 A 
ATOM     11  C   LIG    1        1.230  -2.068  -0.022  0.00  0.00    +0.001 A 
ENDBRANCH   4   9
ENDBRANCH   1   5
BRANCH   1  12
ATOM     12  O   LIG    1        1.718   4.365   1.327  0.00  0.00    -0.343 OA
BRANCH  12  13
ATOM     13  C   LIG    1        3.071   4.240   1.371  0.00  0.00    +0.157 A 
ATOM     14  C   LIG    1        3.644   3.066   1.837  0.00  0.00    +0.050 A 
ATOM     15  C   LIG    1        5.019   2.938   1.876  0.00  0.00    +0.023 A 
ATOM     16  C   LIG    1        5.824   3.985   1.462  0.00  0.00    +0.041 A 
ATOM     17 CL   LIG    1        7.552   3.825   1.519  0.00  0.00    -0.084 Cl
ATOM     18  C   LIG    1        5.254   5.159   1.003  0.00  0.00    +0.023 A 
ATOM     19  C   LIG    1        3.879   5.288   0.957  0.00  0.00    +0.050 A 
ENDBRANCH  12  13
ENDBRANCH   1  12
TORSDOF 4
