REMARK  Name = ZINC04744962
REMARK                            x       y       z     vdW  Elec       q    Type
REMARK                         _______ _______ _______ _____ _____    ______ ____
ROOT
ATOM      1  S   LIG    1       -1.113  -2.444  -0.000  0.00  0.00    +0.144 S 
ATOM      2  O   LIG    1        0.254  -2.832   0.011  0.00  0.00    -0.132 OA
ATOM      3  O   LIG    1       -2.013  -2.857  -1.020  0.00  0.00    -0.132 OA
ENDROOT
BRANCH   1   4
ATOM      4  C   LIG    1       -1.137  -0.682   0.009  0.00  0.00    +0.178 C 
ATOM      5  C   LIG    1        0.002  -0.004   0.002  0.00  0.00    +0.030 C 
BRANCH   5   6
ATOM      6  C   LIG    1       -0.018   1.474   0.010  0.00  0.00    -0.024 A 
ATOM      7  C   LIG    1       -1.234   2.158   0.020  0.00  0.00    +0.008 A 
ATOM      8  C   LIG    1       -1.246   3.538   0.032  0.00  0.00    +0.001 A 
ATOM      9  C   LIG    1       -0.056   4.243   0.024  0.00  0.00    +0.000 A 
ATOM     10  C   LIG    1        1.153   3.570   0.010  0.00  0.00    +0.001 A 
ATOM     11  C   LIG    1        1.179   2.191   0.003  0.00  0.00    +0.008 A 
ENDBRANCH   5   6
ENDBRANCH   1   4
BRANCH   1  12
ATOM     12  O   LIG    1       -1.709  -2.910   1.321  0.00  0.00    -0.343 OA
BRANCH  12  18
ATOM     13  C   LIG    1       -5.613  -0.217   2.473  0.00  0.00    +0.044 C 
ATOM     14  C   LIG    1       -4.999  -1.489   1.948  0.00  0.00    -0.047 A 
ATOM     15  C   LIG    1       -5.811  -2.531   1.537  0.00  0.00    +0.003 A 
ATOM     16  C   LIG    1       -5.250  -3.699   1.055  0.00  0.00    +0.004 A 
ATOM     17  C   LIG    1       -3.877  -3.828   0.982  0.00  0.00    +0.048 A 
ATOM     18  C   LIG    1       -3.060  -2.785   1.392  0.00  0.00    +0.157 A 
ATOM     19  C   LIG    1       -3.625  -1.616   1.881  0.00  0.00    +0.052 A 
ENDBRANCH  12  18
ENDBRANCH   1  12
TORSDOF 4
