REMARK  Name = ZINC04474604
REMARK                            x       y       z     vdW  Elec       q    Type
REMARK                         _______ _______ _______ _____ _____    ______ ____
ROOT
ATOM      1  N   LIG    1       -1.718  -1.030  -1.368  0.00  0.00    -0.216 N 
ATOM      2  C   LIG    1       -2.585  -0.150  -2.170  0.00  0.00    +0.228 C 
ATOM      3  C   LIG    1       -2.700  -0.895  -3.514  0.00  0.00    +0.278 C 
ATOM      4  N   LIG    1       -1.889  -2.105  -3.321  0.00  0.00    -0.112 NA
ATOM      5  C   LIG    1       -1.379  -2.113  -2.132  0.00  0.00    +0.394 C 
ENDROOT
BRANCH   5   6
ATOM      6  N   LIG    1       -0.568  -3.124  -1.675  0.00  0.00    -0.072 N 
ATOM      7  H   LIG    1       -0.205  -3.088  -0.760  0.00  0.00    +0.282 HD
BRANCH   6   8
ATOM      8  N   LIG    1       -0.259  -4.206  -2.509  0.00  0.00    +0.129 N 
ATOM      9  O   LIG    1       -0.706  -4.250  -3.632  0.00  0.00    -0.100 OA
BRANCH   8  10
ATOM     10  O   LIG    1        0.454  -5.096  -2.106  0.00  0.00    -0.374 OA
ATOM     11  H   LIG    1        0.800  -5.062  -1.236  0.00  0.00    +0.332 HD
ENDBRANCH   8  10
ENDBRANCH   6   8
ENDBRANCH   5   6
BRANCH   1  12
ATOM     12  C   LIG    1       -1.287  -0.784   0.010  0.00  0.00    +0.225 C 
BRANCH  12  19
ATOM     13  C   LIG    1       -0.017   1.383   0.010  0.00  0.00    +0.011 A 
ATOM     14  C   LIG    1        1.193   2.059   0.002  0.00  0.00    +0.040 A 
ATOM     15  C   LIG    1        2.371   1.333  -0.013  0.00  0.00    +0.129 A 
ATOM     16 CL   LIG    1        3.893   2.168  -0.024  0.00  0.00    -0.062 Cl
ATOM     17  N   LIG    1        2.350   0.014  -0.021  0.00  0.00    -0.243 NA
ATOM     18  C   LIG    1        1.217  -0.662  -0.014  0.00  0.00    +0.119 A 
ATOM     19  C   LIG    1        0.002  -0.004   0.002  0.00  0.00    +0.002 A 
ENDBRANCH  12  19
ENDBRANCH   1  12
TORSDOF 5
