REMARK  Name = ZINC04245665
REMARK                            x       y       z     vdW  Elec       q    Type
REMARK                         _______ _______ _______ _____ _____    ______ ____
ROOT
ATOM      1  C   LIG    1        5.542   4.274   0.263  0.00  0.00    +0.104 C 
ATOM      2  C   LIG    1        6.236   4.357   1.607  0.00  0.00    +0.032 C 
ATOM      3  C   LIG    1        6.510   2.965   2.170  0.00  0.00    +0.038 C 
ATOM      4  C   LIG    1        7.054   2.076   1.081  0.00  0.00    -0.032 A 
ATOM      5  C   LIG    1        8.400   1.774   1.041  0.00  0.00    +0.054 A 
ATOM      6  C   LIG    1        8.897   0.947   0.042  0.00  0.00    +0.169 A 
ATOM      7  C   LIG    1        8.045   0.418  -0.921  0.00  0.00    +0.204 A 
ATOM      8  C   LIG    1        6.690   0.721  -0.889  0.00  0.00    +0.173 A 
ATOM      9  C   LIG    1        6.197   1.558   0.116  0.00  0.00    +0.031 A 
ATOM     10  C   LIG    1        4.745   1.907   0.140  0.00  0.00    -0.009 A 
ATOM     11  C   LIG    1        3.857   0.866   0.035  0.00  0.00    +0.010 A 
ATOM     12  C   LIG    1        2.515   0.802   0.072  0.00  0.00    +0.019 A 
ATOM     13  C   LIG    1        1.618   1.815   0.247  0.00  0.00    +0.054 A 
ATOM     14  C   LIG    1        1.942   3.158   0.430  0.00  0.00    +0.193 A 
ATOM     15  O   LIG    1        0.999   3.908   0.641  0.00  0.00    -0.287 OA
ATOM     16  C   LIG    1        3.172   3.746   0.403  0.00  0.00    +0.058 A 
ATOM     17  C   LIG    1        4.419   3.256   0.273  0.00  0.00    -0.016 A 
ENDROOT
BRANCH   1  20
ATOM     18  C   LIG    1        4.260   7.295  -1.708  0.00  0.00    +0.109 C 
ATOM     19  C   LIG    1        4.827   5.942  -1.363  0.00  0.00    +0.210 C 
ATOM     20  N   LIG    1        4.991   5.589  -0.073  0.00  0.00    -0.309 N 
ATOM     21  H   LIG    1        4.712   6.289   0.729  0.00  0.00    +0.149 HD
ATOM     22  O   LIG    1        5.135   5.171  -2.247  0.00  0.00    -0.276 OA
ENDBRANCH   1  20
BRANCH   7  23
ATOM     23  O   LIG    1        8.539  -0.396  -1.894  0.00  0.00    -0.488 OA
ATOM     24  C   LIG    1        8.559  -1.798  -1.618  0.00  0.00    +0.277 C 
ENDBRANCH   7  23
BRANCH   8  25
ATOM     25  O   LIG    1        5.851   0.208  -1.827  0.00  0.00    -0.491 OA
ATOM     26  C   LIG    1        5.740   0.922  -3.059  0.00  0.00    +0.277 C 
ENDBRANCH   8  25
BRANCH  13  27
ATOM     27  S   LIG    1       -0.092   1.388   0.250  0.00  0.00    -0.125 S 
ATOM     28  C   LIG    1        0.030  -0.399  -0.014  0.00  0.00    +0.090 C 
ENDBRANCH  13  27
BRANCH   6  29
ATOM     29  O   LIG    1       10.224   0.652   0.007  0.00  0.00    -0.457 OA
BRANCH  29  30
ATOM     30  C   LIG    1       11.043   1.228   1.026  0.00  0.00    +0.339 C 
ATOM     31  C   LIG    1       12.471   0.689   0.898  0.00  0.00    +0.214 C 
ATOM     32  C   LIG    1       13.357   1.356   1.955  0.00  0.00    +0.180 C 
ATOM     33  C   LIG    1       13.290   2.876   1.776  0.00  0.00    +0.177 C 
ATOM     34  C   LIG    1       11.832   3.330   1.870  0.00  0.00    +0.179 C 
ATOM     35  O   LIG    1       11.057   2.649   0.880  0.00  0.00    -0.331 OA
BRANCH  31  36
ATOM     36  O   LIG    1       12.467  -0.725   1.101  0.00  0.00    -0.383 OA
ATOM     37  H   LIG    1       13.409  -1.291   1.046  0.00  0.00    +0.210 HD
ENDBRANCH  31  36
BRANCH  32  38
ATOM     38  O   LIG    1       14.706   0.914   1.795  0.00  0.00    -0.386 OA
ATOM     39  H   LIG    1       15.491   1.289   2.469  0.00  0.00    +0.210 HD
ENDBRANCH  32  38
BRANCH  33  40
ATOM     40  O   LIG    1       14.056   3.511   2.802  0.00  0.00    -0.386 OA
ATOM     41  H   LIG    1       14.126   4.609   2.836  0.00  0.00    +0.210 HD
ENDBRANCH  33  40
BRANCH  34  42
ATOM     42  C   LIG    1       11.751   4.839   1.633  0.00  0.00    +0.190 C 
BRANCH  42  43
ATOM     43  O   LIG    1       10.407   5.282   1.834  0.00  0.00    -0.392 OA
ATOM     44  H   LIG    1       10.153   6.344   1.707  0.00  0.00    +0.210 HD
ENDBRANCH  42  43
ENDBRANCH  34  42
ENDBRANCH  29  30
ENDBRANCH   6  29
TORSDOF 11
