REMARK  Name = ZINC04258297
REMARK                            x       y       z     vdW  Elec       q    Type
REMARK                         _______ _______ _______ _____ _____    ______ ____
ROOT
ATOM      1  O   LIG    1       -3.605   1.639   0.122  0.00  0.00    -0.483 OA
ENDROOT
BRANCH   1   2
ATOM      2  C   LIG    1       -4.831   1.061   0.219  0.00  0.00    +0.121 A 
ATOM      3  C   LIG    1       -4.943  -0.318   0.318  0.00  0.00    +0.046 A 
ATOM      4  C   LIG    1       -6.190  -0.903   0.422  0.00  0.00    +0.008 A 
ATOM      5  C   LIG    1       -7.327  -0.116   0.417  0.00  0.00    -0.041 A 
ATOM      6  C   LIG    1       -7.218   1.258   0.313  0.00  0.00    +0.008 A 
ATOM      7  C   LIG    1       -5.973   1.849   0.214  0.00  0.00    +0.046 A 
BRANCH   5   8
ATOM      8  C   LIG    1       -8.686  -0.757   0.525  0.00  0.00    -0.003 C 
ATOM      9  C   LIG    1       -9.512  -0.413  -0.716  0.00  0.00    +0.015 C 
ATOM     10  C   LIG    1      -10.892  -1.064  -0.607  0.00  0.00    -0.010 C 
ATOM     11  C   LIG    1      -10.733  -2.583  -0.505  0.00  0.00    +0.007 C 
ATOM     12  C   LIG    1       -9.908  -2.927   0.736  0.00  0.00    -0.010 C 
ATOM     13  C   LIG    1      -10.621  -2.404   1.984  0.00  0.00    +0.007 C 
ATOM     14  C   LIG    1      -10.780  -0.885   1.883  0.00  0.00    -0.010 C 
ATOM     15  C   LIG    1      -11.606  -0.541   0.641  0.00  0.00    +0.007 C 
ATOM     16  C   LIG    1       -9.399  -0.234   1.773  0.00  0.00    +0.015 C 
ATOM     17  C   LIG    1       -8.527  -2.276   0.627  0.00  0.00    +0.015 C 
ENDBRANCH   5   8
ENDBRANCH   1   2
BRANCH   1  18
ATOM     18  C   LIG    1       -2.473   0.767   0.133  0.00  0.00    +0.324 C 
BRANCH  18  21
ATOM     19  N   LIG    1       -0.011   0.966   0.007  0.00  0.00    -0.283 N 
ATOM     20  H   LIG    1        0.037  -0.003   0.007  0.00  0.00    +0.155 HD
ATOM     21  C   LIG    1       -1.210   1.581   0.018  0.00  0.00    +0.255 C 
ATOM     22  O   LIG    1       -1.273   2.789  -0.067  0.00  0.00    -0.272 OA
BRANCH  19  27
ATOM     23  C   LIG    1        3.453   2.024   0.662  0.00  0.00    +0.003 A 
ATOM     24  C   LIG    1        3.506   3.219  -0.028  0.00  0.00    +0.015 A 
ATOM     25  C   LIG    1        2.381   3.677  -0.716  0.00  0.00    +0.061 A 
ATOM     26  C   LIG    1        1.206   2.923  -0.704  0.00  0.00    +0.038 A 
ATOM     27  C   LIG    1        1.165   1.725  -0.008  0.00  0.00    +0.034 A 
ATOM     28  C   LIG    1        2.288   1.280   0.678  0.00  0.00    +0.023 A 
BRANCH  25  29
ATOM     29  C   LIG    1        2.433   4.955  -1.455  0.00  0.00    +0.337 C 
ATOM     30  O   LIG    1        1.454   5.352  -2.053  0.00  0.00    -0.245 OA
BRANCH  29  31
ATOM     31  O   LIG    1        3.568   5.681  -1.465  0.00  0.00    -0.477 OA
ATOM     32  H   LIG    1        4.324   5.375  -1.004  0.00  0.00    +0.295 HD
ENDBRANCH  29  31
ENDBRANCH  25  29
ENDBRANCH  19  27
ENDBRANCH  18  21
ENDBRANCH   1  18
TORSDOF 7
