REMARK  Name = ZINC04178287
REMARK                            x       y       z     vdW  Elec       q    Type
REMARK                         _______ _______ _______ _____ _____    ______ ____
ROOT
ATOM      1  N   LIG    1        4.414 -11.076  -0.096  0.00  0.00    -0.202 N 
ATOM      2  C   LIG    1        3.095 -10.814  -0.081  0.00  0.00    +0.258 C 
ATOM      3  C   LIG    1        2.907  -9.346  -0.072  0.00  0.00    +0.050 A 
ATOM      4  C   LIG    1        1.797  -8.515  -0.057  0.00  0.00    +0.014 A 
ATOM      5  C   LIG    1        1.964  -7.141  -0.047  0.00  0.00    +0.016 A 
ATOM      6  C   LIG    1        3.244  -6.587  -0.063  0.00  0.00    +0.060 A 
ATOM      7  C   LIG    1        4.368  -7.417  -0.078  0.00  0.00    +0.028 A 
ATOM      8  C   LIG    1        4.204  -8.792  -0.083  0.00  0.00    +0.051 A 
ATOM      9  O   LIG    1        2.207 -11.643  -0.076  0.00  0.00    -0.269 OA
ATOM     10  C   LIG    1        5.134  -9.940  -0.097  0.00  0.00    +0.258 C 
ATOM     11  O   LIG    1        6.346  -9.870  -0.109  0.00  0.00    -0.269 OA
ENDROOT
BRANCH   1  15
ATOM     12  C   LIG    1        6.053 -14.903  -0.128  0.00  0.00    +0.017 A 
ATOM     13  C   LIG    1        4.663 -14.734  -0.114  0.00  0.00    +0.013 A 
ATOM     14  C   LIG    1        4.128 -13.472  -0.103  0.00  0.00    +0.024 A 
ATOM     15  C   LIG    1        4.964 -12.359  -0.106  0.00  0.00    +0.045 A 
ATOM     16  C   LIG    1        6.346 -12.522  -0.126  0.00  0.00    +0.024 A 
ATOM     17  C   LIG    1        6.890 -13.780  -0.131  0.00  0.00    +0.013 A 
BRANCH  12  19
ATOM     18  C   LIG    1        8.128 -16.431  -0.155  0.00  0.00    +0.091 C 
ATOM     19  C   LIG    1        6.632 -16.253  -0.141  0.00  0.00    +0.160 C 
ATOM     20  O   LIG    1        5.905 -17.224  -0.139  0.00  0.00    -0.292 OA
ENDBRANCH  12  19
ENDBRANCH   1  15
BRANCH   6  21
ATOM     21  C   LIG    1        3.412  -5.117  -0.057  0.00  0.00    +0.340 C 
ATOM     22  O   LIG    1        4.526  -4.633  -0.065  0.00  0.00    -0.245 OA
BRANCH  21  23
ATOM     23  O   LIG    1        2.329  -4.316  -0.042  0.00  0.00    -0.453 OA
BRANCH  23  24
ATOM     24  C   LIG    1        2.570  -2.884  -0.037  0.00  0.00    +0.311 C 
BRANCH  24  25
ATOM     25  C   LIG    1        1.251  -2.154  -0.021  0.00  0.00    +0.200 C 
ATOM     26  O   LIG    1        0.212  -2.778  -0.014  0.00  0.00    -0.288 OA
BRANCH  25  27
ATOM     27  C   LIG    1        1.226  -0.685  -0.013  0.00  0.00    +0.021 A 
ATOM     28  C   LIG    1        0.002  -0.004   0.002  0.00  0.00    +0.015 A 
ATOM     29  C   LIG    1       -0.017   1.367   0.010  0.00  0.00    +0.046 A 
ATOM     30  C   LIG    1        1.177   2.081   0.002  0.00  0.00    +0.120 A 
ATOM     31  C   LIG    1        2.395   1.409  -0.013  0.00  0.00    +0.046 A 
ATOM     32  C   LIG    1        2.424   0.039  -0.021  0.00  0.00    +0.015 A 
BRANCH  30  33
ATOM     33  O   LIG    1        1.153   3.438   0.009  0.00  0.00    -0.495 OA
ATOM     34  C   LIG    1        2.415   4.109   0.001  0.00  0.00    +0.277 C 
ENDBRANCH  30  33
ENDBRANCH  25  27
ENDBRANCH  24  25
ENDBRANCH  23  24
ENDBRANCH  21  23
ENDBRANCH   6  21
TORSDOF 8
