REMARK  Name = ZINC04118119
REMARK                            x       y       z     vdW  Elec       q    Type
REMARK                         _______ _______ _______ _____ _____    ______ ____
ROOT
ATOM      1  C   LIG    1       -1.187  -2.092   0.095  0.00  0.00    +0.034 A 
ATOM      2  C   LIG    1        0.003  -2.810   0.185  0.00  0.00    +0.025 A 
ATOM      3  C   LIG    1       -0.015  -4.184   0.271  0.00  0.00    +0.028 A 
ATOM      4  C   LIG    1       -1.226  -4.869   0.267  0.00  0.00    +0.048 A 
ATOM      5  C   LIG    1       -2.426  -4.148   0.175  0.00  0.00    +0.009 A 
ATOM      6  C   LIG    1       -3.515  -5.142   0.196  0.00  0.00    +0.007 A 
ATOM      7  C   LIG    1       -4.903  -5.044   0.136  0.00  0.00    +0.010 A 
ATOM      8  C   LIG    1       -5.672  -6.187   0.177  0.00  0.00    +0.001 A 
ATOM      9  C   LIG    1       -5.070  -7.431   0.278  0.00  0.00    +0.002 A 
ATOM     10  C   LIG    1       -3.698  -7.543   0.338  0.00  0.00    +0.026 A 
ATOM     11  C   LIG    1       -2.903  -6.401   0.297  0.00  0.00    +0.047 A 
ATOM     12  N   LIG    1       -1.533  -6.218   0.339  0.00  0.00    -0.354 N 
ATOM     13  H   LIG    1       -0.880  -6.932   0.409  0.00  0.00    +0.166 HD
ATOM     14  C   LIG    1       -2.400  -2.758   0.095  0.00  0.00    +0.034 A 
ENDROOT
BRANCH   1  17
ATOM     15  C   LIG    1       -2.132   1.465  -0.702  0.00  0.00    +0.109 C 
ATOM     16  C   LIG    1       -2.093  -0.041  -0.706  0.00  0.00    +0.214 C 
ATOM     17  N   LIG    1       -1.156  -0.694   0.009  0.00  0.00    -0.286 N 
ATOM     18  H   LIG    1       -0.460  -0.195   0.465  0.00  0.00    +0.155 HD
ATOM     19  O   LIG    1       -2.906  -0.667  -1.354  0.00  0.00    -0.276 OA
ENDBRANCH   1  17
TORSDOF 1
