REMARK  Name = ZINC04748426
REMARK                            x       y       z     vdW  Elec       q    Type
REMARK                         _______ _______ _______ _____ _____    ______ ____
ROOT
ATOM      1  N   LIG    1        5.970   2.117   0.085  0.00  0.00    -0.149 NA
ATOM      2  N   LIG    1        7.086   1.472   0.032  0.00  0.00    -0.149 NA
ENDROOT
BRANCH   1   7
ATOM      3  C   LIG    1       -0.013   1.385   0.220  0.00  0.00    +0.003 A 
ATOM      4  C   LIG    1        1.145   2.100   0.214  0.00  0.00    +0.009 A 
ATOM      5  C   LIG    1        2.379   1.428   0.156  0.00  0.00    -0.014 A 
ATOM      6  C   LIG    1        3.590   2.135   0.149  0.00  0.00    +0.038 A 
ATOM      7  C   LIG    1        4.787   1.436   0.092  0.00  0.00    +0.087 A 
ATOM      8  C   LIG    1        4.790   0.028   0.042  0.00  0.00    +0.030 A 
ATOM      9  C   LIG    1        3.628  -0.670   0.049  0.00  0.00    +0.012 A 
ATOM     10  C   LIG    1        2.397   0.010   0.105  0.00  0.00    +0.009 A 
ATOM     11  C   LIG    1        1.181  -0.693   0.114  0.00  0.00    +0.113 A 
ATOM     12  C   LIG    1        0.005  -0.008   0.171  0.00  0.00    +0.029 A 
BRANCH  11  13
ATOM     13  S   LIG    1        1.177  -2.454   0.051  0.00  0.00    +0.057 S 
ATOM     14  O   LIG    1       -0.185  -2.857   0.048  0.00  0.00    -0.153 OA
ATOM     15  O   LIG    1        2.100  -2.897   1.037  0.00  0.00    -0.153 OA
BRANCH  13  16
ATOM     16  N   LIG    1        1.805  -2.893  -1.417  0.00  0.00    -0.203 NA
ATOM     17  H   LIG    1        1.888  -3.831  -1.648  0.00  0.00    +0.144 HD
ATOM     18  H   LIG    1        2.089  -2.211  -2.046  0.00  0.00    +0.144 HD
ENDBRANCH  13  16
ENDBRANCH  11  13
ENDBRANCH   1   7
BRANCH   2  19
ATOM     19  C   LIG    1        8.266   2.151   0.024  0.00  0.00    +0.094 A 
ATOM     20  C   LIG    1        8.286   3.541   0.079  0.00  0.00    +0.030 A 
ATOM     21  C   LIG    1        9.490   4.230   0.070  0.00  0.00    +0.003 A 
ATOM     22  C   LIG    1       10.687   3.584   0.009  0.00  0.00    +0.010 A 
ATOM     23  C   LIG    1       10.743   2.182  -0.048  0.00  0.00    +0.011 A 
ATOM     24  C   LIG    1       11.972   1.501  -0.112  0.00  0.00    +0.125 A 
ATOM     25  C   LIG    1       11.986   0.140  -0.145  0.00  0.00    +0.030 A 
ATOM     26  C   LIG    1       10.800  -0.590  -0.140  0.00  0.00    +0.003 A 
ATOM     27  C   LIG    1        9.591   0.037  -0.085  0.00  0.00    +0.011 A 
ATOM     28  C   LIG    1        9.539   1.435  -0.035  0.00  0.00    +0.011 A 
BRANCH  24  29
ATOM     29  S   LIG    1       13.485   2.404  -0.122  0.00  0.00    +0.110 S 
ATOM     30  O   LIG    1       14.486   1.543  -0.732  0.00  0.00    -0.142 OA
ATOM     31  O   LIG    1       13.803   2.711   1.264  0.00  0.00    -0.142 OA
BRANCH  29  32
ATOM     32  O   LIG    1       13.253   3.608  -0.905  0.00  0.00    -0.250 OA
ATOM     33  H   LIG    1       12.582   4.154  -0.468  0.00  0.00    +0.245 HD
ENDBRANCH  29  32
ENDBRANCH  24  29
ENDBRANCH   2  19
TORSDOF 6
