REMARK  Name = ZINC04364558
REMARK                            x       y       z     vdW  Elec       q    Type
REMARK                         _______ _______ _______ _____ _____    ______ ____
ROOT
ATOM      1  C   LIG    1        5.960  -6.068   2.140  0.00  0.00    -0.079 C 
ENDROOT
BRANCH   1   2
ATOM      2  N   LIG    1        6.824  -5.767   3.290  0.00  0.00    +0.382 N 
ATOM      3  H   LIG    1        6.306  -5.909   4.144  0.00  0.00    -0.082 HD
ATOM      4  C   LIG    1        7.264  -4.368   3.216  0.00  0.00    -0.060 C 
ATOM      5  C   LIG    1        8.069  -4.020   4.472  0.00  0.00    +0.086 C 
ATOM      6  N   LIG    1        9.163  -4.994   4.610  0.00  0.00    -0.331 N 
ATOM      7  C   LIG    1        8.831  -6.425   4.531  0.00  0.00    +0.086 C 
ATOM      8  C   LIG    1        7.989  -6.660   3.272  0.00  0.00    -0.060 C 
BRANCH   6   9
ATOM      9  C   LIG    1       10.482  -4.572   4.811  0.00  0.00    +0.072 A 
ATOM     10  C   LIG    1       10.967  -4.393   6.098  0.00  0.00    +0.027 A 
ATOM     11  C   LIG    1       12.270  -3.976   6.294  0.00  0.00    +0.002 A 
ATOM     12  C   LIG    1       13.093  -3.736   5.209  0.00  0.00    +0.004 A 
ATOM     13  C   LIG    1       12.616  -3.912   3.923  0.00  0.00    +0.047 A 
ATOM     14  C   LIG    1       11.313  -4.335   3.719  0.00  0.00    +0.141 A 
BRANCH  14  15
ATOM     15  O   LIG    1       10.845  -4.513   2.454  0.00  0.00    -0.493 OA
ATOM     16  C   LIG    1       11.754  -4.251   1.383  0.00  0.00    +0.277 C 
ENDBRANCH  14  15
ENDBRANCH   6   9
ENDBRANCH   1   2
BRANCH   1  17
ATOM     17  C   LIG    1        4.686  -5.227   2.225  0.00  0.00    -0.017 C 
BRANCH  17  18
ATOM     18  C   LIG    1        3.787  -5.540   1.028  0.00  0.00    +0.015 C 
BRANCH  18  19
ATOM     19  C   LIG    1        2.512  -4.699   1.113  0.00  0.00    +0.106 C 
BRANCH  19  20
ATOM     20  N   LIG    1        1.651  -4.999  -0.034  0.00  0.00    -0.190 NA
ATOM     21  H   LIG    1        2.011  -5.473  -0.800  0.00  0.00    +0.148 HD
BRANCH  20  22
ATOM     22  S   LIG    1        0.063  -4.530  -0.023  0.00  0.00    +0.058 S 
ATOM     23  O   LIG    1       -0.490  -4.937  -1.267  0.00  0.00    -0.153 OA
ATOM     24  O   LIG    1       -0.476  -4.950   1.223  0.00  0.00    -0.153 OA
BRANCH  22  29
ATOM     25  C   LIG    1       -0.018   1.503   0.010  0.00  0.00    +0.044 C 
ATOM     26  C   LIG    1        0.002  -0.004   0.002  0.00  0.00    -0.050 A 
ATOM     27  C   LIG    1        0.006  -0.689  -1.199  0.00  0.00    +0.005 A 
ATOM     28  C   LIG    1        0.025  -2.071  -1.206  0.00  0.00    +0.029 A 
ATOM     29  C   LIG    1        0.040  -2.768  -0.013  0.00  0.00    +0.105 A 
ATOM     30  C   LIG    1        0.037  -2.084   1.188  0.00  0.00    +0.029 A 
ATOM     31  C   LIG    1        0.023  -0.702   1.195  0.00  0.00    +0.005 A 
ENDBRANCH  22  29
ENDBRANCH  20  22
ENDBRANCH  19  20
ENDBRANCH  18  19
ENDBRANCH  17  18
ENDBRANCH   1  17
TORSDOF 9
