REMARK  Name = ZINC04100613
REMARK                            x       y       z     vdW  Elec       q    Type
REMARK                         _______ _______ _______ _____ _____    ______ ____
ROOT
ATOM      1  C   LIG    1        1.330  -4.082  -2.296  0.00  0.00    +0.250 A 
ATOM      2  N   LIG    1        0.834  -4.926  -1.425  0.00  0.00    -0.106 NA
ATOM      3  N   LIG    1        1.066  -6.130  -1.817  0.00  0.00    -0.092 NA
ATOM      4  C   LIG    1        1.719  -6.101  -2.954  0.00  0.00    +0.314 A 
ATOM      5  O   LIG    1        1.895  -4.808  -3.285  0.00  0.00    -0.405 OA
ENDROOT
BRANCH   1   8
ATOM      6  C   LIG    1        0.606  -0.607  -1.056  0.00  0.00    +0.124 A 
ATOM      7  C   LIG    1        0.655  -1.989  -1.128  0.00  0.00    +0.059 A 
ATOM      8  C   LIG    1        1.275  -2.607  -2.215  0.00  0.00    +0.045 A 
ATOM      9  C   LIG    1        1.843  -1.829  -3.224  0.00  0.00    +0.059 A 
ATOM     10  C   LIG    1        1.790  -0.448  -3.143  0.00  0.00    +0.124 A 
ATOM     11  C   LIG    1        1.167   0.163  -2.064  0.00  0.00    +0.091 A 
BRANCH   6  13
ATOM     12  C   LIG    1       -0.017   1.425   0.010  0.00  0.00    +0.277 C 
ATOM     13  O   LIG    1        0.002  -0.004   0.002  0.00  0.00    -0.495 OA
ENDBRANCH   6  13
BRANCH  10  14
ATOM     14  O   LIG    1        2.344   0.311  -4.126  0.00  0.00    -0.495 OA
ATOM     15  C   LIG    1        2.252   1.730  -3.979  0.00  0.00    +0.277 C 
ENDBRANCH  10  14
ENDBRANCH   1   8
BRANCH   4  16
ATOM     16  N   LIG    1        2.143  -7.198  -3.682  0.00  0.00    -0.247 N 
ATOM     17  H   LIG    1        2.622  -7.070  -4.516  0.00  0.00    +0.158 HD
BRANCH  16  18
ATOM     18  C   LIG    1        1.885  -8.476  -3.221  0.00  0.00    +0.167 A 
ATOM     19  N   LIG    1        1.254  -8.846  -2.131  0.00  0.00    -0.222 NA
ATOM     20  C   LIG    1        1.073 -10.145  -1.803  0.00  0.00    +0.115 A 
ATOM     21  C   LIG    1        0.416 -10.675  -0.667  0.00  0.00    +0.150 A 
ATOM     22  F   LIG    1       -0.122  -9.838   0.246  0.00  0.00    -0.203 F 
ATOM     23  C   LIG    1        0.321 -12.032  -0.483  0.00  0.00    +0.040 A 
ATOM     24  C   LIG    1        0.860 -12.927  -1.397  0.00  0.00    +0.004 A 
ATOM     25  C   LIG    1        1.507 -12.441  -2.518  0.00  0.00    +0.017 A 
ATOM     26  C   LIG    1        1.608 -11.085  -2.711  0.00  0.00    +0.044 A 
ATOM     27  S   LIG    1        2.319 -10.043  -3.962  0.00  0.00    -0.052 S 
ENDBRANCH  16  18
ENDBRANCH   4  16
TORSDOF 5
