REMARK  Name = ZINC04475069
REMARK                            x       y       z     vdW  Elec       q    Type
REMARK                         _______ _______ _______ _____ _____    ______ ____
ROOT
ATOM      1  N   LIG    1        0.892  -4.348   3.781  0.00  0.00    -0.285 N 
ATOM      2  C   LIG    1        0.800  -3.446   4.800  0.00  0.00    +0.203 A 
ATOM      3  N   LIG    1        0.817  -4.065   5.944  0.00  0.00    -0.231 NA
ATOM      4  C   LIG    1        0.920  -5.399   5.734  0.00  0.00    +0.147 A 
ATOM      5  C   LIG    1        0.983  -6.529   6.568  0.00  0.00    +0.150 A 
ATOM      6  N   LIG    1        1.070  -7.729   6.002  0.00  0.00    -0.219 NA
ATOM      7  C   LIG    1        1.112  -7.865   4.689  0.00  0.00    +0.225 A 
ATOM      8  N   LIG    1        1.060  -6.835   3.870  0.00  0.00    -0.216 NA
ATOM      9  C   LIG    1        0.964  -5.597   4.344  0.00  0.00    +0.167 A 
ENDROOT
BRANCH   1  13
ATOM     10  C   LIG    1        0.625  -2.182   0.995  0.00  0.00    +0.237 C 
ATOM     11  C   LIG    1       -0.805  -2.748   1.187  0.00  0.00    +0.185 C 
ATOM     12  C   LIG    1       -0.522  -4.152   1.776  0.00  0.00    +0.196 C 
ATOM     13  C   LIG    1        0.904  -4.040   2.349  0.00  0.00    +0.254 C 
ATOM     14  O   LIG    1        1.347  -2.687   2.139  0.00  0.00    -0.339 OA
BRANCH  10  18
ATOM     15  C   LIG    1       -0.018   1.461   0.010  0.00  0.00    +0.128 C 
ATOM     16  N   LIG    1        0.002  -0.004   0.002  0.00  0.00    -0.316 N 
ATOM     17  H   LIG    1       -0.418  -0.491  -0.724  0.00  0.00    +0.148 HD
ATOM     18  C   LIG    1        0.604  -0.675   1.004  0.00  0.00    +0.244 C 
ATOM     19  O   LIG    1        1.130  -0.067   1.911  0.00  0.00    -0.273 OA
ENDBRANCH  10  18
BRANCH  11  20
ATOM     20  O   LIG    1       -1.486  -2.849  -0.065  0.00  0.00    -0.386 OA
ATOM     21  H   LIG    1       -1.607  -2.002  -0.516  0.00  0.00    +0.210 HD
ENDBRANCH  11  20
BRANCH  12  22
ATOM     22  O   LIG    1       -0.575  -5.145   0.751  0.00  0.00    -0.385 OA
ATOM     23  H   LIG    1       -1.437  -5.217   0.317  0.00  0.00    +0.210 HD
ENDBRANCH  12  22
ENDBRANCH   1  13
BRANCH   5  24
ATOM     24  N   LIG    1        0.939  -6.396   7.944  0.00  0.00    -0.323 N 
ATOM     25  H   LIG    1        0.864  -5.516   8.345  0.00  0.00    +0.148 HD
BRANCH  24  26
ATOM     26  C   LIG    1        1.006  -7.586   8.797  0.00  0.00    +0.138 C 
BRANCH  26  27
ATOM     27  C   LIG    1        0.940  -7.170  10.244  0.00  0.00    -0.030 A 
ATOM     28  C   LIG    1        2.104  -6.887  10.935  0.00  0.00    +0.007 A 
ATOM     29  C   LIG    1        2.047  -6.506  12.261  0.00  0.00    +0.023 A 
ATOM     30  C   LIG    1        0.818  -6.408  12.902  0.00  0.00    +0.025 A 
ATOM     31  C   LIG    1       -0.349  -6.694  12.205  0.00  0.00    +0.023 A 
ATOM     32  C   LIG    1       -0.285  -7.069  10.877  0.00  0.00    +0.007 A 
BRANCH  30  33
ATOM     33  N   LIG    1        0.756  -6.024  14.243  0.00  0.00    -0.358 N 
ATOM     34  H   LIG    1       -0.102  -5.956  14.689  0.00  0.00    +0.142 HD
ATOM     35  H   LIG    1        1.572  -5.825  14.728  0.00  0.00    +0.142 HD
ENDBRANCH  30  33
ENDBRANCH  26  27
ENDBRANCH  24  26
ENDBRANCH   5  24
TORSDOF 8
