REMARK  Name = ZINC04268552
REMARK                            x       y       z     vdW  Elec       q    Type
REMARK                         _______ _______ _______ _____ _____    ______ ____
ROOT
ATOM      1  C   LIG    1        0.705  -3.254  -0.021  0.00  0.00    +0.249 C 
ATOM      2  O   LIG    1       -0.499  -3.085  -0.008  0.00  0.00    -0.282 OA
ENDROOT
BRANCH   1   8
ATOM      3  C   LIG    1       -0.017   1.374   0.010  0.00  0.00    +0.001 A 
ATOM      4  C   LIG    1        1.172   2.089   0.002  0.00  0.00    +0.002 A 
ATOM      5  C   LIG    1        2.385   1.435  -0.013  0.00  0.00    +0.026 A 
ATOM      6  C   LIG    1        2.424   0.045  -0.021  0.00  0.00    +0.047 A 
ATOM      7  C   LIG    1        1.221  -0.676  -0.013  0.00  0.00    +0.011 A 
ATOM      8  C   LIG    1        1.605  -2.101  -0.025  0.00  0.00    +0.052 A 
ATOM      9  C   LIG    1        2.987  -2.127  -0.038  0.00  0.00    +0.095 A 
ATOM     10  N   LIG    1        3.461  -0.868  -0.036  0.00  0.00    -0.360 N 
ATOM     11  H   LIG    1        4.402  -0.633  -0.045  0.00  0.00    +0.165 HD
ATOM     12  C   LIG    1        0.002  -0.004   0.002  0.00  0.00    +0.011 A 
ENDBRANCH   1   8
BRANCH   1  13
ATOM     13  C   LIG    1        1.264  -4.637  -0.034  0.00  0.00    +0.285 C 
ATOM     14  N   LIG    1        0.435  -5.699  -0.031  0.00  0.00    -0.305 N 
ATOM     15  H   LIG    1       -0.526  -5.564  -0.021  0.00  0.00    +0.149 HD
ATOM     16  O   LIG    1        2.466  -4.805  -0.048  0.00  0.00    -0.267 OA
BRANCH  14  17
ATOM     17  C   LIG    1        0.984  -7.057  -0.044  0.00  0.00    +0.140 C 
BRANCH  17  18
ATOM     18  C   LIG    1       -0.145  -8.056  -0.038  0.00  0.00    -0.030 A 
ATOM     19  C   LIG    1       -0.654  -8.515   1.163  0.00  0.00    +0.006 A 
ATOM     20  C   LIG    1       -1.689  -9.431   1.169  0.00  0.00    +0.020 A 
ATOM     21  C   LIG    1       -2.216  -9.887  -0.026  0.00  0.00    +0.041 A 
ATOM     22 CL   LIG    1       -3.516 -11.038  -0.019  0.00  0.00    -0.084 Cl
ATOM     23  C   LIG    1       -1.706  -9.427  -1.227  0.00  0.00    +0.020 A 
ATOM     24  C   LIG    1       -0.675  -8.507  -1.232  0.00  0.00    +0.006 A 
ENDBRANCH  17  18
ENDBRANCH  14  17
ENDBRANCH   1  13
TORSDOF 4
