REMARK  Name = ZINC04214303
REMARK                            x       y       z     vdW  Elec       q    Type
REMARK                         _______ _______ _______ _____ _____    ______ ____
ROOT
ATOM      1  C   LIG    1        0.229   1.667  -0.527  0.00  0.00    +0.008 C 
ATOM      2  C   LIG    1        0.248   0.142  -0.395  0.00  0.00    -0.007 C 
ATOM      3  C   LIG    1        0.768  -0.469  -1.695  0.00  0.00    +0.039 C 
ATOM      4  C   LIG    1        0.097  -1.807  -1.928  0.00  0.00    -0.032 A 
ATOM      5  C   LIG    1       -1.198  -1.872  -2.390  0.00  0.00    +0.054 A 
ATOM      6  C   LIG    1       -1.788  -3.107  -2.625  0.00  0.00    +0.170 A 
ATOM      7  C   LIG    1       -1.069  -4.276  -2.395  0.00  0.00    +0.208 A 
ATOM      8  O   LIG    1       -1.862  -5.344  -2.709  0.00  0.00    -0.449 OA
ATOM      9  C   LIG    1       -3.206  -4.828  -2.738  0.00  0.00    +0.467 C 
ATOM     10  C   LIG    1        0.233  -4.211  -1.922  0.00  0.00    +0.173 A 
ATOM     11  O   LIG    1       -3.033  -3.440  -3.077  0.00  0.00    -0.452 OA
ATOM     12  C   LIG    1        0.825  -2.967  -1.673  0.00  0.00    +0.035 A 
ATOM     13  C   LIG    1        2.185  -2.895  -1.106  0.00  0.00    +0.035 A 
ATOM     14  C   LIG    1        2.421  -2.273   0.118  0.00  0.00    -0.032 A 
ATOM     15  C   LIG    1        1.232  -1.769   0.909  0.00  0.00    +0.039 C 
ATOM     16  C   LIG    1        3.697  -2.159   0.620  0.00  0.00    +0.054 A 
ATOM     17  C   LIG    1        4.767  -2.699  -0.082  0.00  0.00    +0.165 A 
ATOM     18  C   LIG    1        4.546  -3.353  -1.289  0.00  0.00    +0.204 A 
ATOM     19  C   LIG    1        3.263  -3.452  -1.805  0.00  0.00    +0.173 A 
ATOM     20  C   LIG    1        1.141  -0.249   0.780  0.00  0.00    -0.007 C 
ATOM     21  C   LIG    1        0.560   0.333   2.070  0.00  0.00    +0.008 C 
ENDROOT
BRANCH  10  22
ATOM     22  O   LIG    1        0.935  -5.355  -1.699  0.00  0.00    -0.491 OA
ATOM     23  C   LIG    1        0.746  -5.996  -0.436  0.00  0.00    +0.277 C 
ENDBRANCH  10  22
BRANCH  17  24
ATOM     24  O   LIG    1        6.030  -2.589   0.411  0.00  0.00    -0.491 OA
ATOM     25  C   LIG    1        6.182  -1.905   1.657  0.00  0.00    +0.277 C 
ENDBRANCH  17  24
BRANCH  18  26
ATOM     26  O   LIG    1        5.594  -3.896  -1.967  0.00  0.00    -0.488 OA
ATOM     27  C   LIG    1        5.927  -5.253  -1.666  0.00  0.00    +0.277 C 
ENDBRANCH  18  26
BRANCH  19  28
ATOM     28  O   LIG    1        3.051  -4.090  -2.988  0.00  0.00    -0.491 OA
ATOM     29  C   LIG    1        3.115  -3.296  -4.174  0.00  0.00    +0.277 C 
ENDBRANCH  19  28
TORSDOF 4
