REMARK  Name = ZINC04716433
REMARK                            x       y       z     vdW  Elec       q    Type
REMARK                         _______ _______ _______ _____ _____    ______ ____
ROOT
ATOM      1  C   LIG    1        1.106   3.179   0.008  0.00  0.00    -0.046 A 
ATOM      2  C   LIG    1        1.173   1.794   0.001  0.00  0.00    +0.005 A 
ATOM      3  C   LIG    1       -0.013   1.076   0.008  0.00  0.00    +0.020 A 
ATOM      4  C   LIG    1       -1.214   1.759   0.017  0.00  0.00    +0.111 A 
ATOM      5  N   LIG    1       -1.240   3.078   0.030  0.00  0.00    -0.263 NA
ATOM      6  C   LIG    1       -0.132   3.793   0.023  0.00  0.00    +0.112 A 
ENDROOT
BRANCH   1   7
ATOM      7  C   LIG    1        2.367   4.004   0.001  0.00  0.00    -0.042 C 
BRANCH   7   9
ATOM      8  C   LIG    1        1.780   5.140  -2.055  0.00  0.00    -0.096 C 
ATOM      9  N   LIG    1        2.765   4.254  -1.400  0.00  0.00    +0.379 N 
ATOM     10  H   LIG    1        2.795   3.360  -1.903  0.00  0.00    -0.082 HD
ATOM     11  C   LIG    1        4.107   4.873  -1.442  0.00  0.00    -0.096 C 
ENDBRANCH   7   9
ENDBRANCH   1   7
TORSDOF 2
