REMARK  Name = ZINC04534207
REMARK                            x       y       z     vdW  Elec       q    Type
REMARK                         _______ _______ _______ _____ _____    ______ ____
ROOT
ATOM      1  C   LIG    1        7.050  -1.462  -0.435  0.00  0.00    +0.160 C 
ENDROOT
BRANCH   1   3
ATOM      2  C   LIG    1        4.850  -0.997  -1.374  0.00  0.00    +0.234 C 
ATOM      3  N   LIG    1        6.190  -0.973  -1.516  0.00  0.00    -0.302 N 
ATOM      4  H   LIG    1        6.585  -0.633  -2.334  0.00  0.00    +0.150 HD
ATOM      5  O   LIG    1        4.356  -1.422  -0.351  0.00  0.00    -0.274 OA
BRANCH   2   6
ATOM      6  C   LIG    1        3.965  -0.494  -2.486  0.00  0.00    +0.166 C 
BRANCH   6   8
ATOM      7  C   LIG    1        1.914  -0.776  -1.202  0.00  0.00    +0.401 C 
ATOM      8  N   LIG    1        2.616  -1.041  -2.321  0.00  0.00    -0.269 N 
ATOM      9  H   LIG    1        2.228  -1.593  -3.018  0.00  0.00    +0.153 HD
ATOM     10  O   LIG    1        2.400  -0.085  -0.329  0.00  0.00    -0.226 OA
BRANCH   7  11
ATOM     11  O   LIG    1        0.674  -1.279  -1.050  0.00  0.00    -0.445 OA
BRANCH  11  13
ATOM     12  C   LIG    1       -0.168   0.560   0.273  0.00  0.00    +0.055 C 
ATOM     13  C   LIG    1       -0.013  -0.958   0.161  0.00  0.00    +0.107 C 
ATOM     14  C   LIG    1       -1.396  -1.613   0.152  0.00  0.00    +0.055 C 
ATOM     15  C   LIG    1        0.790  -1.478   1.355  0.00  0.00    +0.055 C 
ENDBRANCH  11  13
ENDBRANCH   7  11
ENDBRANCH   6   8
BRANCH   6  16
ATOM     16  C   LIG    1        3.905   1.034  -2.439  0.00  0.00    +0.069 C 
BRANCH  16  17
ATOM     17  C   LIG    1        3.122   1.543  -3.622  0.00  0.00    -0.020 A 
ATOM     18  C   LIG    1        3.626   1.948  -4.798  0.00  0.00    +0.087 A 
ATOM     19  N   LIG    1        2.612   2.341  -5.629  0.00  0.00    -0.360 N 
ATOM     20  C   LIG    1        1.401   2.195  -4.991  0.00  0.00    +0.047 A 
ATOM     21  C   LIG    1        0.085   2.441  -5.367  0.00  0.00    +0.026 A 
ATOM     22  C   LIG    1       -0.941   2.171  -4.487  0.00  0.00    +0.002 A 
ATOM     23  C   LIG    1       -0.673   1.669  -3.221  0.00  0.00    +0.001 A 
ATOM     24  C   LIG    1        0.613   1.425  -2.829  0.00  0.00    +0.010 A 
ATOM     25  H   LIG    1        2.730   2.674  -6.533  0.00  0.00    +0.165 HD
ATOM     26  C   LIG    1        1.667   1.682  -3.708  0.00  0.00    +0.003 A 
ENDBRANCH  16  17
ENDBRANCH   6  16
ENDBRANCH   2   6
ENDBRANCH   1   3
BRANCH   1  27
ATOM     27  C   LIG    1        8.402  -0.804  -0.533  0.00  0.00    +0.234 C 
ATOM     28  N   LIG    1        9.363  -1.103   0.363  0.00  0.00    -0.302 N 
ATOM     29  H   LIG    1        9.164  -1.686   1.112  0.00  0.00    +0.150 HD
ATOM     30  O   LIG    1        8.626  -0.006  -1.419  0.00  0.00    -0.274 OA
BRANCH  28  31
ATOM     31  C   LIG    1       10.710  -0.548   0.206  0.00  0.00    +0.169 C 
BRANCH  31  32
ATOM     32  C   LIG    1       11.482  -1.375  -0.789  0.00  0.00    +0.234 C 
ATOM     33  N   LIG    1       12.753  -1.049  -1.095  0.00  0.00    -0.302 N 
ATOM     34  H   LIG    1       13.172  -0.282  -0.674  0.00  0.00    +0.150 HD
ATOM     35  O   LIG    1       10.959  -2.335  -1.315  0.00  0.00    -0.274 OA
BRANCH  33  36
ATOM     36  C   LIG    1       13.504  -1.854  -2.062  0.00  0.00    +0.163 C 
BRANCH  36  37
ATOM     37  C   LIG    1       14.127  -3.032  -1.359  0.00  0.00    +0.231 C 
ATOM     38  N   LIG    1       14.869  -3.916  -2.055  0.00  0.00    -0.328 N 
ATOM     39  H   LIG    1       15.270  -4.675  -1.603  0.00  0.00    +0.145 HD
ATOM     40  H   LIG    1       15.002  -3.794  -3.008  0.00  0.00    +0.145 HD
ATOM     41  O   LIG    1       13.961  -3.185  -0.168  0.00  0.00    -0.274 OA
ENDBRANCH  36  37
BRANCH  36  42
ATOM     42  C   LIG    1       14.602  -0.997  -2.694  0.00  0.00    +0.067 C 
BRANCH  42  43
ATOM     43  C   LIG    1       13.975   0.111  -3.499  0.00  0.00    -0.045 A 
ATOM     44  C   LIG    1       13.675  -0.088  -4.834  0.00  0.00    +0.004 A 
ATOM     45  C   LIG    1       13.100   0.929  -5.573  0.00  0.00    +0.000 A 
ATOM     46  C   LIG    1       12.823   2.145  -4.976  0.00  0.00    +0.000 A 
ATOM     47  C   LIG    1       13.121   2.344  -3.641  0.00  0.00    +0.000 A 
ATOM     48  C   LIG    1       13.693   1.325  -2.902  0.00  0.00    +0.004 A 
ENDBRANCH  42  43
ENDBRANCH  36  42
ENDBRANCH  33  36
ENDBRANCH  31  32
BRANCH  31  49
ATOM     49  C   LIG    1       11.431  -0.569   1.555  0.00  0.00    +0.152 C 
BRANCH  49  50
ATOM     50  C   LIG    1       10.737   0.368   2.510  0.00  0.00    +0.307 C 
ATOM     51  O   LIG    1        9.820   1.069   2.118  0.00  0.00    -0.251 OA
BRANCH  50  52
ATOM     52  O   LIG    1       11.092   0.424   3.675  0.00  0.00    -0.481 OA
ATOM     53  H   LIG    1       11.797  -0.115   3.977  0.00  0.00    +0.295 HD
ENDBRANCH  50  52
ENDBRANCH  49  50
ENDBRANCH  31  49
ENDBRANCH  28  31
ENDBRANCH   1  27
BRANCH   1  54
ATOM     54  C   LIG    1        7.210  -2.978  -0.557  0.00  0.00    +0.042 C 
BRANCH  54  55
ATOM     55  C   LIG    1        5.855  -3.654  -0.333  0.00  0.00    +0.071 C 
BRANCH  55  56
ATOM     56  S   LIG    1        6.045  -5.452  -0.477  0.00  0.00    -0.164 S 
ATOM     57  C   LIG    1        4.373  -6.095  -0.190  0.00  0.00    +0.084 C 
ENDBRANCH  55  56
ENDBRANCH  54  55
ENDBRANCH   1  54
TORSDOF 20
