REMARK  Name = ZINC04385852
REMARK                            x       y       z     vdW  Elec       q    Type
REMARK                         _______ _______ _______ _____ _____    ______ ____
ROOT
ATOM      1  S   LIG    1       -0.156  -4.112  -0.197  0.00  0.00    +0.059 S 
ATOM      2  O   LIG    1       -0.499  -4.783   1.008  0.00  0.00    -0.153 OA
ATOM      3  O   LIG    1        1.040  -4.394  -0.911  0.00  0.00    -0.153 OA
ENDROOT
BRANCH   1   9
ATOM      4  C   LIG    1       -0.053   1.783   1.084  0.00  0.00    +0.044 C 
ATOM      5  C   LIG    1       -0.079   0.311   0.764  0.00  0.00    -0.047 A 
ATOM      6  C   LIG    1       -1.177  -0.453   1.112  0.00  0.00    +0.009 A 
ATOM      7  C   LIG    1       -1.201  -1.804   0.819  0.00  0.00    -0.024 A 
ATOM      8  C   LIG    1       -2.398  -2.637   1.199  0.00  0.00    +0.046 C 
ATOM      9  C   LIG    1       -0.126  -2.390   0.176  0.00  0.00    +0.108 A 
ATOM     10  C   LIG    1        0.971  -1.627  -0.172  0.00  0.00    +0.032 A 
ATOM     11  C   LIG    1        0.993  -0.275   0.117  0.00  0.00    -0.046 A 
ATOM     12  C   LIG    1        2.188   0.559  -0.268  0.00  0.00    +0.044 C 
ENDBRANCH   1   9
BRANCH   1  13
ATOM     13  N   LIG    1       -1.407  -4.363  -1.252  0.00  0.00    -0.190 NA
ATOM     14  H   LIG    1       -2.176  -4.886  -0.976  0.00  0.00    +0.148 HD
BRANCH  13  15
ATOM     15  C   LIG    1       -1.353  -3.796  -2.601  0.00  0.00    +0.107 C 
BRANCH  15  16
ATOM     16  C   LIG    1       -2.430  -4.445  -3.472  0.00  0.00    +0.038 C 
BRANCH  16  17
ATOM     17  C   LIG    1       -2.373  -3.852  -4.881  0.00  0.00    +0.124 C 
BRANCH  17  18
ATOM     18  N   LIG    1       -3.405  -4.475  -5.715  0.00  0.00    -0.337 N 
ATOM     19  C   LIG    1       -3.264  -5.605  -6.473  0.00  0.00    +0.106 A 
ATOM     20  C   LIG    1       -4.449  -5.823  -7.073  0.00  0.00    +0.130 A 
ATOM     21  N   LIG    1       -5.292  -4.851  -6.691  0.00  0.00    -0.244 NA
ATOM     22  C   LIG    1       -4.675  -4.043  -5.874  0.00  0.00    +0.199 A 
ENDBRANCH  17  18
ENDBRANCH  16  17
ENDBRANCH  15  16
ENDBRANCH  13  15
ENDBRANCH   1  13
TORSDOF 6
