REMARK  Name = ZINC04782641
REMARK                            x       y       z     vdW  Elec       q    Type
REMARK                         _______ _______ _______ _____ _____    ______ ____
ROOT
ATOM      1  O   LIG    1       -0.016   1.356   0.009  0.00  0.00    -0.487 OA
ENDROOT
BRANCH   1   2
ATOM      2  C   LIG    1        0.002  -0.004   0.002  0.00  0.00    +0.162 A 
ATOM      3  C   LIG    1        1.210  -0.682  -0.019  0.00  0.00    +0.049 A 
ATOM      4  C   LIG    1        1.227  -2.064  -0.021  0.00  0.00    +0.004 A 
ATOM      5  C   LIG    1        0.041  -2.773  -0.013  0.00  0.00    +0.004 A 
ATOM      6  C   LIG    1       -1.168  -2.103   0.002  0.00  0.00    +0.049 A 
ATOM      7  C   LIG    1       -1.192  -0.718   0.010  0.00  0.00    +0.161 A 
BRANCH   7   8
ATOM      8  O   LIG    1       -2.381  -0.057   0.024  0.00  0.00    -0.491 OA
ATOM      9  C   LIG    1       -3.567  -0.854   0.031  0.00  0.00    +0.277 C 
ENDBRANCH   7   8
ENDBRANCH   1   2
BRANCH   1  10
ATOM     10  C   LIG    1        1.248   2.022   0.001  0.00  0.00    +0.248 C 
BRANCH  10  11
ATOM     11  C   LIG    1        1.027   3.536   0.011  0.00  0.00    +0.145 C 
BRANCH  11  14
ATOM     12  C   LIG    1       -0.556   5.626   2.800  0.00  0.00    +0.109 C 
ATOM     13  C   LIG    1        0.099   5.223   1.504  0.00  0.00    +0.210 C 
ATOM     14  N   LIG    1        0.391   3.928   1.271  0.00  0.00    -0.312 N 
ATOM     15  H   LIG    1        0.180   3.256   1.938  0.00  0.00    +0.149 HD
ATOM     16  O   LIG    1        0.362   6.063   0.671  0.00  0.00    -0.276 OA
ENDBRANCH  11  14
ENDBRANCH  10  11
ENDBRANCH   1  10
TORSDOF 5
