REMARK  Name = ZINC04474564
REMARK                            x       y       z     vdW  Elec       q    Type
REMARK                         _______ _______ _______ _____ _____    ______ ____
ROOT
ATOM      1  C   LIG    1       -2.274  -2.756  -9.009  0.00  0.00    -0.027 C 
ATOM      2  C   LIG    1       -3.418  -2.789  -9.646  0.00  0.00    -0.027 C 
ENDROOT
BRANCH   1   3
ATOM      3  C   LIG    1       -1.990  -3.755  -7.917  0.00  0.00    +0.053 C 
BRANCH   3   5
ATOM      4  C   LIG    1        0.253  -4.488  -7.289  0.00  0.00    -0.027 C 
ATOM      5  C   LIG    1       -0.686  -4.455  -8.202  0.00  0.00    -0.027 C 
BRANCH   4   6
ATOM      6  C   LIG    1       -0.030  -3.982  -5.898  0.00  0.00    +0.053 C 
BRANCH   6   8
ATOM      7  C   LIG    1        1.148  -4.758  -3.906  0.00  0.00    -0.027 C 
ATOM      8  C   LIG    1        0.336  -5.043  -4.893  0.00  0.00    -0.027 C 
BRANCH   7   9
ATOM      9  C   LIG    1        1.589  -3.334  -3.680  0.00  0.00    +0.053 C 
BRANCH   9  11
ATOM     10  C   LIG    1        2.302  -2.463  -1.513  0.00  0.00    -0.031 C 
ATOM     11  C   LIG    1        1.331  -2.951  -2.245  0.00  0.00    -0.027 C 
BRANCH  10  13
ATOM     12  C   LIG    1        4.019  -0.696  -1.794  0.00  0.00    +0.008 C 
ATOM     13  C   LIG    1        3.630  -2.133  -2.146  0.00  0.00    +0.023 C 
ENDBRANCH  10  13
ENDBRANCH   9  11
ENDBRANCH   7   9
ENDBRANCH   6   8
ENDBRANCH   4   6
ENDBRANCH   3   5
ENDBRANCH   1   3
BRANCH   2  14
ATOM     14  C   LIG    1       -4.513  -3.715  -9.181  0.00  0.00    +0.053 C 
BRANCH  14  15
ATOM     15  C   LIG    1       -5.788  -2.933  -8.997  0.00  0.00    -0.027 C 
ATOM     16  C   LIG    1       -6.872  -3.288  -9.640  0.00  0.00    -0.027 C 
BRANCH  16  17
ATOM     17  C   LIG    1       -6.805  -4.361 -10.696  0.00  0.00    +0.053 C 
BRANCH  17  18
ATOM     18  C   LIG    1       -7.701  -5.508 -10.305  0.00  0.00    -0.027 C 
ATOM     19  C   LIG    1       -8.595  -5.959 -11.150  0.00  0.00    -0.030 C 
BRANCH  19  20
ATOM     20  C   LIG    1       -8.620  -5.444 -12.566  0.00  0.00    +0.038 C 
BRANCH  20  21
ATOM     21  C   LIG    1       -8.567  -6.623 -13.539  0.00  0.00    +0.124 C 
BRANCH  21  22
ATOM     22  C   LIG    1       -8.592  -6.109 -14.955  0.00  0.00    +0.305 C 
ATOM     23  O   LIG    1       -8.647  -4.909 -15.166  0.00  0.00    -0.251 OA
BRANCH  22  24
ATOM     24  O   LIG    1       -8.557  -6.891 -15.889  0.00  0.00    -0.481 OA
ATOM     25  H   LIG    1       -8.515  -7.813 -15.726  0.00  0.00    +0.295 HD
ENDBRANCH  22  24
ENDBRANCH  21  22
ENDBRANCH  20  21
ENDBRANCH  19  20
ENDBRANCH  17  18
ENDBRANCH  16  17
ENDBRANCH  14  15
ENDBRANCH   2  14
TORSDOF 15
