REMARK  Name = ZINC04102216
REMARK                            x       y       z     vdW  Elec       q    Type
REMARK                         _______ _______ _______ _____ _____    ______ ____
ROOT
ATOM      1  C   LIG    1       -0.665   1.381  -1.113  0.00  0.00    -0.004 C 
ATOM      2  C   LIG    1        0.164   0.652  -0.043  0.00  0.00    -0.007 C 
ATOM      3  C   LIG    1       -0.464   0.937   1.324  0.00  0.00    -0.077 C 
ATOM      4  N   LIG    1       -0.407   2.394   1.590  0.00  0.00    +0.387 N 
ATOM      5  H   LIG    1        0.573   2.697   1.548  0.00  0.00    -0.081 HD
ATOM      6  C   LIG    1       -1.180   3.141   0.575  0.00  0.00    +0.008 C 
ATOM      7  C   LIG    1       -2.636   2.740   0.559  0.00  0.00    +0.150 C 
ATOM      8  C   LIG    1       -3.023   1.541  -0.204  0.00  0.00    +0.020 A 
ATOM      9  C   LIG    1       -4.334   1.057  -0.116  0.00  0.00    +0.015 A 
ATOM     10  C   LIG    1       -4.699  -0.059  -0.836  0.00  0.00    +0.046 A 
ATOM     11  C   LIG    1       -3.765  -0.696  -1.646  0.00  0.00    +0.117 A 
ATOM     12  C   LIG    1       -2.463  -0.215  -1.728  0.00  0.00    +0.050 A 
ATOM     13  O   LIG    1       -3.467   3.389   1.159  0.00  0.00    -0.294 OA
ATOM     14  C   LIG    1       -2.088   0.890  -1.013  0.00  0.00    -0.027 A 
ATOM     15  C   LIG    1       -0.603   2.883  -0.821  0.00  0.00    -0.010 C 
ATOM     16  C   LIG    1       -1.425   3.643  -1.864  0.00  0.00    +0.007 C 
ENDROOT
BRANCH   1  18
ATOM     17  C   LIG    1        1.307   1.699  -2.614  0.00  0.00    +0.005 C 
ATOM     18  C   LIG    1       -0.095   1.095  -2.504  0.00  0.00    +0.008 C 
ENDBRANCH   1  18
BRANCH  11  19
ATOM     19  O   LIG    1       -4.126  -1.792  -2.359  0.00  0.00    -0.507 OA
ATOM     20  H   LIG    1       -3.997  -2.627  -1.889  0.00  0.00    +0.292 HD
ENDBRANCH  11  19
BRANCH   4  21
ATOM     21  C   LIG    1       -0.938   2.681   2.933  0.00  0.00    -0.074 C 
BRANCH  21  22
ATOM     22  C   LIG    1       -0.325   1.695   3.931  0.00  0.00    -0.028 C 
ATOM     23  C   LIG    1       -1.278   0.751   4.667  0.00  0.00    +0.002 C 
ATOM     24  C   LIG    1       -0.625   1.915   5.415  0.00  0.00    +0.002 C 
ENDBRANCH  21  22
ENDBRANCH   4  21
TORSDOF 4
