REMARK  Name = ZINC04529777
REMARK                            x       y       z     vdW  Elec       q    Type
REMARK                         _______ _______ _______ _____ _____    ______ ____
ROOT
ATOM      1  C   LIG    1       -9.495   1.140   0.697  0.00  0.00    -0.003 C 
ATOM      2  C   LIG    1       -9.801   1.432   1.968  0.00  0.00    -0.019 C 
ATOM      3  C   LIG    1       -9.410   0.278   2.874  0.00  0.00    +0.032 C 
ATOM      4  C   LIG    1       -8.304  -0.456   2.050  0.00  0.00    +0.007 C 
ATOM      5  C   LIG    1       -7.012   0.336   2.273  0.00  0.00    +0.001 C 
ATOM      6  C   LIG    1       -6.394  -0.145   3.595  0.00  0.00    +0.031 C 
ATOM      7  C   LIG    1       -5.041   0.470   3.785  0.00  0.00    -0.027 C 
ATOM      8  C   LIG    1       -4.331   0.957   2.818  0.00  0.00    -0.064 C 
ATOM      9  C   LIG    1       -4.761   0.948   1.377  0.00  0.00    -0.008 C 
ATOM     10  C   LIG    1       -3.625   0.360   0.539  0.00  0.00    +0.016 C 
ATOM     11  C   LIG    1       -5.004   2.384   0.917  0.00  0.00    +0.015 C 
ATOM     12  C   LIG    1       -4.134   3.348   1.722  0.00  0.00    +0.046 C 
ATOM     13  C   LIG    1       -2.788   2.714   2.070  0.00  0.00    +0.180 C 
ATOM     14  C   LIG    1       -2.996   1.617   3.124  0.00  0.00    +0.075 C 
ATOM     15  C   LIG    1       -6.003   0.090   1.153  0.00  0.00    +0.003 C 
ATOM     16  C   LIG    1       -6.633   0.507  -0.184  0.00  0.00    +0.005 C 
ATOM     17  C   LIG    1       -7.845  -0.381  -0.453  0.00  0.00    +0.012 C 
ATOM     18  C   LIG    1       -8.876  -0.232   0.639  0.00  0.00    -0.001 C 
ATOM     19  C   LIG    1       -9.987  -1.259   0.408  0.00  0.00    +0.016 C 
ENDROOT
BRANCH   1  21
ATOM     20  C   LIG    1      -10.233   3.418  -0.242  0.00  0.00    +0.091 C 
ATOM     21  C   LIG    1       -9.726   2.015  -0.452  0.00  0.00    +0.156 C 
ATOM     22  O   LIG    1       -9.509   1.610  -1.575  0.00  0.00    -0.293 OA
ENDBRANCH   1  21
BRANCH  13  23
ATOM     23  O   LIG    1       -2.204   2.132   0.875  0.00  0.00    -0.461 OA
BRANCH  23  24
ATOM     24  C   LIG    1       -0.864   2.097   0.807  0.00  0.00    +0.304 C 
ATOM     25  C   LIG    1       -0.186   1.508  -0.403  0.00  0.00    +0.136 C 
ATOM     26  O   LIG    1       -0.201   2.538   1.716  0.00  0.00    -0.251 OA
ENDBRANCH  23  24
ENDBRANCH  13  23
TORSDOF 3
