REMARK  Name = ZINC04098884
REMARK                            x       y       z     vdW  Elec       q    Type
REMARK                         _______ _______ _______ _____ _____    ______ ____
ROOT
ATOM      1  C   LIG    1       -1.261  -0.757   0.010  0.00  0.00    -0.023 C 
ATOM      2  C   LIG    1       -1.180  -2.083  -0.045  0.00  0.00    -0.022 C 
ATOM      3  C   LIG    1       -2.453  -2.923   0.017  0.00  0.00    +0.026 C 
ATOM      4  C   LIG    1       -3.261  -2.669  -1.257  0.00  0.00    -0.012 C 
ATOM      5  C   LIG    1       -4.038  -1.369  -1.163  0.00  0.00    -0.071 C 
ATOM      6  C   LIG    1       -4.627  -1.264   0.273  0.00  0.00    -0.017 C 
ATOM      7  C   LIG    1       -3.525  -0.538   1.078  0.00  0.00    -0.013 C 
ATOM      8  N   LIG    1       -3.219  -0.172  -1.278  0.00  0.00    +0.386 N 
ATOM      9  H   LIG    1       -3.801   0.627  -1.479  0.00  0.00    -0.085 HD
ATOM     10  H   LIG    1       -2.533  -0.292  -2.006  0.00  0.00    -0.085 HD
ATOM     11  C   LIG    1       -2.547   0.012   0.026  0.00  0.00    -0.037 C 
ENDROOT
BRANCH   1  13
ATOM     12  C   LIG    1       -0.018   1.503   0.010  0.00  0.00    +0.091 C 
ATOM     13  C   LIG    1        0.002  -0.004   0.002  0.00  0.00    +0.154 C 
ATOM     14  O   LIG    1        1.061  -0.596  -0.011  0.00  0.00    -0.293 OA
ENDBRANCH   1  13
TORSDOF 1
