REMARK  Name = ZINC04623738
REMARK                            x       y       z     vdW  Elec       q    Type
REMARK                         _______ _______ _______ _____ _____    ______ ____
ROOT
ATOM      1  C   LIG    1       -8.218  -2.534   3.875  0.00  0.00    -0.000 C 
ATOM      2  C   LIG    1       -9.393  -1.984   3.505  0.00  0.00    -0.000 C 
ENDROOT
BRANCH   2   3
ATOM      3  C   LIG    1      -10.187  -1.230   4.477  0.00  0.00    -0.002 C 
ATOM      4  C   LIG    1      -11.301  -0.610   4.090  0.00  0.00    +0.004 C 
BRANCH   4   5
ATOM      5  C   LIG    1      -11.825  -0.805   2.690  0.00  0.00    +0.137 C 
BRANCH   5   6
ATOM      6  O   LIG    1      -13.180  -1.254   2.747  0.00  0.00    -0.388 OA
ATOM      7  H   LIG    1      -13.793  -0.608   3.125  0.00  0.00    +0.210 HD
ENDBRANCH   5   6
BRANCH   5   8
ATOM      8  C   LIG    1      -11.758   0.522   1.931  0.00  0.00    +0.036 C 
BRANCH   8   9
ATOM      9  C   LIG    1      -12.172   0.297   0.475  0.00  0.00    +0.014 C 
BRANCH   9  10
ATOM     10  C   LIG    1      -12.106   1.624  -0.284  0.00  0.00    +0.120 C 
BRANCH  10  11
ATOM     11  C   LIG    1      -12.513   1.403  -1.718  0.00  0.00    +0.305 C 
ATOM     12  O   LIG    1      -12.827   0.287  -2.098  0.00  0.00    -0.251 OA
BRANCH  11  13
ATOM     13  O   LIG    1      -12.528   2.339  -2.499  0.00  0.00    -0.481 OA
ATOM     14  H   LIG    1      -12.287   3.196  -2.207  0.00  0.00    +0.295 HD
ENDBRANCH  11  13
ENDBRANCH  10  11
ENDBRANCH   9  10
ENDBRANCH   8   9
ENDBRANCH   5   8
ENDBRANCH   4   5
ENDBRANCH   2   3
BRANCH   1  16
ATOM     15  C   LIG    1       -6.263  -3.832   3.268  0.00  0.00    +0.004 C 
ATOM     16  C   LIG    1       -7.424  -3.288   2.903  0.00  0.00    -0.002 C 
BRANCH  15  17
ATOM     17  C   LIG    1       -5.446  -4.608   2.268  0.00  0.00    +0.141 C 
BRANCH  17  18
ATOM     18  O   LIG    1       -5.276  -5.949   2.730  0.00  0.00    -0.387 OA
ATOM     19  H   LIG    1       -4.824  -6.018   3.582  0.00  0.00    +0.210 HD
ENDBRANCH  17  18
BRANCH  17  20
ATOM     20  C   LIG    1       -4.075  -3.947   2.106  0.00  0.00    +0.062 C 
BRANCH  20  22
ATOM     21  C   LIG    1       -2.804  -3.960   0.022  0.00  0.00    -0.031 C 
ATOM     22  C   LIG    1       -3.304  -4.648   1.018  0.00  0.00    -0.028 C 
BRANCH  21  23
ATOM     23  C   LIG    1       -2.850  -2.454   0.048  0.00  0.00    +0.027 C 
BRANCH  23  24
ATOM     24  C   LIG    1       -1.447  -1.896  -0.199  0.00  0.00    +0.004 C 
BRANCH  24  25
ATOM     25  C   LIG    1       -1.494  -0.367  -0.173  0.00  0.00    +0.000 C 
BRANCH  25  27
ATOM     26  C   LIG    1       -0.139   1.720  -0.394  0.00  0.00    +0.004 C 
ATOM     27  C   LIG    1       -0.091   0.191  -0.420  0.00  0.00    -0.003 C 
ENDBRANCH  25  27
ENDBRANCH  24  25
ENDBRANCH  23  24
ENDBRANCH  21  23
ENDBRANCH  20  22
ENDBRANCH  17  20
ENDBRANCH  15  17
ENDBRANCH   1  16
TORSDOF 17
