REMARK  Name = ZINC04529217
REMARK                            x       y       z     vdW  Elec       q    Type
REMARK                         _______ _______ _______ _____ _____    ______ ____
ROOT
ATOM      1  C   LIG    1        1.150   3.592   0.010  0.00  0.00    +0.055 C 
ENDROOT
BRANCH   1   8
ATOM      2  C   LIG    1       -0.334   1.578  -0.064  0.00  0.00    +0.006 A 
ATOM      3  C   LIG    1       -0.522   0.210  -0.121  0.00  0.00    +0.020 A 
ATOM      4  C   LIG    1        0.571  -0.637  -0.166  0.00  0.00    +0.041 A 
ATOM      5 CL   LIG    1        0.336  -2.355  -0.237  0.00  0.00    -0.084 Cl
ATOM      6  C   LIG    1        1.852  -0.113  -0.154  0.00  0.00    +0.020 A 
ATOM      7  C   LIG    1        2.038   1.255  -0.097  0.00  0.00    +0.006 A 
ATOM      8  C   LIG    1        0.946   2.101  -0.052  0.00  0.00    -0.032 A 
ENDBRANCH   1   8
BRANCH   1   9
ATOM      9  C   LIG    1        0.420   4.247  -1.134  0.00  0.00    -0.032 A 
ATOM     10  C   LIG    1       -0.155   3.470  -2.122  0.00  0.00    +0.006 A 
ATOM     11  C   LIG    1       -0.828   4.070  -3.170  0.00  0.00    +0.020 A 
ATOM     12  C   LIG    1       -0.918   5.449  -3.234  0.00  0.00    +0.041 A 
ATOM     13 CL   LIG    1       -1.759   6.204  -4.552  0.00  0.00    -0.084 Cl
ATOM     14  C   LIG    1       -0.338   6.227  -2.248  0.00  0.00    +0.020 A 
ATOM     15  C   LIG    1        0.331   5.625  -1.198  0.00  0.00    +0.006 A 
ENDBRANCH   1   9
BRANCH   1  16
ATOM     16  C   LIG    1        2.621   3.903  -0.088  0.00  0.00    -0.032 A 
ATOM     17  C   LIG    1        3.236   4.654   0.895  0.00  0.00    +0.006 A 
ATOM     18  C   LIG    1        4.587   4.935   0.808  0.00  0.00    +0.020 A 
ATOM     19  C   LIG    1        5.321   4.472  -0.270  0.00  0.00    +0.041 A 
ATOM     20 CL   LIG    1        7.016   4.829  -0.384  0.00  0.00    -0.084 Cl
ATOM     21  C   LIG    1        4.703   3.725  -1.257  0.00  0.00    +0.020 A 
ATOM     22  C   LIG    1        3.354   3.441  -1.166  0.00  0.00    +0.006 A 
ENDBRANCH   1  16
BRANCH   1  23
ATOM     23  C   LIG    1        0.604   4.127   1.336  0.00  0.00    +0.141 C 
BRANCH  23  24
ATOM     24  C   LIG    1        1.333   3.472   2.480  0.00  0.00    +0.306 C 
ATOM     25  O   LIG    1        2.201   2.661   2.259  0.00  0.00    -0.251 OA
BRANCH  24  26
ATOM     26  O   LIG    1        1.019   3.790   3.746  0.00  0.00    -0.481 OA
ATOM     27  H   LIG    1        0.346   4.419   3.918  0.00  0.00    +0.295 HD
ENDBRANCH  24  26
ENDBRANCH  23  24
ENDBRANCH   1  23
TORSDOF 6
