REMARK  Name = ZINC04134473
REMARK                            x       y       z     vdW  Elec       q    Type
REMARK                         _______ _______ _______ _____ _____    ______ ____
ROOT
ATOM      1  C   LIG    1       -1.303   7.140   6.785  0.00  0.00    +0.185 C 
ATOM      2  C   LIG    1       -0.148   7.844   7.495  0.00  0.00    +0.052 C 
ATOM      3  C   LIG    1       -0.656   9.195   8.020  0.00  0.00    +0.012 C 
ATOM      4  C   LIG    1        0.466   9.914   8.772  0.00  0.00    +0.012 C 
ATOM      5  C   LIG    1       -1.084  10.015   6.831  0.00  0.00    -0.020 C 
ATOM      6  C   LIG    1       -1.601   9.439   5.762  0.00  0.00    -0.044 C 
ATOM      7  C   LIG    1       -1.955  10.270   4.588  0.00  0.00    -0.000 C 
ATOM      8  C   LIG    1       -2.189   9.691   3.423  0.00  0.00    -0.023 C 
ATOM      9  C   LIG    1       -2.139   8.211   3.193  0.00  0.00    +0.012 C 
ATOM     10  C   LIG    1       -3.567   7.662   3.169  0.00  0.00    +0.012 C 
ATOM     11  C   LIG    1       -1.347   7.494   4.288  0.00  0.00    +0.007 C 
ATOM     12  C   LIG    1       -1.858   7.966   5.651  0.00  0.00    +0.063 C 
ENDROOT
BRANCH   1  13
ATOM     13  O   LIG    1       -0.828   5.873   6.259  0.00  0.00    -0.461 OA
BRANCH  13  14
ATOM     14  C   LIG    1       -0.883   4.812   7.080  0.00  0.00    +0.310 C 
ATOM     15  O   LIG    1       -1.313   4.939   8.202  0.00  0.00    -0.251 OA
BRANCH  14  16
ATOM     16  C   LIG    1       -0.407   3.464   6.603  0.00  0.00    +0.094 C 
ATOM     17  C   LIG    1        1.069   3.553   6.212  0.00  0.00    +0.019 C 
BRANCH  16  19
ATOM     18  C   LIG    1       -0.212   1.047   7.202  0.00  0.00    +0.004 C 
ATOM     19  C   LIG    1       -0.577   2.438   7.725  0.00  0.00    +0.011 C 
ENDBRANCH  16  19
ENDBRANCH  14  16
ENDBRANCH  13  14
ENDBRANCH   1  13
BRANCH  11  20
ATOM     20  C   LIG    1       -1.546   5.983   4.160  0.00  0.00    +0.007 C 
BRANCH  20  21
ATOM     21  C   LIG    1       -1.509   5.587   2.682  0.00  0.00    +0.032 C 
BRANCH  21  22
ATOM     22  C   LIG    1       -1.709   4.075   2.554  0.00  0.00    +0.117 C 
BRANCH  22  23
ATOM     23  O   LIG    1       -3.019   3.728   3.006  0.00  0.00    -0.392 OA
ATOM     24  H   LIG    1       -3.732   4.153   2.509  0.00  0.00    +0.210 HD
ENDBRANCH  22  23
BRANCH  22  25
ATOM     25  C   LIG    1       -1.548   3.662   1.090  0.00  0.00    +0.063 C 
BRANCH  25  26
ATOM     26  C   LIG    1       -1.623   2.138   0.979  0.00  0.00    +0.128 C 
BRANCH  26  27
ATOM     27  O   LIG    1       -2.929   1.697   1.354  0.00  0.00    -0.391 OA
ATOM     28  H   LIG    1       -3.639   2.059   0.806  0.00  0.00    +0.210 HD
ENDBRANCH  26  27
BRANCH  26  29
ATOM     29  C   LIG    1       -1.338   1.717  -0.465  0.00  0.00    +0.151 C 
BRANCH  29  30
ATOM     30  C   LIG    1       -1.291   0.213  -0.549  0.00  0.00    +0.307 C 
ATOM     31  O   LIG    1       -1.467  -0.453   0.443  0.00  0.00    -0.251 OA
BRANCH  30  32
ATOM     32  O   LIG    1       -1.053  -0.386  -1.727  0.00  0.00    -0.481 OA
ATOM     33  H   LIG    1       -0.917   0.132  -2.496  0.00  0.00    +0.295 HD
ENDBRANCH  30  32
ENDBRANCH  29  30
ENDBRANCH  26  29
ENDBRANCH  25  26
ENDBRANCH  22  25
ENDBRANCH  21  22
ENDBRANCH  20  21
ENDBRANCH  11  20
TORSDOF 14
