REMARK  Name = ZINC04276954
REMARK                            x       y       z     vdW  Elec       q    Type
REMARK                         _______ _______ _______ _____ _____    ______ ____
ROOT
ATOM      1  C   LIG    1        2.753   6.581   0.011  0.00  0.00    +0.186 C 
ATOM      2  O   LIG    1        1.977   7.520   0.023  0.00  0.00    -0.287 OA
ENDROOT
BRANCH   1   6
ATOM      3  C   LIG    1        6.943   7.288  -0.025  0.00  0.00    +0.000 A 
ATOM      4  C   LIG    1        6.064   8.357  -0.011  0.00  0.00    +0.001 A 
ATOM      5  C   LIG    1        4.703   8.134   0.001  0.00  0.00    +0.012 A 
ATOM      6  C   LIG    1        4.213   6.827  -0.002  0.00  0.00    +0.022 A 
ATOM      7  C   LIG    1        5.104   5.754  -0.010  0.00  0.00    +0.012 A 
ATOM      8  C   LIG    1        6.463   5.990  -0.027  0.00  0.00    +0.001 A 
ENDBRANCH   1   6
BRANCH   1   9
ATOM      9  C   LIG    1        2.261   5.258   0.008  0.00  0.00    +0.052 C 
ATOM     10  C   LIG    1        0.920   5.032   0.020  0.00  0.00    +0.019 C 
BRANCH  10  11
ATOM     11  C   LIG    1        0.427   3.708   0.017  0.00  0.00    +0.012 A 
ATOM     12  C   LIG    1       -0.892   3.262   0.027  0.00  0.00    +0.015 A 
ATOM     13  C   LIG    1       -1.091   1.905   0.017  0.00  0.00    +0.008 A 
ATOM     14  C   LIG    1       -0.013   1.076   0.008  0.00  0.00    +0.046 A 
ATOM     15  S   LIG    1        1.332   2.170   0.001  0.00  0.00    -0.097 S 
ENDBRANCH  10  11
ENDBRANCH   1   9
TORSDOF 3
