REMARK  Name = ZINC04475322
REMARK                            x       y       z     vdW  Elec       q    Type
REMARK                         _______ _______ _______ _____ _____    ______ ____
ROOT
ATOM      1  C   LIG    1       -2.046  -0.659   1.212  0.00  0.00    +0.150 A 
ATOM      2  C   LIG    1       -3.363  -1.149   1.241  0.00  0.00    +0.147 A 
ATOM      3  C   LIG    1       -3.995  -1.278   2.489  0.00  0.00    +0.167 A 
ATOM      4  N   LIG    1       -5.250  -1.769   2.229  0.00  0.00    -0.286 N 
ATOM      5  C   LIG    1       -5.355  -1.926   0.879  0.00  0.00    +0.203 A 
ATOM      6  N   LIG    1       -3.332  -0.934   3.588  0.00  0.00    -0.216 NA
ATOM      7  C   LIG    1       -2.099  -0.479   3.513  0.00  0.00    +0.225 A 
ATOM      8  N   LIG    1       -4.247  -1.562   0.301  0.00  0.00    -0.231 NA
ATOM      9  N   LIG    1       -1.462  -0.346   2.364  0.00  0.00    -0.219 NA
ENDROOT
BRANCH   4  10
ATOM     10  C1* LIG    1       -6.285  -2.071   3.220  0.00  0.00    +0.253 C 
ATOM     11  C2* LIG    1       -7.117  -0.807   3.531  0.00  0.00    +0.195 C 
ATOM     12  C3* LIG    1       -8.556  -1.339   3.713  0.00  0.00    +0.178 C 
ATOM     13  C4* LIG    1       -8.423  -2.862   3.491  0.00  0.00    +0.177 C 
ATOM     14  O4* LIG    1       -7.235  -3.017   2.683  0.00  0.00    -0.346 OA
BRANCH  11  15
ATOM     15  O2* LIG    1       -6.654  -0.186   4.732  0.00  0.00    -0.385 OA
ATOM     16  H2* LIG    1       -7.141   0.613   4.975  0.00  0.00    +0.210 HD
ENDBRANCH  11  15
BRANCH  12  17
ATOM     17  O3* LIG    1       -9.029  -1.062   5.033  0.00  0.00    -0.386 OA
ATOM     18  H3* LIG    1       -9.928  -1.375   5.202  0.00  0.00    +0.210 HD
ENDBRANCH  12  17
BRANCH  13  19
ATOM     19  C5* LIG    1       -9.649  -3.400   2.749  0.00  0.00    +0.190 C 
BRANCH  19  20
ATOM     20  O5* LIG    1       -9.562  -4.824   2.656  0.00  0.00    -0.392 OA
ATOM     21  H5* LIG    1      -10.307  -5.234   2.197  0.00  0.00    +0.210 HD
ENDBRANCH  19  20
ENDBRANCH  13  19
ENDBRANCH   4  10
BRANCH   1  22
ATOM     22  N   LIG    1       -1.372  -0.511   0.012  0.00  0.00    -0.324 N 
ATOM     23  H   LIG    1       -1.810  -0.743  -0.822  0.00  0.00    +0.148 HD
BRANCH  22  25
ATOM     24  C   LIG    1       -0.019   1.526   0.010  0.00  0.00    +0.028 C 
ATOM     25  C   LIG    1        0.002  -0.004   0.002  0.00  0.00    +0.073 C 
BRANCH  25  26
ATOM     26  C   LIG    1        0.718  -0.497  -1.257  0.00  0.00    +0.057 C 
BRANCH  26  27
ATOM     27  C   LIG    1        0.847  -1.998  -1.206  0.00  0.00    -0.046 A 
ATOM     28  C   LIG    1        1.958  -2.577  -0.621  0.00  0.00    +0.004 A 
ATOM     29  C   LIG    1        2.076  -3.953  -0.574  0.00  0.00    +0.000 A 
ATOM     30  C   LIG    1        1.084  -4.751  -1.112  0.00  0.00    +0.000 A 
ATOM     31  C   LIG    1       -0.027  -4.172  -1.696  0.00  0.00    +0.000 A 
ATOM     32  C   LIG    1       -0.148  -2.796  -1.739  0.00  0.00    +0.004 A 
ENDBRANCH  26  27
ENDBRANCH  25  26
ENDBRANCH  22  25
ENDBRANCH   1  22
TORSDOF 9
