REMARK  Name = ZINC04097404
REMARK                            x       y       z     vdW  Elec       q    Type
REMARK                         _______ _______ _______ _____ _____    ______ ____
ROOT
ATOM      1  C   LIG    1       -1.401   0.043  -0.784  0.00  0.00    +0.163 C 
ATOM      2  C   LIG    1       -1.065   1.461  -1.251  0.00  0.00    +0.047 C 
ATOM      3  C   LIG    1       -1.782   2.473  -0.354  0.00  0.00    -0.001 C 
ATOM      4  C   LIG    1       -1.455   3.892  -0.822  0.00  0.00    +0.004 C 
ATOM      5  C   LIG    1       -2.173   4.903   0.073  0.00  0.00    +0.004 C 
ATOM      6  C   LIG    1       -1.707   4.726   1.519  0.00  0.00    -0.004 C 
ATOM      7  C   LIG    1       -2.041   3.301   1.988  0.00  0.00    -0.001 C 
ATOM      8  C   LIG    1       -1.647   3.082   3.445  0.00  0.00    +0.005 C 
ATOM      9  C   LIG    1       -2.288   4.137   4.362  0.00  0.00    +0.011 C 
ATOM     10  C   LIG    1       -1.850   5.499   3.860  0.00  0.00    +0.007 C 
ATOM     11  C   LIG    1       -0.322   5.559   3.795  0.00  0.00    +0.015 C 
ATOM     12  C   LIG    1       -2.382   6.709   4.621  0.00  0.00    +0.170 C 
ATOM     13  C   LIG    1       -2.504   7.846   3.534  0.00  0.00    -0.023 C 
ATOM     14  C   LIG    1       -2.155   7.186   2.172  0.00  0.00    -0.007 C 
ATOM     15  C   LIG    1       -2.429   5.701   2.430  0.00  0.00    +0.000 C 
ATOM     16  C   LIG    1       -1.319   2.292   1.093  0.00  0.00    -0.027 C 
ATOM     17  C   LIG    1        0.191   2.522   1.179  0.00  0.00    +0.011 C 
ATOM     18  C   LIG    1       -1.647   0.872   1.560  0.00  0.00    -0.005 C 
ATOM     19  C   LIG    1       -0.933  -0.139   0.661  0.00  0.00    -0.027 C 
ENDROOT
BRANCH  13  20
ATOM     20  N   LIG    1       -1.577   8.951   3.811  0.00  0.00    +0.382 N 
ATOM     21  C   LIG    1       -1.714   9.976   2.768  0.00  0.00    -0.091 C 
ATOM     22  C   LIG    1       -0.200   8.443   3.816  0.00  0.00    -0.075 C 
ATOM     23  C   LIG    1        0.775   9.604   4.024  0.00  0.00    -0.018 C 
ATOM     24  C   LIG    1        0.475  10.282   5.364  0.00  0.00    -0.004 C 
ATOM     25  C   LIG    1       -0.986  10.742   5.376  0.00  0.00    -0.018 C 
ATOM     26  C   LIG    1       -1.895   9.539   5.118  0.00  0.00    -0.075 C 
ENDBRANCH  13  20
BRANCH  19  27
ATOM     27  N   LIG    1        0.522   0.107   0.733  0.00  0.00    +0.384 N 
ATOM     28  H   LIG    1        0.699   1.108   0.590  0.00  0.00    -0.081 HD
ATOM     29  C   LIG    1        1.036  -0.286   2.062  0.00  0.00    -0.078 C 
ATOM     30  C   LIG    1        2.517   0.088   2.153  0.00  0.00    -0.019 C 
ATOM     31  C   LIG    1        3.293  -0.653   1.061  0.00  0.00    -0.004 C 
ATOM     32  C   LIG    1        2.703  -0.295  -0.306  0.00  0.00    -0.019 C 
ATOM     33  C   LIG    1        1.216  -0.657  -0.325  0.00  0.00    -0.078 C 
ENDBRANCH  19  27
BRANCH   1  34
ATOM     34  O   LIG    1       -2.835  -0.169  -0.859  0.00  0.00    -0.463 OA
BRANCH  34  36
ATOM     35  C   LIG    1       -4.798  -0.902  -2.164  0.00  0.00    +0.136 C 
ATOM     36  C   LIG    1       -3.319  -0.656  -2.013  0.00  0.00    +0.304 C 
ATOM     37  O   LIG    1       -2.570  -0.897  -2.929  0.00  0.00    -0.251 OA
ENDBRANCH  34  36
ENDBRANCH   1  34
BRANCH  12  38
ATOM     38  O   LIG    1       -1.427   7.127   5.632  0.00  0.00    -0.463 OA
BRANCH  38  39
ATOM     39  C   LIG    1       -1.874   7.205   6.896  0.00  0.00    +0.304 C 
ATOM     40  C   LIG    1       -0.962   7.703   7.987  0.00  0.00    +0.136 C 
ATOM     41  O   LIG    1       -3.007   6.877   7.158  0.00  0.00    -0.251 OA
ENDBRANCH  38  39
ENDBRANCH  12  38
TORSDOF 6
