REMARK  Name = ZINC04746497
REMARK                            x       y       z     vdW  Elec       q    Type
REMARK                         _______ _______ _______ _____ _____    ______ ____
ROOT
ATOM      1  C   LIG    1        1.278   3.644   0.006  0.00  0.00    +0.100 C 
ENDROOT
BRANCH   1   2
ATOM      2  C   LIG    1        2.247   3.388  -1.120  0.00  0.00    +0.092 A 
ATOM      3  C   LIG    1        2.537   2.067  -1.520  0.00  0.00    +0.200 A 
ATOM      4  C   LIG    1        3.496   1.889  -2.629  0.00  0.00    +0.065 A 
ATOM      5  C   LIG    1        3.843   0.622  -3.092  0.00  0.00    +0.015 A 
ATOM      6  C   LIG    1        4.741   0.499  -4.130  0.00  0.00    +0.001 A 
ATOM      7  C   LIG    1        5.297   1.630  -4.711  0.00  0.00    +0.004 A 
ATOM      8  C   LIG    1        4.960   2.889  -4.262  0.00  0.00    +0.047 A 
ATOM      9  C   LIG    1        4.057   3.033  -3.216  0.00  0.00    +0.143 A 
ATOM     10  O   LIG    1        3.713   4.257  -2.761  0.00  0.00    -0.425 OA
ATOM     11  O   LIG    1        2.018   1.109  -0.971  0.00  0.00    -0.287 OA
ATOM     12  C   LIG    1        2.842   4.428  -1.759  0.00  0.00    +0.292 A 
BRANCH  12  13
ATOM     13  O   LIG    1        2.546   5.685  -1.366  0.00  0.00    -0.480 OA
ATOM     14  H   LIG    1        3.016   6.544  -1.869  0.00  0.00    +0.295 HD
ENDBRANCH  12  13
ENDBRANCH   1   2
BRANCH   1  15
ATOM     15  C   LIG    1        0.035   2.817  -0.203  0.00  0.00    +0.092 A 
ATOM     16  C   LIG    1       -0.279   1.769   0.688  0.00  0.00    +0.200 A 
ATOM     17  C   LIG    1       -1.512   1.000   0.423  0.00  0.00    +0.065 A 
ATOM     18  C   LIG    1       -1.902  -0.051   1.249  0.00  0.00    +0.015 A 
ATOM     19  C   LIG    1       -3.060  -0.743   0.968  0.00  0.00    +0.001 A 
ATOM     20  C   LIG    1       -3.833  -0.396  -0.130  0.00  0.00    +0.004 A 
ATOM     21  C   LIG    1       -3.457   0.643  -0.955  0.00  0.00    +0.047 A 
ATOM     22  C   LIG    1       -2.293   1.353  -0.688  0.00  0.00    +0.143 A 
ATOM     23  O   LIG    1       -1.906   2.374  -1.482  0.00  0.00    -0.425 OA
ATOM     24  O   LIG    1        0.437   1.512   1.642  0.00  0.00    -0.287 OA
ATOM     25  C   LIG    1       -0.791   3.077  -1.250  0.00  0.00    +0.292 A 
BRANCH  25  26
ATOM     26  O   LIG    1       -0.473   4.084  -2.091  0.00  0.00    -0.480 OA
ATOM     27  H   LIG    1       -1.127   4.313  -2.946  0.00  0.00    +0.295 HD
ENDBRANCH  25  26
ENDBRANCH   1  15
BRANCH   1  31
ATOM     28  C   LIG    1        3.094   2.570   3.720  0.00  0.00    +0.000 A 
ATOM     29  C   LIG    1        2.054   3.481   3.697  0.00  0.00    +0.000 A 
ATOM     30  C   LIG    1        1.467   3.828   2.495  0.00  0.00    +0.004 A 
ATOM     31  C   LIG    1        1.919   3.265   1.316  0.00  0.00    -0.035 A 
ATOM     32  C   LIG    1        2.954   2.350   1.340  0.00  0.00    +0.004 A 
ATOM     33  C   LIG    1        3.545   2.006   2.542  0.00  0.00    +0.000 A 
ENDBRANCH   1  31
TORSDOF 5
