REMARK  Name = ZINC04582701
REMARK                            x       y       z     vdW  Elec       q    Type
REMARK                         _______ _______ _______ _____ _____    ______ ____
ROOT
ATOM      1  C   LIG    1        0.022  -0.514   1.420  0.00  0.00    +0.108 C 
ATOM      2  N   LIG    1       -0.871  -1.341   1.816  0.00  0.00    -0.193 NA
ENDROOT
BRANCH   2   3
ATOM      3  N   LIG    1       -0.852  -1.815   3.134  0.00  0.00    -0.219 N 
ATOM      4  H   LIG    1       -0.162  -1.517   3.747  0.00  0.00    +0.176 HD
BRANCH   3   5
ATOM      5  C   LIG    1       -1.792  -2.686   3.550  0.00  0.00    +0.147 C 
ATOM      6  S   LIG    1       -1.769  -3.265   5.161  0.00  0.00    -0.017 S 
BRANCH   5   7
ATOM      7  N   LIG    1       -2.751  -3.101   2.699  0.00  0.00    -0.339 N 
ATOM      8  H   LIG    1       -3.428  -3.728   2.998  0.00  0.00    +0.144 HD
ATOM      9  H   LIG    1       -2.764  -2.773   1.786  0.00  0.00    +0.144 HD
ENDBRANCH   5   7
ENDBRANCH   3   5
ENDBRANCH   2   3
BRANCH   1  10
ATOM     10  C   LIG    1        0.002  -0.004   0.002  0.00  0.00    +0.084 C 
BRANCH  10  14
ATOM     11  C   LIG    1       -0.056   4.267   0.025  0.00  0.00    +0.000 A 
ATOM     12  C   LIG    1        1.151   3.592   0.010  0.00  0.00    +0.000 A 
ATOM     13  C   LIG    1        1.169   2.210   0.003  0.00  0.00    +0.004 A 
ATOM     14  C   LIG    1       -0.018   1.503   0.010  0.00  0.00    -0.042 A 
ATOM     15  C   LIG    1       -1.225   2.178   0.020  0.00  0.00    +0.004 A 
ATOM     16  C   LIG    1       -1.244   3.560   0.032  0.00  0.00    +0.000 A 
ENDBRANCH  10  14
ENDBRANCH   1  10
TORSDOF 5
