REMARK  Name = ZINC04475360
REMARK                            x       y       z     vdW  Elec       q    Type
REMARK                         _______ _______ _______ _____ _____    ______ ____
ROOT
ATOM      1  C   LIG    1       -0.038  -0.717  -1.278  0.00  0.00    -0.022 A 
ATOM      2  C   LIG    1        1.224  -1.111  -1.731  0.00  0.00    +0.008 A 
ATOM      3  C   LIG    1        1.343  -1.745  -2.946  0.00  0.00    +0.005 A 
ATOM      4  C   LIG    1        0.221  -2.000  -3.728  0.00  0.00    -0.038 A 
ATOM      5  C   LIG    1       -1.027  -1.619  -3.286  0.00  0.00    -0.037 A 
ATOM      6  C   LIG    1       -2.283  -1.880  -4.077  0.00  0.00    -0.010 C 
ATOM      7  C   LIG    1       -3.184  -0.645  -4.016  0.00  0.00    +0.016 C 
ATOM      8  C   LIG    1       -3.022  -3.074  -3.471  0.00  0.00    +0.016 C 
ATOM      9  C   LIG    1       -1.945  -2.184  -5.535  0.00  0.00    +0.012 C 
ATOM     10  C   LIG    1       -0.876  -3.283  -5.565  0.00  0.00    +0.012 C 
ATOM     11  C   LIG    1        0.435  -2.692  -5.050  0.00  0.00    -0.010 C 
ATOM     12  C   LIG    1        1.458  -3.816  -4.871  0.00  0.00    +0.016 C 
ATOM     13  C   LIG    1        0.968  -1.682  -6.068  0.00  0.00    +0.016 C 
ATOM     14  C   LIG    1       -1.160  -0.981  -2.063  0.00  0.00    +0.012 A 
ENDROOT
BRANCH   1  16
ATOM     15  C   LIG    1       -0.673   1.390   0.071  0.00  0.00    +0.044 C 
ATOM     16  C   LIG    1       -0.182  -0.034   0.019  0.00  0.00    -0.043 C 
ATOM     17  C   LIG    1        0.124  -0.681   1.157  0.00  0.00    +0.012 C 
BRANCH  17  18
ATOM     18  C   LIG    1        0.126   0.044   2.438  0.00  0.00    -0.025 A 
ATOM     19  C   LIG    1       -0.263  -0.610   3.613  0.00  0.00    +0.009 A 
ATOM     20  C   LIG    1       -0.261   0.062   4.801  0.00  0.00    +0.015 A 
ATOM     21  C   LIG    1        0.130   1.405   4.844  0.00  0.00    +0.059 A 
ATOM     22  C   LIG    1        0.519   2.059   3.669  0.00  0.00    +0.015 A 
ATOM     23  C   LIG    1        0.523   1.385   2.482  0.00  0.00    +0.009 A 
BRANCH  21  24
ATOM     24  C   LIG    1        0.132   2.131   6.126  0.00  0.00    +0.337 C 
ATOM     25  O   LIG    1       -0.209   1.559   7.152  0.00  0.00    -0.245 OA
BRANCH  24  26
ATOM     26  O   LIG    1        0.474   3.305   6.163  0.00  0.00    -0.477 OA
ATOM     27  H   LIG    1        0.734   3.742   5.377  0.00  0.00    +0.295 HD
ENDBRANCH  24  26
ENDBRANCH  21  24
ENDBRANCH  17  18
ENDBRANCH   1  16
TORSDOF 4
