REMARK  Name = ZINC04679058
REMARK                            x       y       z     vdW  Elec       q    Type
REMARK                         _______ _______ _______ _____ _____    ______ ____
ROOT
ATOM      1  C   LIG    1        1.067   1.657  -0.413  0.00  0.00    +0.135 C 
ATOM      2  S   LIG    1        0.881   3.251  -1.010  0.00  0.00    -0.019 S 
ENDROOT
BRANCH   1   3
ATOM      3  N   LIG    1       -0.011   0.966   0.007  0.00  0.00    -0.297 N 
ATOM      4  H   LIG    1        0.085   0.042   0.288  0.00  0.00    +0.154 HD
BRANCH   3  11
ATOM      5  C   LIG    1       -2.094   1.426   1.140  0.00  0.00    +0.025 A 
ATOM      6  C   LIG    1       -3.333   2.037   1.165  0.00  0.00    +0.022 A 
ATOM      7  C   LIG    1       -3.757   2.790   0.084  0.00  0.00    +0.041 A 
ATOM      8 CL   LIG    1       -5.317   3.550   0.117  0.00  0.00    -0.084 Cl
ATOM      9  C   LIG    1       -2.939   2.938  -1.022  0.00  0.00    +0.022 A 
ATOM     10  C   LIG    1       -1.697   2.334  -1.050  0.00  0.00    +0.025 A 
ATOM     11  C   LIG    1       -1.269   1.578   0.033  0.00  0.00    +0.033 A 
ENDBRANCH   3  11
ENDBRANCH   1   3
BRANCH   1  12
ATOM     12  N   LIG    1        2.290   1.095  -0.363  0.00  0.00    -0.326 N 
ATOM     13  H   LIG    1        2.395   0.192  -0.024  0.00  0.00    +0.148 HD
BRANCH  12  14
ATOM     14  C   LIG    1        3.462   1.847  -0.819  0.00  0.00    +0.105 C 
BRANCH  14  15
ATOM     15  C   LIG    1        4.716   0.985  -0.657  0.00  0.00    +0.040 C 
BRANCH  15  16
ATOM     16  C   LIG    1        5.939   1.770  -1.134  0.00  0.00    +0.124 C 
BRANCH  16  17
ATOM     17  N   LIG    1        7.140   0.945  -0.978  0.00  0.00    -0.337 N 
ATOM     18  C   LIG    1        7.950   0.890   0.124  0.00  0.00    +0.106 A 
ATOM     19  C   LIG    1        8.929   0.008  -0.156  0.00  0.00    +0.130 A 
ATOM     20  N   LIG    1        8.727  -0.455  -1.399  0.00  0.00    -0.244 NA
ATOM     21  C   LIG    1        7.657   0.102  -1.897  0.00  0.00    +0.199 A 
ENDBRANCH  16  17
ENDBRANCH  15  16
ENDBRANCH  14  15
ENDBRANCH  12  14
ENDBRANCH   1  12
TORSDOF 7
