REMARK  Name = ZINC04262475
REMARK                            x       y       z     vdW  Elec       q    Type
REMARK                         _______ _______ _______ _____ _____    ______ ____
ROOT
ATOM      1  C   LIG    1       -2.221   1.842  -1.198  0.00  0.00    +0.036 C 
ATOM      2  C   LIG    1       -2.568   0.967   0.008  0.00  0.00    +0.007 C 
ATOM      3  C   LIG    1       -1.290   1.808   0.016  0.00  0.00    +0.108 C 
ENDROOT
BRANCH   1   7
ATOM      4  C   LIG    1       -4.542   5.376  -1.804  0.00  0.00    +0.000 A 
ATOM      5  C   LIG    1       -4.435   4.438  -2.814  0.00  0.00    +0.000 A 
ATOM      6  C   LIG    1       -3.684   3.295  -2.618  0.00  0.00    +0.004 A 
ATOM      7  C   LIG    1       -3.039   3.089  -1.412  0.00  0.00    -0.043 A 
ATOM      8  C   LIG    1       -3.151   4.025  -0.401  0.00  0.00    +0.004 A 
ATOM      9  C   LIG    1       -3.898   5.171  -0.598  0.00  0.00    +0.000 A 
ENDBRANCH   1   7
BRANCH   3  10
ATOM     10  C   LIG    1        0.022   1.081  -0.133  0.00  0.00    +0.309 C 
ATOM     11  O   LIG    1        0.036  -0.121  -0.254  0.00  0.00    -0.251 OA
BRANCH  10  12
ATOM     12  O   LIG    1        1.174   1.770  -0.138  0.00  0.00    -0.480 OA
ATOM     13  H   LIG    1        1.163   2.703  -0.045  0.00  0.00    +0.295 HD
ENDBRANCH  10  12
ENDBRANCH   3  10
BRANCH   2  14
ATOM     14  CA  LIG    1       -3.721   1.425   0.904  0.00  0.00    +0.040 C 
BRANCH  14  15
ATOM     15  N   LIG    1       -3.264   1.566   2.298  0.00  0.00    +0.387 N 
ATOM     16  H1  LIG    1       -4.073   1.754   2.901  0.00  0.00    -0.089 HD
ATOM     17  H2  LIG    1       -2.606   2.340   2.373  0.00  0.00    -0.089 HD
ATOM     18  H3  LIG    1       -2.812   0.706   2.606  0.00  0.00    -0.089 HD
ENDBRANCH  14  15
BRANCH  14  19
ATOM     19  C   LIG    1       -4.830   0.406   0.855  0.00  0.00    +0.290 C 
ATOM     20  O   LIG    1       -4.950  -0.400   1.748  0.00  0.00    -0.253 OA
BRANCH  19  21
ATOM     21  OXT LIG    1       -5.684   0.393  -0.180  0.00  0.00    -0.482 OA
ATOM     22  HXT LIG    1       -5.591   1.017  -0.872  0.00  0.00    +0.295 HD
ENDBRANCH  19  21
ENDBRANCH  14  19
ENDBRANCH   2  14
TORSDOF 7
