REMARK  Name = ZINC04695499
REMARK                            x       y       z     vdW  Elec       q    Type
REMARK                         _______ _______ _______ _____ _____    ______ ____
ROOT
ATOM      1  C   LIG    1       -0.813   1.405   0.168  0.00  0.00    +0.000 A 
ATOM      2  C   LIG    1        0.446   0.886   0.413  0.00  0.00    +0.001 A 
ATOM      3  C   LIG    1        1.541   1.725   0.435  0.00  0.00    +0.012 A 
ATOM      4  C   LIG    1        1.372   3.092   0.211  0.00  0.00    +0.025 A 
ATOM      5  C   LIG    1        0.106   3.615  -0.038  0.00  0.00    -0.036 A 
ATOM      6  C   LIG    1       -0.129   5.075  -0.306  0.00  0.00    +0.040 C 
ATOM      7  C   LIG    1        0.965   5.952   0.299  0.00  0.00    +0.043 C 
ATOM      8  C   LIG    1        2.314   5.398  -0.119  0.00  0.00    +0.001 C 
ATOM      9  C   LIG    1        3.228   6.140  -0.781  0.00  0.00    +0.016 C 
ATOM     10  C   LIG    1        2.557   3.989   0.253  0.00  0.00    +0.189 C 
ATOM     11  O   LIG    1        3.660   3.586   0.573  0.00  0.00    -0.287 OA
ATOM     12  C   LIG    1       -0.983   2.758  -0.050  0.00  0.00    +0.004 A 
ENDROOT
BRANCH   9  13
ATOM     13  C   LIG    1        3.010   7.582  -0.967  0.00  0.00    -0.007 A 
ATOM     14  C   LIG    1        3.432   8.223  -2.142  0.00  0.00    +0.011 A 
ATOM     15  C   LIG    1        3.198   9.580  -2.268  0.00  0.00    +0.020 A 
ATOM     16  C   LIG    1        2.570  10.259  -1.238  0.00  0.00    +0.111 A 
ATOM     17  N   LIG    1        2.187   9.632  -0.141  0.00  0.00    -0.263 NA
ATOM     18  C   LIG    1        2.382   8.341   0.026  0.00  0.00    +0.118 A 
ENDBRANCH   9  13
TORSDOF 1
