REMARK  Name = ZINC04163035
REMARK                            x       y       z     vdW  Elec       q    Type
REMARK                         _______ _______ _______ _____ _____    ______ ____
ROOT
ATOM      1  C   LIG    1       -1.111   3.954   1.048  0.00  0.00    +0.115 C 
ATOM      2  C   LIG    1       -0.203   4.399   2.197  0.00  0.00    +0.018 C 
ATOM      3  C   LIG    1        0.073   5.900   2.081  0.00  0.00    +0.020 C 
ATOM      4  C   LIG    1        0.793   6.182   0.758  0.00  0.00    +0.108 C 
ATOM      5  N   LIG    1       -0.006   5.628  -0.343  0.00  0.00    -0.294 N 
ATOM      6  C   LIG    1       -0.368   6.401  -1.385  0.00  0.00    +0.287 C 
ATOM      7  O   LIG    1       -0.846   5.895  -2.380  0.00  0.00    -0.266 OA
ATOM      8  C   LIG    1       -0.404   4.214  -0.286  0.00  0.00    +0.122 C 
ENDROOT
BRANCH   1   9
ATOM      9  C   LIG    1       -1.407   2.483   1.181  0.00  0.00    +0.312 C 
ATOM     10  O   LIG    1       -0.940   1.853   2.101  0.00  0.00    -0.250 OA
BRANCH   9  11
ATOM     11  O   LIG    1       -2.190   1.871   0.279  0.00  0.00    -0.465 OA
BRANCH  11  13
ATOM     12  C   LIG    1       -3.339  -0.065  -0.649  0.00  0.00    +0.048 C 
ATOM     13  C   LIG    1       -2.433   0.453   0.470  0.00  0.00    +0.229 C 
ENDBRANCH  11  13
ENDBRANCH   9  11
ENDBRANCH   1   9
BRANCH   6  14
ATOM     14  C   LIG    1       -0.182   7.880  -1.317  0.00  0.00    +0.249 C 
ATOM     15  O   LIG    1        0.937   8.349  -1.256  0.00  0.00    -0.282 OA
BRANCH  14  16
ATOM     16  C   LIG    1       -1.346   8.764  -1.323  0.00  0.00    +0.052 A 
ATOM     17  C   LIG    1       -2.675   8.388  -1.387  0.00  0.00    +0.095 A 
ATOM     18  N   LIG    1       -3.455   9.484  -1.371  0.00  0.00    -0.360 N 
ATOM     19  C   LIG    1       -2.688  10.630  -1.295  0.00  0.00    +0.047 A 
ATOM     20  C   LIG    1       -3.006  11.983  -1.251  0.00  0.00    +0.026 A 
ATOM     21  C   LIG    1       -2.001  12.924  -1.175  0.00  0.00    +0.002 A 
ATOM     22  C   LIG    1       -0.670  12.535  -1.142  0.00  0.00    +0.001 A 
ATOM     23  C   LIG    1       -0.335  11.199  -1.186  0.00  0.00    +0.011 A 
ATOM     24  H   LIG    1       -4.424   9.471  -1.406  0.00  0.00    +0.165 HD
ATOM     25  C   LIG    1       -1.340  10.239  -1.256  0.00  0.00    +0.011 A 
ENDBRANCH  14  16
ENDBRANCH   6  14
TORSDOF 5
