REMARK  Name = ZINC04214717
REMARK                            x       y       z     vdW  Elec       q    Type
REMARK                         _______ _______ _______ _____ _____    ______ ____
ROOT
ATOM      1  C   LIG    1        7.172  -0.558  -1.183  0.00  0.00    +0.008 C 
ATOM      2  C   LIG    1        7.144   0.507  -0.083  0.00  0.00    -0.006 C 
ATOM      3  C   LIG    1        5.813   1.260  -0.144  0.00  0.00    -0.078 C 
ATOM      4  N   LIG    1        4.708   0.300   0.065  0.00  0.00    +0.380 N 
ATOM      5  H   LIG    1        4.857  -0.192   0.954  0.00  0.00    -0.082 HD
ATOM      6  C   LIG    1        4.683  -0.691  -1.032  0.00  0.00    -0.078 C 
ATOM      7  C   LIG    1        5.980  -1.502  -0.998  0.00  0.00    -0.006 C 
ENDROOT
BRANCH   1   8
ATOM      8  C   LIG    1        8.456  -1.342  -1.091  0.00  0.00    -0.040 A 
ATOM      9  C   LIG    1        9.358  -1.075  -0.079  0.00  0.00    +0.004 A 
ATOM     10  C   LIG    1       10.534  -1.798   0.008  0.00  0.00    +0.000 A 
ATOM     11  C   LIG    1       10.812  -2.780  -0.924  0.00  0.00    +0.000 A 
ATOM     12  C   LIG    1        9.912  -3.043  -1.940  0.00  0.00    +0.000 A 
ATOM     13  C   LIG    1        8.734  -2.325  -2.023  0.00  0.00    +0.004 A 
ENDBRANCH   1   8
BRANCH   1  14
ATOM     14  C   LIG    1        7.082   0.117  -2.552  0.00  0.00    +0.115 C 
BRANCH  14  17
ATOM     15  C   LIG    1        9.540   2.640  -4.051  0.00  0.00    +0.109 C 
ATOM     16  C   LIG    1        8.339   1.753  -3.849  0.00  0.00    +0.210 C 
ATOM     17  N   LIG    1        8.250   0.979  -2.749  0.00  0.00    -0.315 N 
ATOM     18  H   LIG    1        8.960   0.993  -2.088  0.00  0.00    +0.149 HD
ATOM     19  O   LIG    1        7.451   1.736  -4.675  0.00  0.00    -0.276 OA
ENDBRANCH  14  17
ENDBRANCH   1  14
BRANCH   4  20
ATOM     20  C   LIG    1        3.419   1.019   0.124  0.00  0.00    -0.078 C 
BRANCH  20  21
ATOM     21  C   LIG    1        2.276   0.004   0.063  0.00  0.00    -0.011 C 
BRANCH  21  22
ATOM     22  C   LIG    1        0.937   0.739   0.152  0.00  0.00    +0.078 C 
BRANCH  22  23
ATOM     23  C   LIG    1       -0.190  -0.261   0.091  0.00  0.00    +0.163 C 
ATOM     24  O   LIG    1        0.055  -1.444  -0.013  0.00  0.00    -0.292 OA
BRANCH  23  25
ATOM     25  C   LIG    1       -1.585   0.199   0.153  0.00  0.00    +0.018 A 
ATOM     26  C   LIG    1       -1.870   1.563   0.280  0.00  0.00    +0.014 A 
ATOM     27  C   LIG    1       -3.179   1.988   0.330  0.00  0.00    +0.039 A 
ATOM     28  C   LIG    1       -4.214   1.066   0.268  0.00  0.00    +0.123 A 
ATOM     29  F   LIG    1       -5.496   1.488   0.324  0.00  0.00    -0.205 F 
ATOM     30  C   LIG    1       -3.938  -0.288   0.149  0.00  0.00    +0.039 A 
ATOM     31  C   LIG    1       -2.633  -0.726   0.091  0.00  0.00    +0.014 A 
ENDBRANCH  23  25
ENDBRANCH  22  23
ENDBRANCH  21  22
ENDBRANCH  20  21
ENDBRANCH   4  20
TORSDOF 8
