REMARK  Name = ZINC04668073
REMARK                            x       y       z     vdW  Elec       q    Type
REMARK                         _______ _______ _______ _____ _____    ______ ____
ROOT
ATOM      1  C   LIG    1       -0.108   1.035   2.334  0.00  0.00    +0.127 A 
ATOM      2  C   LIG    1        0.962   0.169   2.254  0.00  0.00    +0.066 A 
ATOM      3  C   LIG    1        1.506  -0.351   3.428  0.00  0.00    +0.044 A 
ATOM      4  C   LIG    1        2.676  -1.298   3.357  0.00  0.00    +0.066 C 
ATOM      5  N   LIG    1        1.003  -0.018   4.598  0.00  0.00    -0.232 NA
ATOM      6  C   LIG    1       -0.034   0.820   4.692  0.00  0.00    +0.166 A 
ATOM      7  C   LIG    1       -0.744   1.326   5.788  0.00  0.00    +0.049 A 
ATOM      8  C   LIG    1       -1.740   2.170   5.282  0.00  0.00    +0.070 A 
ATOM      9  C   LIG    1       -2.744   2.934   6.107  0.00  0.00    +0.068 C 
ATOM     10  N   LIG    1       -1.656   2.188   3.975  0.00  0.00    -0.168 NA
ATOM     11  N   LIG    1       -0.602   1.363   3.569  0.00  0.00    -0.200 N 
ENDROOT
BRANCH   7  12
ATOM     12  C   LIG    1       -0.488   1.025   7.215  0.00  0.00    -0.012 A 
ATOM     13  C   LIG    1       -0.677  -0.268   7.702  0.00  0.00    +0.010 A 
ATOM     14  C   LIG    1       -0.432  -0.544   9.032  0.00  0.00    +0.020 A 
ATOM     15  C   LIG    1       -0.011   0.462   9.885  0.00  0.00    +0.041 A 
ATOM     16 CL   LIG    1        0.288   0.109  11.558  0.00  0.00    -0.084 Cl
ATOM     17  C   LIG    1        0.172   1.749   9.408  0.00  0.00    +0.020 A 
ATOM     18  C   LIG    1       -0.064   2.035   8.079  0.00  0.00    +0.010 A 
ENDBRANCH   7  12
BRANCH   1  19
ATOM     19  N   LIG    1       -0.668   1.566   1.192  0.00  0.00    -0.315 N 
BRANCH  19  20
ATOM     20  C   LIG    1        0.026   1.080  -0.009  0.00  0.00    +0.106 C 
BRANCH  20  22
ATOM     21  C   LIG    1        0.220  -0.821  -1.617  0.00  0.00    +0.005 C 
ATOM     22  C   LIG    1       -0.407  -0.357  -0.301  0.00  0.00    +0.016 C 
ENDBRANCH  20  22
ENDBRANCH  19  20
BRANCH  19  23
ATOM     23  C   LIG    1       -0.671   3.034   1.241  0.00  0.00    +0.106 C 
BRANCH  23  24
ATOM     24  C   LIG    1       -1.701   3.575   0.247  0.00  0.00    +0.016 C 
ATOM     25  C   LIG    1       -1.796   5.096   0.388  0.00  0.00    +0.005 C 
ENDBRANCH  23  24
ENDBRANCH  19  23
ENDBRANCH   1  19
TORSDOF 6
