REMARK  Name = ZINC04245632
REMARK                            x       y       z     vdW  Elec       q    Type
REMARK                         _______ _______ _______ _____ _____    ______ ____
ROOT
ATOM      1  C   LIG    1        0.601  -0.682  -1.045  0.00  0.00    +0.149 A 
ATOM      2  C   LIG    1        0.624  -2.087  -1.072  0.00  0.00    +0.147 A 
ATOM      3  C   LIG    1        1.246  -2.719  -2.162  0.00  0.00    +0.167 A 
ATOM      4  N   LIG    1        1.126  -4.067  -1.936  0.00  0.00    -0.286 N 
ATOM      5  C   LIG    1        0.459  -4.226  -0.758  0.00  0.00    +0.203 A 
ATOM      6  N   LIG    1        1.786  -1.973  -3.120  0.00  0.00    -0.216 NA
ATOM      7  C   LIG    1        1.740  -0.659  -3.053  0.00  0.00    +0.225 A 
ATOM      8  N   LIG    1        0.165  -3.064  -0.253  0.00  0.00    -0.231 NA
ATOM      9  N   LIG    1        1.162  -0.020  -2.051  0.00  0.00    -0.219 NA
ENDROOT
BRANCH   4  10
ATOM     10  C1* LIG    1        1.624  -5.139  -2.802  0.00  0.00    +0.253 C 
ATOM     11  C2* LIG    1        3.095  -5.465  -2.462  0.00  0.00    +0.195 C 
ATOM     12  C3* LIG    1        3.187  -6.999  -2.627  0.00  0.00    +0.178 C 
ATOM     13  C4* LIG    1        1.760  -7.418  -3.046  0.00  0.00    +0.177 C 
ATOM     14  O4* LIG    1        0.903  -6.365  -2.550  0.00  0.00    -0.346 OA
BRANCH  11  15
ATOM     15  O2* LIG    1        3.977  -4.808  -3.374  0.00  0.00    -0.385 OA
ATOM     16  H2* LIG    1        4.914  -4.979  -3.207  0.00  0.00    +0.210 HD
ENDBRANCH  11  15
BRANCH  12  17
ATOM     17  O3* LIG    1        4.131  -7.338  -3.644  0.00  0.00    -0.386 OA
ATOM     18  H3* LIG    1        4.228  -8.289  -3.789  0.00  0.00    +0.210 HD
ENDBRANCH  12  17
BRANCH  13  19
ATOM     19  C5* LIG    1        1.388  -8.757  -2.406  0.00  0.00    +0.190 C 
BRANCH  19  20
ATOM     20  O5* LIG    1        0.115  -9.182  -2.897  0.00  0.00    -0.392 OA
ATOM     21  H5* LIG    1       -0.184 -10.027  -2.534  0.00  0.00    +0.210 HD
ENDBRANCH  19  20
ENDBRANCH  13  19
ENDBRANCH   4  10
BRANCH   1  23
ATOM     22  C   LIG    1       -0.018   1.461   0.010  0.00  0.00    +0.127 C 
ATOM     23  N   LIG    1        0.002  -0.004   0.002  0.00  0.00    -0.330 N 
ATOM     24  H   LIG    1       -0.404  -0.499   0.731  0.00  0.00    +0.147 HD
ENDBRANCH   1  23
TORSDOF 6
