REMARK  Name = ZINC04102205
REMARK                            x       y       z     vdW  Elec       q    Type
REMARK                         _______ _______ _______ _____ _____    ______ ____
ROOT
ATOM      1  C   LIG    1        4.164  -1.758  -3.529  0.00  0.00    -0.096 C 
ATOM      2  N   LIG    1        3.717  -0.586  -2.752  0.00  0.00    +0.380 N 
ATOM      3  H   LIG    1        4.172   0.255  -3.127  0.00  0.00    -0.082 HD
ATOM      4  C   LIG    1        4.104  -0.745  -1.330  0.00  0.00    -0.060 C 
ATOM      5  C   LIG    1        3.519  -2.015  -0.736  0.00  0.00    +0.020 C 
ATOM      6  C   LIG    1        2.172  -1.817  -0.120  0.00  0.00    -0.041 A 
ATOM      7  C   LIG    1        1.410  -2.817   0.457  0.00  0.00    +0.007 A 
ATOM      8  C   LIG    1        0.194  -2.514   1.049  0.00  0.00    +0.049 A 
ATOM      9  C   LIG    1       -0.320  -1.221   1.121  0.00  0.00    +0.159 A 
ATOM     10  C   LIG    1        0.445  -0.201   0.546  0.00  0.00    +0.166 A 
ATOM     11  O   LIG    1        0.267   1.137   0.479  0.00  0.00    -0.481 OA
ATOM     12  C   LIG    1        1.566   1.757   0.207  0.00  0.00    +0.213 C 
ATOM     13  C   LIG    1        2.242   1.935   1.558  0.00  0.00    +0.156 C 
ATOM     14  C   LIG    1        3.743   1.763   1.558  0.00  0.00    +0.035 C 
ATOM     15  C   LIG    1        4.162   0.461   0.876  0.00  0.00    +0.005 C 
ATOM     16  C   LIG    1        2.223   0.705  -0.670  0.00  0.00    +0.039 C 
ATOM     17  C   LIG    1        1.802   0.835  -2.135  0.00  0.00    -0.003 C 
ATOM     18  C   LIG    1        1.625  -0.556  -0.092  0.00  0.00    +0.011 A 
ATOM     19  C   LIG    1        3.729   0.536  -0.585  0.00  0.00    -0.010 C 
ATOM     20  C   LIG    1        2.249  -0.430  -2.878  0.00  0.00    -0.078 C 
ENDROOT
BRANCH   9  21
ATOM     21  O   LIG    1       -1.512  -0.963   1.724  0.00  0.00    -0.503 OA
ATOM     22  H   LIG    1       -2.272  -1.010   1.128  0.00  0.00    +0.292 HD
ENDBRANCH   9  21
BRANCH  13  23
ATOM     23  O   LIG    1        1.683   0.988   2.472  0.00  0.00    -0.388 OA
ATOM     24  H   LIG    1        1.993   1.090   3.382  0.00  0.00    +0.210 HD
ENDBRANCH  13  23
TORSDOF 2
