REMARK  Name = ZINC04749745
REMARK                            x       y       z     vdW  Elec       q    Type
REMARK                         _______ _______ _______ _____ _____    ______ ____
ROOT
ATOM      1  C   LIG    1        2.620  -4.182   0.288  0.00  0.00    +0.251 C 
ATOM      2  N   LIG    1        3.825  -4.750   0.492  0.00  0.00    -0.311 N 
ATOM      3  H   LIG    1        4.609  -4.193   0.617  0.00  0.00    +0.149 HD
ATOM      4  O   LIG    1        1.637  -4.881   0.132  0.00  0.00    -0.270 OA
ENDROOT
BRANCH   1  11
ATOM      5  C   LIG    1       -0.016   1.361   0.009  0.00  0.00    +0.001 A 
ATOM      6  C   LIG    1        1.169   2.083   0.002  0.00  0.00    +0.004 A 
ATOM      7  C   LIG    1        2.386   1.435  -0.026  0.00  0.00    +0.047 A 
ATOM      8  C   LIG    1        2.430   0.048  -0.040  0.00  0.00    +0.139 A 
ATOM      9  C   LIG    1        1.229  -0.684  -0.003  0.00  0.00    +0.018 A 
ATOM     10  C   LIG    1        1.266  -2.102   0.048  0.00  0.00    +0.031 A 
ATOM     11  C   LIG    1        2.494  -2.716   0.256  0.00  0.00    +0.122 A 
ATOM     12  C   LIG    1        3.666  -1.841   0.442  0.00  0.00    +0.350 A 
ATOM     13  O   LIG    1        4.642  -2.222   1.060  0.00  0.00    -0.244 OA
ATOM     14  O   LIG    1        3.619  -0.600  -0.096  0.00  0.00    -0.422 OA
ATOM     15  C   LIG    1        0.002  -0.004   0.002  0.00  0.00    +0.011 A 
ENDBRANCH   1  11
BRANCH   2  16
ATOM     16  C   LIG    1        3.951  -6.210   0.525  0.00  0.00    +0.109 C 
BRANCH  16  17
ATOM     17  C   LIG    1        5.413  -6.590   0.769  0.00  0.00    +0.054 C 
BRANCH  17  18
ATOM     18  C   LIG    1        5.542  -8.091   0.803  0.00  0.00    -0.046 A 
ATOM     19  C   LIG    1        5.401  -8.771   1.999  0.00  0.00    +0.005 A 
ATOM     20  C   LIG    1        5.519 -10.147   2.030  0.00  0.00    +0.029 A 
ATOM     21  C   LIG    1        5.779 -10.845   0.865  0.00  0.00    +0.105 A 
ATOM     22  C   LIG    1        5.919 -10.166  -0.331  0.00  0.00    +0.029 A 
ATOM     23  C   LIG    1        5.796  -8.789  -0.362  0.00  0.00    +0.005 A 
BRANCH  21  24
ATOM     24  S   LIG    1        5.931 -12.600   0.905  0.00  0.00    +0.056 S 
ATOM     25  O   LIG    1        6.300 -12.946   2.233  0.00  0.00    -0.153 OA
ATOM     26  O   LIG    1        6.715 -12.965  -0.223  0.00  0.00    -0.153 OA
BRANCH  24  27
ATOM     27  N   LIG    1        4.420 -13.229   0.654  0.00  0.00    -0.204 NA
ATOM     28  H   LIG    1        3.636 -12.736   0.943  0.00  0.00    +0.144 HD
ATOM     29  H   LIG    1        4.319 -14.089   0.217  0.00  0.00    +0.144 HD
ENDBRANCH  24  27
ENDBRANCH  21  24
ENDBRANCH  17  18
ENDBRANCH  16  17
ENDBRANCH   2  16
TORSDOF 6
