REMARK  Name = ZINC04598916
REMARK                            x       y       z     vdW  Elec       q    Type
REMARK                         _______ _______ _______ _____ _____    ______ ____
ROOT
ATOM      1  CA  LEU A  1        1.146   1.476   0.007  0.00  0.00    +0.162 C 
ENDROOT
BRANCH   1   2
ATOM      2  N   LEU A  1       -0.056   0.638   0.017  0.00  0.00    -0.270 N 
ATOM      3  H   LEU A  1        0.027  -0.329   0.017  0.00  0.00    +0.153 HD
ATOM      4  C   UNK A  0       -1.276   1.210   0.022  0.00  0.00    +0.401 C 
ATOM      5  O   UNK A  0       -1.379   2.420   0.024  0.00  0.00    -0.226 OA
BRANCH   4   6
ATOM      6  O   UNK A  0       -2.380   0.440   0.026  0.00  0.00    -0.446 OA
BRANCH   6   7
ATOM      7  C   UNK A  0       -3.661   1.124   0.032  0.00  0.00    +0.269 C 
BRANCH   7   8
ATOM      8  C   UNK A  0       -4.774   0.107   0.035  0.00  0.00    -0.010 A 
ATOM      9  C   UNK A  0       -5.292  -0.354  -1.160  0.00  0.00    +0.007 A 
ATOM     10  C   UNK A  0       -6.310  -1.290  -1.157  0.00  0.00    +0.000 A 
ATOM     11  C   UNK A  0       -6.815  -1.757   0.042  0.00  0.00    +0.000 A 
ATOM     12  C   UNK A  0       -6.300  -1.292   1.237  0.00  0.00    +0.000 A 
ATOM     13  C   UNK A  0       -5.279  -0.360   1.234  0.00  0.00    +0.007 A 
ENDBRANCH   7   8
ENDBRANCH   6   7
ENDBRANCH   4   6
ENDBRANCH   1   2
BRANCH   1  14
ATOM     14  C   LEU A  1        2.289   0.707  -0.603  0.00  0.00    +0.234 C 
ATOM     15  N   LEU A  2        3.503   1.282  -0.718  0.00  0.00    -0.301 N 
ATOM     16  H   LEU A  2        3.641   2.190  -0.407  0.00  0.00    +0.150 HD
ATOM     17  O   LEU A  1        2.117  -0.429  -0.992  0.00  0.00    -0.274 OA
BRANCH  15  18
ATOM     18  CA  LEU A  2        4.614   0.534  -1.311  0.00  0.00    +0.182 C 
BRANCH  18  19
ATOM     19  C   LEU A  2        4.568   0.671  -2.811  0.00  0.00    +0.325 C 
ATOM     20  O   LEU A  2        3.696   1.327  -3.331  0.00  0.00    -0.249 OA
BRANCH  19  21
ATOM     21  OXT LEU A  2        5.495   0.066  -3.570  0.00  0.00    -0.479 OA
ATOM     22  HXT LEU A  2        6.172  -0.442  -3.167  0.00  0.00    +0.295 HD
ENDBRANCH  19  21
ENDBRANCH  18  19
BRANCH  18  23
ATOM     23  CB  LEU A  2        5.940   1.091  -0.789  0.00  0.00    +0.036 C 
BRANCH  23  24
ATOM     24  CG  LEU A  2        6.040   0.843   0.718  0.00  0.00    -0.015 C 
ATOM     25  CD2 LEU A  2        7.294   1.527   1.265  0.00  0.00    +0.007 C 
ATOM     26  CD1 LEU A  2        6.123  -0.661   0.982  0.00  0.00    +0.007 C 
ENDBRANCH  23  24
ENDBRANCH  18  23
ENDBRANCH  15  18
ENDBRANCH   1  14
BRANCH   1  27
ATOM     27  CB  LEU A  1        1.505   1.870   1.441  0.00  0.00    +0.035 C 
BRANCH  27  29
ATOM     28  CD1 LEU A  1        0.696   3.047   3.491  0.00  0.00    +0.007 C 
ATOM     29  CG  LEU A  1        0.399   2.756   2.019  0.00  0.00    -0.015 C 
ATOM     30  CD2 LEU A  1        0.340   4.071   1.240  0.00  0.00    +0.007 C 
ENDBRANCH  27  29
ENDBRANCH   1  27
TORSDOF 12
