REMARK  Name = ZINC04213008
REMARK                            x       y       z     vdW  Elec       q    Type
REMARK                         _______ _______ _______ _____ _____    ______ ____
ROOT
ATOM      1  C   LIG    1        6.248  -4.588   0.282  0.00  0.00    +0.199 C 
ENDROOT
BRANCH   1   2
ATOM      2  C   LIG    1        4.936  -3.832   0.068  0.00  0.00    +0.276 C 
BRANCH   2   3
ATOM      3  O   LIG    1        5.205  -2.434  -0.052  0.00  0.00    -0.447 OA
BRANCH   3   6
ATOM      4  N   LIG    1        4.333  -0.293  -0.368  0.00  0.00    -0.251 N 
ATOM      5  H   LIG    1        5.231   0.072  -0.394  0.00  0.00    +0.158 HD
ATOM      6  C   LIG    1        4.148  -1.622  -0.246  0.00  0.00    +0.405 C 
ATOM      7  O   LIG    1        3.028  -2.089  -0.312  0.00  0.00    -0.226 OA
BRANCH   4  11
ATOM      8  C   LIG    1        1.045   2.252  -0.631  0.00  0.00    +0.000 A 
ATOM      9  C   LIG    1        0.951   1.077   0.091  0.00  0.00    +0.002 A 
ATOM     10  C   LIG    1        2.039   0.231   0.180  0.00  0.00    +0.023 A 
ATOM     11  C   LIG    1        3.228   0.562  -0.457  0.00  0.00    +0.036 A 
ATOM     12  C   LIG    1        3.319   1.743  -1.181  0.00  0.00    +0.023 A 
ATOM     13  C   LIG    1        2.228   2.585  -1.266  0.00  0.00    +0.002 A 
ENDBRANCH   4  11
ENDBRANCH   3   6
ENDBRANCH   2   3
ENDBRANCH   1   2
BRANCH   1  14
ATOM     14  O   LIG    1        6.820  -4.204   1.534  0.00  0.00    -0.445 OA
BRANCH  14  15
ATOM     15  C   LIG    1        7.495  -5.151   2.214  0.00  0.00    +0.405 C 
ATOM     16  N   LIG    1        7.967  -4.886   3.448  0.00  0.00    -0.251 N 
ATOM     17  H   LIG    1        7.766  -4.038   3.873  0.00  0.00    +0.158 HD
ATOM     18  O   LIG    1        7.677  -6.243   1.715  0.00  0.00    -0.226 OA
BRANCH  16  19
ATOM     19  C   LIG    1        8.749  -5.836   4.117  0.00  0.00    +0.036 A 
ATOM     20  C   LIG    1        8.666  -5.957   5.497  0.00  0.00    +0.023 A 
ATOM     21  C   LIG    1        9.438  -6.895   6.154  0.00  0.00    +0.002 A 
ATOM     22  C   LIG    1       10.293  -7.713   5.438  0.00  0.00    +0.000 A 
ATOM     23  C   LIG    1       10.377  -7.595   4.063  0.00  0.00    +0.002 A 
ATOM     24  C   LIG    1        9.604  -6.662   3.400  0.00  0.00    +0.023 A 
ENDBRANCH  16  19
ENDBRANCH  14  15
ENDBRANCH   1  14
BRANCH   1  25
ATOM     25  C   LIG    1        7.222  -4.249  -0.849  0.00  0.00    -0.030 C 
BRANCH  25  26
ATOM     26  N   LIG    1        6.677  -4.730  -2.125  0.00  0.00    +0.382 N 
ATOM     27  H   LIG    1        5.747  -4.360  -2.253  0.00  0.00    -0.082 HD
ATOM     28  C   LIG    1        6.619  -6.197  -2.109  0.00  0.00    -0.079 C 
ATOM     29  C   LIG    1        5.977  -6.700  -3.403  0.00  0.00    -0.019 C 
ATOM     30  C   LIG    1        6.816  -6.234  -4.597  0.00  0.00    -0.004 C 
ATOM     31  C   LIG    1        6.932  -4.708  -4.562  0.00  0.00    -0.019 C 
ATOM     32  C   LIG    1        7.538  -4.278  -3.224  0.00  0.00    -0.079 C 
ENDBRANCH  25  26
ENDBRANCH   1  25
TORSDOF 9
