REMARK  Name = ZINC04671774
REMARK                            x       y       z     vdW  Elec       q    Type
REMARK                         _______ _______ _______ _____ _____    ______ ____
ROOT
ATOM      1  C   LIG    1        0.769  -5.286  -1.664  0.00  0.00    +0.220 C 
ATOM      2  N   LIG    1        0.768  -4.467  -0.593  0.00  0.00    -0.268 N 
ATOM      3  C   LIG    1        1.946  -3.825  -0.187  0.00  0.00    +0.041 A 
ATOM      4  C   LIG    1        3.163  -4.245  -0.713  0.00  0.00    +0.024 A 
ATOM      5  C   LIG    1        4.333  -3.621  -0.332  0.00  0.00    +0.002 A 
ATOM      6  C   LIG    1        4.294  -2.577   0.574  0.00  0.00    +0.000 A 
ATOM      7  C   LIG    1        3.087  -2.159   1.100  0.00  0.00    +0.007 A 
ATOM      8  C   LIG    1        1.908  -2.781   0.723  0.00  0.00    -0.005 A 
ATOM      9  C   LIG    1        0.610  -2.303   1.318  0.00  0.00    +0.115 C 
ATOM     10  C   LIG    1       -0.568  -2.726   0.441  0.00  0.00    +0.050 C 
ATOM     11  C   LIG    1       -0.467  -4.232   0.167  0.00  0.00    +0.081 C 
ATOM     12  C   LIG    1       -1.675  -4.693  -0.651  0.00  0.00    +0.028 C 
ATOM     13  O   LIG    1        1.744  -5.345  -2.382  0.00  0.00    -0.275 OA
ENDROOT
BRANCH   9  14
ATOM     14  N   LIG    1        0.634  -0.841   1.422  0.00  0.00    -0.264 N 
ATOM     15  C   LIG    1        0.888  -0.092   0.330  0.00  0.00    +0.217 C 
ATOM     16  C   LIG    1        1.032   1.402   0.459  0.00  0.00    +0.109 C 
ATOM     17  O   LIG    1        0.999  -0.622  -0.756  0.00  0.00    -0.276 OA
BRANCH  14  18
ATOM     18  C   LIG    1        0.396  -0.223   2.654  0.00  0.00    +0.037 A 
ATOM     19  C   LIG    1        1.419   0.456   3.302  0.00  0.00    +0.023 A 
ATOM     20  C   LIG    1        1.179   1.068   4.517  0.00  0.00    +0.002 A 
ATOM     21  C   LIG    1       -0.077   0.998   5.092  0.00  0.00    +0.000 A 
ATOM     22  C   LIG    1       -1.097   0.318   4.451  0.00  0.00    +0.002 A 
ATOM     23  C   LIG    1       -0.864  -0.292   3.235  0.00  0.00    +0.023 A 
ENDBRANCH  14  18
ENDBRANCH   9  14
BRANCH   1  24
ATOM     24  C   LIG    1       -0.443  -6.129  -1.968  0.00  0.00    +0.096 C 
BRANCH  24  25
ATOM     25  C   LIG    1       -0.119  -7.095  -3.110  0.00  0.00    +0.009 C 
BRANCH  25  27
ATOM     26  C   LIG    1       -1.025  -8.916  -4.560  0.00  0.00    +0.004 C 
ATOM     27  C   LIG    1       -1.349  -7.951  -3.418  0.00  0.00    -0.003 C 
ENDBRANCH  25  27
ENDBRANCH  24  25
ENDBRANCH   1  24
TORSDOF 5
