REMARK  Name = ZINC04099018
REMARK                            x       y       z     vdW  Elec       q    Type
REMARK                         _______ _______ _______ _____ _____    ______ ____
ROOT
ATOM      1  C   LIG    1       -3.746  -1.993   0.027  0.00  0.00    +0.004 A 
ATOM      2  C   LIG    1       -4.212  -1.342  -1.140  0.00  0.00    +0.026 A 
ATOM      3  C   LIG    1       -3.485  -1.425  -2.341  0.00  0.00    +0.014 A 
ATOM      4  C   LIG    1       -3.941  -0.797  -3.456  0.00  0.00    +0.023 A 
ATOM      5  C   LIG    1       -5.140  -0.063  -3.416  0.00  0.00    +0.028 A 
ATOM      6  C   LIG    1       -5.872   0.028  -2.231  0.00  0.00    +0.069 A 
ATOM      7  C   LIG    1       -5.418  -0.606  -1.090  0.00  0.00    +0.138 A 
ATOM      8  O   LIG    1       -6.124  -0.521   0.058  0.00  0.00    -0.455 OA
ATOM      9  C   LIG    1       -5.712  -1.128   1.191  0.00  0.00    +0.138 A 
ATOM     10  C   LIG    1       -6.462  -1.019   2.346  0.00  0.00    +0.072 A 
ATOM     11  C   LIG    1       -6.033  -1.649   3.516  0.00  0.00    +0.036 A 
ATOM     12  C   LIG    1       -4.841  -2.394   3.526  0.00  0.00    +0.026 A 
ATOM     13  C   LIG    1       -4.095  -2.509   2.396  0.00  0.00    +0.014 A 
ATOM     14  N   LIG    1       -6.773  -1.540   4.654  0.00  0.00    -0.398 N 
ATOM     15  H   LIG    1       -6.477  -1.976   5.468  0.00  0.00    +0.156 HD
ATOM     16  H   LIG    1       -7.596  -1.027   4.651  0.00  0.00    +0.156 HD
ATOM     17  C   LIG    1       -4.518  -1.884   1.208  0.00  0.00    +0.026 A 
ENDROOT
BRANCH   1  23
ATOM     18  C   LIG    1       -1.247  -2.108   0.003  0.00  0.00    +0.067 A 
ATOM     19  C   LIG    1       -0.072  -2.855  -0.007  0.00  0.00    +0.015 A 
ATOM     20  C   LIG    1       -0.131  -4.236  -0.013  0.00  0.00    +0.001 A 
ATOM     21  C   LIG    1       -1.353  -4.887  -0.011  0.00  0.00    +0.001 A 
ATOM     22  C   LIG    1       -2.530  -4.165  -0.002  0.00  0.00    +0.009 A 
ATOM     23  C   LIG    1       -2.492  -2.770   0.011  0.00  0.00    -0.003 A 
BRANCH  18  24
ATOM     24  C   LIG    1       -1.190  -0.632   0.010  0.00  0.00    +0.340 C 
ATOM     25  O   LIG    1       -2.217   0.016   0.023  0.00  0.00    -0.245 OA
BRANCH  24  27
ATOM     26  C   LIG    1       -0.017   1.425   0.010  0.00  0.00    +0.280 C 
ATOM     27  O   LIG    1        0.002  -0.004   0.002  0.00  0.00    -0.464 OA
ENDBRANCH  24  27
ENDBRANCH  18  24
ENDBRANCH   1  23
BRANCH   5  28
ATOM     28  N   LIG    1       -5.588   0.563  -4.539  0.00  0.00    -0.358 N 
ATOM     29  H   LIG    1       -6.415   1.070  -4.515  0.00  0.00    +0.142 HD
ATOM     30  H   LIG    1       -5.081   0.501  -5.364  0.00  0.00    +0.142 HD
ENDBRANCH   5  28
TORSDOF 4
