REMARK  Name = ZINC04793192
REMARK                            x       y       z     vdW  Elec       q    Type
REMARK                         _______ _______ _______ _____ _____    ______ ____
ROOT
ATOM      1  N   LIG    1       -1.372  -0.511   0.012  0.00  0.00    -0.335 N 
ATOM      2  C   LIG    1       -2.009  -0.751   1.216  0.00  0.00    +0.060 A 
ATOM      3  C   LIG    1       -1.490  -0.566   2.509  0.00  0.00    +0.072 A 
ATOM      4  C   LIG    1       -2.250  -0.852   3.624  0.00  0.00    +0.122 A 
ATOM      5  C   LIG    1       -3.549  -1.330   3.504  0.00  0.00    +0.047 A 
ATOM      6  C   LIG    1       -4.082  -1.520   2.242  0.00  0.00    +0.021 A 
ATOM      7  C   LIG    1       -3.323  -1.235   1.132  0.00  0.00    +0.038 A 
ATOM      8  S   LIG    1       -3.614  -1.335  -0.618  0.00  0.00    -0.069 S 
ATOM      9  C   LIG    1       -2.023  -0.740  -1.167  0.00  0.00    +0.084 A 
ATOM     10  C   LIG    1       -1.562  -0.558  -2.465  0.00  0.00    +0.079 C 
ENDROOT
BRANCH  10  11
ATOM     11  C   LIG    1       -2.385  -0.852  -3.540  0.00  0.00    +0.156 C 
ATOM     12  C   LIG    1       -1.885  -0.654  -4.947  0.00  0.00    +0.091 C 
ATOM     13  O   LIG    1       -3.513  -1.269  -3.347  0.00  0.00    -0.293 OA
ENDBRANCH  10  11
BRANCH   1  15
ATOM     14  C   LIG    1       -0.019   1.526   0.010  0.00  0.00    +0.027 C 
ATOM     15  C   LIG    1        0.002  -0.004   0.002  0.00  0.00    +0.119 C 
ENDBRANCH   1  15
BRANCH   4  16
ATOM     16  O   LIG    1       -1.719  -0.662   4.861  0.00  0.00    -0.495 OA
ATOM     17  C   LIG    1       -2.552  -0.974   5.979  0.00  0.00    +0.277 C 
ENDBRANCH   4  16
TORSDOF 3
