REMARK  Name = ZINC04534209
REMARK                            x       y       z     vdW  Elec       q    Type
REMARK                         _______ _______ _______ _____ _____    ______ ____
ROOT
ATOM      1  C   LIG    1        6.886  -1.392  -0.288  0.00  0.00    +0.160 C 
ENDROOT
BRANCH   1   3
ATOM      2  C   LIG    1        4.719  -0.832  -1.250  0.00  0.00    +0.234 C 
ATOM      3  N   LIG    1        6.061  -0.846  -1.369  0.00  0.00    -0.302 N 
ATOM      4  H   LIG    1        6.481  -0.496  -2.170  0.00  0.00    +0.150 HD
ATOM      5  O   LIG    1        4.194  -1.270  -0.249  0.00  0.00    -0.274 OA
BRANCH   2   6
ATOM      6  C   LIG    1        3.871  -0.270  -2.362  0.00  0.00    +0.166 C 
BRANCH   6   8
ATOM      7  C   LIG    1        1.789  -0.524  -1.122  0.00  0.00    +0.401 C 
ATOM      8  N   LIG    1        2.502  -0.779  -2.236  0.00  0.00    -0.269 N 
ATOM      9  H   LIG    1        2.110  -1.298  -2.955  0.00  0.00    +0.153 HD
ATOM     10  O   LIG    1        2.280   0.127  -0.221  0.00  0.00    -0.226 OA
BRANCH   7  11
ATOM     11  O   LIG    1        0.531  -0.992  -1.006  0.00  0.00    -0.445 OA
BRANCH  11  13
ATOM     12  C   LIG    1       -0.277   0.834   0.356  0.00  0.00    +0.055 C 
ATOM     13  C   LIG    1       -0.167  -0.684   0.202  0.00  0.00    +0.107 C 
ATOM     14  C   LIG    1       -1.569  -1.295   0.151  0.00  0.00    +0.055 C 
ATOM     15  C   LIG    1        0.598  -1.263   1.394  0.00  0.00    +0.055 C 
ENDBRANCH  11  13
ENDBRANCH   7  11
ENDBRANCH   6   8
BRANCH   6  16
ATOM     16  C   LIG    1        3.857   1.257  -2.272  0.00  0.00    +0.069 C 
BRANCH  16  17
ATOM     17  C   LIG    1        3.112   1.824  -3.453  0.00  0.00    -0.020 A 
ATOM     18  C   LIG    1        3.648   2.246  -4.608  0.00  0.00    +0.087 A 
ATOM     19  N   LIG    1        2.663   2.695  -5.444  0.00  0.00    -0.360 N 
ATOM     20  C   LIG    1        1.436   2.569  -4.831  0.00  0.00    +0.047 A 
ATOM     21  C   LIG    1        0.135   2.866  -5.223  0.00  0.00    +0.026 A 
ATOM     22  C   LIG    1       -0.914   2.604  -4.368  0.00  0.00    +0.002 A 
ATOM     23  C   LIG    1       -0.684   2.058  -3.113  0.00  0.00    +0.001 A 
ATOM     24  C   LIG    1        0.586   1.762  -2.706  0.00  0.00    +0.010 A 
ATOM     25  H   LIG    1        2.806   3.049  -6.335  0.00  0.00    +0.165 HD
ATOM     26  C   LIG    1        1.663   2.011  -3.559  0.00  0.00    +0.003 A 
ENDBRANCH  16  17
ENDBRANCH   6  16
ENDBRANCH   2   6
ENDBRANCH   1   3
BRANCH   1  27
ATOM     27  C   LIG    1        8.203  -1.863  -0.850  0.00  0.00    +0.234 C 
ATOM     28  N   LIG    1        9.129  -2.405  -0.034  0.00  0.00    -0.302 N 
ATOM     29  H   LIG    1        8.976  -2.430   0.924  0.00  0.00    +0.150 HD
ATOM     30  O   LIG    1        8.430  -1.753  -2.036  0.00  0.00    -0.274 OA
BRANCH  28  31
ATOM     31  C   LIG    1       10.364  -2.958  -0.594  0.00  0.00    +0.169 C 
BRANCH  31  32
ATOM     32  C   LIG    1       10.106  -4.354  -1.101  0.00  0.00    +0.234 C 
ATOM     33  N   LIG    1       11.106  -5.062  -1.662  0.00  0.00    -0.302 N 
ATOM     34  H   LIG    1       11.992  -4.675  -1.739  0.00  0.00    +0.150 HD
ATOM     35  O   LIG    1        8.998  -4.838  -1.005  0.00  0.00    -0.274 OA
BRANCH  33  36
ATOM     36  C   LIG    1       10.854  -6.419  -2.156  0.00  0.00    +0.163 C 
BRANCH  36  37
ATOM     37  C   LIG    1       10.990  -7.400  -1.020  0.00  0.00    +0.231 C 
ATOM     38  N   LIG    1       10.801  -8.716  -1.240  0.00  0.00    -0.328 N 
ATOM     39  H   LIG    1       10.888  -9.348  -0.509  0.00  0.00    +0.145 HD
ATOM     40  H   LIG    1       10.578  -9.032  -2.130  0.00  0.00    +0.145 HD
ATOM     41  O   LIG    1       11.269  -7.005   0.093  0.00  0.00    -0.274 OA
ENDBRANCH  36  37
BRANCH  36  42
ATOM     42  C   LIG    1       11.870  -6.760  -3.248  0.00  0.00    +0.067 C 
BRANCH  42  43
ATOM     43  C   LIG    1       11.653  -5.857  -4.435  0.00  0.00    -0.045 A 
ATOM     44  C   LIG    1       10.783  -6.235  -5.441  0.00  0.00    +0.004 A 
ATOM     45  C   LIG    1       10.584  -5.407  -6.530  0.00  0.00    +0.000 A 
ATOM     46  C   LIG    1       11.255  -4.201  -6.613  0.00  0.00    +0.000 A 
ATOM     47  C   LIG    1       12.124  -3.823  -5.607  0.00  0.00    +0.000 A 
ATOM     48  C   LIG    1       12.320  -4.649  -4.516  0.00  0.00    +0.004 A 
ENDBRANCH  42  43
ENDBRANCH  36  42
ENDBRANCH  33  36
ENDBRANCH  31  32
BRANCH  31  49
ATOM     49  C   LIG    1       11.441  -3.002   0.493  0.00  0.00    +0.152 C 
BRANCH  49  50
ATOM     50  C   LIG    1       11.798  -1.597   0.903  0.00  0.00    +0.307 C 
ATOM     51  O   LIG    1       11.319  -0.647   0.307  0.00  0.00    -0.251 OA
BRANCH  50  52
ATOM     52  O   LIG    1       12.566  -1.409   1.832  0.00  0.00    -0.481 OA
ATOM     53  H   LIG    1       12.934  -2.139   2.290  0.00  0.00    +0.295 HD
ENDBRANCH  50  52
ENDBRANCH  49  50
ENDBRANCH  31  49
ENDBRANCH  28  31
ENDBRANCH   1  27
BRANCH   1  54
ATOM     54  C   LIG    1        7.138  -0.306   0.760  0.00  0.00    +0.042 C 
BRANCH  54  55
ATOM     55  C   LIG    1        5.813   0.083   1.419  0.00  0.00    +0.071 C 
BRANCH  55  56
ATOM     56  S   LIG    1        6.111   1.371   2.661  0.00  0.00    -0.164 S 
ATOM     57  C   LIG    1        4.465   1.716   3.340  0.00  0.00    +0.084 C 
ENDBRANCH  55  56
ENDBRANCH  54  55
ENDBRANCH   1  54
TORSDOF 20
