REMARK  Name = ZINC04638255
REMARK                            x       y       z     vdW  Elec       q    Type
REMARK                         _______ _______ _______ _____ _____    ______ ____
ROOT
ATOM      1  C   LIG    1       -2.501  -4.208   0.003  0.00  0.00    +0.190 C 
ATOM      2  O   LIG    1       -1.472  -4.856  -0.010  0.00  0.00    -0.287 OA
ENDROOT
BRANCH   1   3
ATOM      3  C   LIG    1       -3.809  -4.897   0.012  0.00  0.00    +0.022 A 
ATOM      4  C   LIG    1       -4.993  -4.155   0.022  0.00  0.00    +0.013 A 
ATOM      5  C   LIG    1       -6.209  -4.803   0.030  0.00  0.00    +0.016 A 
ATOM      6  C   LIG    1       -6.260  -6.188   0.029  0.00  0.00    +0.018 A 
ATOM      7 BR   LIG    1       -7.933  -7.069   0.042  0.00  0.00    -0.050 Br
ATOM      8  C   LIG    1       -5.090  -6.929   0.020  0.00  0.00    +0.016 A 
ATOM      9  C   LIG    1       -3.867  -6.292   0.005  0.00  0.00    +0.013 A 
ENDBRANCH   1   3
BRANCH   1  11
ATOM     10  C   LIG    1       -1.247  -2.112   0.003  0.00  0.00    +0.205 C 
ATOM     11  C   LIG    1       -2.445  -2.743   0.011  0.00  0.00    +0.104 C 
BRANCH  10  12
ATOM     12  C   LIG    1       -1.190  -0.632   0.010  0.00  0.00    +0.374 C 
ATOM     13  O   LIG    1       -2.217   0.015   0.023  0.00  0.00    -0.242 OA
BRANCH  12  15
ATOM     14  C   LIG    1       -0.017   1.425   0.010  0.00  0.00    +0.280 C 
ATOM     15  O   LIG    1        0.002  -0.004   0.002  0.00  0.00    -0.462 OA
ENDBRANCH  12  15
ENDBRANCH  10  12
BRANCH  10  16
ATOM     16  O   LIG    1       -0.103  -2.833  -0.012  0.00  0.00    -0.501 OA
ATOM     17  H   LIG    1        0.726  -2.396  -0.018  0.00  0.00    +0.292 HD
ENDBRANCH  10  16
ENDBRANCH   1  11
TORSDOF 5
