REMARK  Name = ZINC04234975
REMARK                            x       y       z     vdW  Elec       q    Type
REMARK                         _______ _______ _______ _____ _____    ______ ____
ROOT
ATOM      1  C   LIG    1       -1.121   1.837   0.017  0.00  0.00    +0.067 A 
ATOM      2  C   LIG    1       -0.013   1.076   0.008  0.00  0.00    +0.198 A 
ATOM      3  O   LIG    1        1.074   1.867   0.002  0.00  0.00    -0.461 OA
ATOM      4  C   LIG    1        0.692   3.163   0.012  0.00  0.00    +0.153 A 
ATOM      5  C   LIG    1        1.134   4.489   0.014  0.00  0.00    +0.081 A 
ATOM      6  CA  LIG    1        0.021   5.303   0.027  0.00  0.00    +0.128 A 
ATOM      7  N   LIG    1       -1.103   4.498   0.034  0.00  0.00    -0.347 N 
ATOM      8  H   LIG    1       -2.022   4.808   0.043  0.00  0.00    +0.166 HD
ATOM      9  C   LIG    1       -0.700   3.188   0.025  0.00  0.00    +0.086 A 
ENDROOT
BRANCH   6  10
ATOM     10  C   LIG    1        0.027   6.765   0.033  0.00  0.00    +0.353 C 
ATOM     11  O   LIG    1        1.083   7.369   0.026  0.00  0.00    -0.243 OA
BRANCH  10  12
ATOM     12  OXT LIG    1       -1.138   7.445   0.046  0.00  0.00    -0.476 OA
ATOM     13  HXT LIG    1       -1.952   6.980   0.052  0.00  0.00    +0.295 HD
ENDBRANCH  10  12
ENDBRANCH   6  10
TORSDOF 2
