REMARK  Name = ZINC04529776
REMARK                            x       y       z     vdW  Elec       q    Type
REMARK                         _______ _______ _______ _____ _____    ______ ____
ROOT
ATOM      1  C   LIG    1        0.010   0.027   0.014  0.00  0.00    -0.003 C 
ATOM      2  C   LIG    1        0.015   1.375   0.013  0.00  0.00    -0.019 C 
ATOM      3  C   LIG    1        1.459   1.883  -0.028  0.00  0.00    +0.032 C 
ATOM      4  C   LIG    1        2.136   0.708  -0.753  0.00  0.00    +0.007 C 
ATOM      5  C   LIG    1        3.621   0.608  -0.739  0.00  0.00    +0.001 C 
ATOM      6  C   LIG    1        4.344   1.417   0.334  0.00  0.00    +0.031 C 
ATOM      7  C   LIG    1        5.823   1.210   0.110  0.00  0.00    -0.027 C 
ATOM      8  C   LIG    1        6.316   0.191  -0.525  0.00  0.00    -0.064 C 
ATOM      9  C   LIG    1        5.505  -0.978  -1.033  0.00  0.00    -0.008 C 
ATOM     10  C   LIG    1        6.083  -2.265  -0.435  0.00  0.00    +0.016 C 
ATOM     11  C   LIG    1        5.628  -1.042  -2.550  0.00  0.00    +0.015 C 
ATOM     12  C   LIG    1        6.665  -0.034  -3.041  0.00  0.00    +0.046 C 
ATOM     13  C   LIG    1        7.990  -0.176  -2.299  0.00  0.00    +0.180 C 
ATOM     14  C   LIG    1        7.808   0.151  -0.812  0.00  0.00    +0.075 C 
ATOM     15  C   LIG    1        4.058  -0.858  -0.575  0.00  0.00    +0.003 C 
ATOM     16  C   LIG    1        3.104  -1.762  -1.342  0.00  0.00    +0.005 C 
ATOM     17  C   LIG    1        1.707  -1.764  -0.696  0.00  0.00    +0.012 C 
ATOM     18  C   LIG    1        1.444  -0.453  -0.004  0.00  0.00    -0.001 C 
ATOM     19  C   LIG    1        1.871  -0.538   1.465  0.00  0.00    +0.016 C 
ENDROOT
BRANCH   1  21
ATOM     20  C   LIG    1       -2.542  -0.222   0.167  0.00  0.00    +0.091 C 
ATOM     21  C   LIG    1       -1.169  -0.831   0.040  0.00  0.00    +0.156 C 
ATOM     22  O   LIG    1       -1.044  -2.036  -0.040  0.00  0.00    -0.293 OA
ENDBRANCH   1  21
BRANCH  13  23
ATOM     23  O   LIG    1        8.491  -1.531  -2.446  0.00  0.00    -0.461 OA
BRANCH  23  24
ATOM     24  C   LIG    1        9.824  -1.690  -2.460  0.00  0.00    +0.304 C 
ATOM     25  C   LIG    1       10.417  -3.067  -2.609  0.00  0.00    +0.136 C 
ATOM     26  O   LIG    1       10.548  -0.728  -2.354  0.00  0.00    -0.251 OA
ENDBRANCH  23  24
ENDBRANCH  13  23
TORSDOF 3
