REMARK  Name = ZINC04660627
REMARK                            x       y       z     vdW  Elec       q    Type
REMARK                         _______ _______ _______ _____ _____    ______ ____
ROOT
ATOM      1  S   LIG    1       -5.710  -5.015   2.186  0.00  0.00    +0.061 S 
ATOM      2  O   LIG    1       -5.861  -4.281   3.393  0.00  0.00    -0.153 OA
ATOM      3  O   LIG    1       -5.021  -6.257   2.130  0.00  0.00    -0.153 OA
ENDROOT
BRANCH   1   4
ATOM      4  C   LIG    1       -7.335  -5.312   1.571  0.00  0.00    +0.108 A 
ATOM      5  C   LIG    1       -8.374  -4.476   1.932  0.00  0.00    +0.030 A 
ATOM      6  C   LIG    1       -9.648  -4.708   1.450  0.00  0.00    +0.024 A 
ATOM      7  C   LIG    1       -9.883  -5.778   0.605  0.00  0.00    +0.071 A 
ATOM      8 CL   LIG    1      -11.484  -6.071  -0.001  0.00  0.00    -0.081 Cl
ATOM      9  C   LIG    1       -8.843  -6.615   0.244  0.00  0.00    +0.142 A 
ATOM     10  C   LIG    1       -7.568  -6.378   0.723  0.00  0.00    +0.062 A 
BRANCH   9  11
ATOM     11  N   LIG    1       -9.094  -7.760  -0.660  0.00  0.00    +0.007 N 
ATOM     12  O   LIG    1       -8.184  -8.491  -0.976  0.00  0.00    -0.130 OA
BRANCH  11  13
ATOM     13  O   LIG    1      -10.208  -7.964  -1.082  0.00  0.00    -0.396 OA
ATOM     14  H   LIG    1      -10.913  -7.397  -0.838  0.00  0.00    +0.329 HD
ENDBRANCH  11  13
ENDBRANCH   9  11
ENDBRANCH   1   4
BRANCH   1  18
ATOM     15  C   LIG    1       -2.881  -2.427   0.017  0.00  0.00    +0.100 C 
ATOM     16  C   LIG    1       -3.623  -1.970   1.275  0.00  0.00    +0.032 C 
ATOM     17  C   LIG    1       -5.041  -2.549   1.265  0.00  0.00    +0.110 C 
ATOM     18  N   LIG    1       -4.956  -4.007   1.110  0.00  0.00    -0.177 NA
ATOM     19  C   LIG    1       -4.189  -4.554  -0.017  0.00  0.00    +0.110 C 
ATOM     20  C   LIG    1       -2.780  -3.954   0.007  0.00  0.00    +0.032 C 
BRANCH  15  21
ATOM     21  C   LIG    1       -1.496  -1.832   0.006  0.00  0.00    +0.310 C 
ATOM     22  O   LIG    1       -0.528  -2.555  -0.007  0.00  0.00    -0.251 OA
BRANCH  21  23
ATOM     23  O   LIG    1       -1.339  -0.499   0.012  0.00  0.00    -0.465 OA
BRANCH  23  25
ATOM     24  C   LIG    1       -0.019   1.526   0.010  0.00  0.00    +0.048 C 
ATOM     25  C   LIG    1        0.002  -0.004   0.002  0.00  0.00    +0.229 C 
ENDBRANCH  23  25
ENDBRANCH  21  23
ENDBRANCH  15  21
ENDBRANCH   1  18
TORSDOF 7
