REMARK  Name = ZINC04716437
REMARK                            x       y       z     vdW  Elec       q    Type
REMARK                         _______ _______ _______ _____ _____    ______ ____
ROOT
ATOM      1  C   LIG    1        3.696   2.049  -0.023  0.00  0.00    +0.143 C 
ENDROOT
BRANCH   1   2
ATOM      2  C   LIG    1        4.134   2.357  -1.431  0.00  0.00    -0.007 A 
ATOM      3  C   LIG    1        3.687   1.576  -2.481  0.00  0.00    +0.008 A 
ATOM      4  C   LIG    1        4.088   1.859  -3.773  0.00  0.00    +0.020 A 
ATOM      5  C   LIG    1        4.938   2.923  -4.016  0.00  0.00    +0.041 A 
ATOM      6 CL   LIG    1        5.443   3.278  -5.638  0.00  0.00    -0.084 Cl
ATOM      7  C   LIG    1        5.385   3.704  -2.965  0.00  0.00    +0.020 A 
ATOM      8  C   LIG    1        4.979   3.425  -1.674  0.00  0.00    +0.008 A 
ENDBRANCH   1   2
BRANCH   1   9
ATOM      9  C   LIG    1        4.574   0.967   0.551  0.00  0.00    -0.007 A 
ATOM     10  C   LIG    1        5.016  -0.065  -0.257  0.00  0.00    +0.008 A 
ATOM     11  C   LIG    1        5.821  -1.058   0.268  0.00  0.00    +0.020 A 
ATOM     12  C   LIG    1        6.185  -1.019   1.603  0.00  0.00    +0.041 A 
ATOM     13 CL   LIG    1        7.196  -2.267   2.263  0.00  0.00    -0.084 Cl
ATOM     14  C   LIG    1        5.743   0.013   2.410  0.00  0.00    +0.020 A 
ATOM     15  C   LIG    1        4.942   1.008   1.883  0.00  0.00    +0.008 A 
ENDBRANCH   1   9
BRANCH   1  18
ATOM     16  C   LIG    1       -0.075   2.016   0.079  0.00  0.00    +0.020 A 
ATOM     17  C   LIG    1        1.227   2.492   0.094  0.00  0.00    +0.010 A 
ATOM     18  C   LIG    1        2.264   1.581  -0.033  0.00  0.00    +0.011 A 
ATOM     19  C   LIG    1        1.968   0.238  -0.170  0.00  0.00    +0.117 A 
ATOM     20  N   LIG    1        0.717  -0.179  -0.181  0.00  0.00    -0.263 NA
ATOM     21  C   LIG    1       -0.295   0.659  -0.062  0.00  0.00    +0.111 A 
ENDBRANCH   1  18
BRANCH   1  22
ATOM     22  O   LIG    1        3.807   3.227   0.779  0.00  0.00    -0.375 OA
ATOM     23  H   LIG    1        4.704   3.584   0.831  0.00  0.00    +0.211 HD
ENDBRANCH   1  22
TORSDOF 4
