REMARK  Name = ZINC04741476
REMARK                            x       y       z     vdW  Elec       q    Type
REMARK                         _______ _______ _______ _____ _____    ______ ____
ROOT
ATOM      1  C   LIG    1       -0.009   1.501   0.097  0.00  0.00    +0.064 C 
ATOM      2  C   LIG    1        0.006  -0.005   0.044  0.00  0.00    +0.034 A 
ATOM      3  C   LIG    1       -1.167  -0.706   0.150  0.00  0.00    +0.085 A 
ATOM      4  C   LIG    1       -1.132  -2.175   0.095  0.00  0.00    +0.075 A 
ATOM      5  N   LIG    1       -2.430  -2.603   0.225  0.00  0.00    -0.289 N 
ATOM      6  N   LIG    1       -3.283  -1.503   0.358  0.00  0.00    -0.219 N 
ATOM      7  H   LIG    1       -2.714  -3.531   0.224  0.00  0.00    +0.187 HD
ATOM      8  C   LIG    1        0.089  -2.793  -0.062  0.00  0.00    +0.098 A 
ATOM      9  C   LIG    1        1.240  -2.001  -0.163  0.00  0.00    +0.254 A 
ATOM     10  O   LIG    1        2.325  -2.541  -0.304  0.00  0.00    -0.268 OA
ATOM     11  C   LIG    1       -2.583  -0.351   0.320  0.00  0.00    +0.281 A 
ATOM     12  O   LIG    1       -3.039   0.772   0.410  0.00  0.00    -0.265 OA
ATOM     13  N   LIG    1        1.174  -0.661  -0.115  0.00  0.00    -0.307 N 
ENDROOT
BRANCH   6  14
ATOM     14  C   LIG    1       -4.671  -1.587   0.509  0.00  0.00    +0.067 A 
ATOM     15  C   LIG    1       -5.428  -0.428   0.627  0.00  0.00    +0.028 A 
ATOM     16  C   LIG    1       -6.799  -0.514   0.775  0.00  0.00    +0.002 A 
ATOM     17  C   LIG    1       -7.417  -1.751   0.806  0.00  0.00    +0.000 A 
ATOM     18  C   LIG    1       -6.665  -2.906   0.689  0.00  0.00    +0.002 A 
ATOM     19  C   LIG    1       -5.295  -2.827   0.535  0.00  0.00    +0.028 A 
ENDBRANCH   6  14
BRANCH  13  20
ATOM     20  C   LIG    1        2.412   0.114  -0.232  0.00  0.00    +0.161 C 
BRANCH  20  21
ATOM     21  C   LIG    1        3.039   0.268   1.130  0.00  0.00    -0.010 A 
ATOM     22  C   LIG    1        2.710   1.348   1.936  0.00  0.00    +0.008 A 
ATOM     23  C   LIG    1        3.311   1.450   3.181  0.00  0.00    +0.020 A 
ATOM     24  C   LIG    1        4.212   0.478   3.575  0.00  0.00    +0.111 A 
ATOM     25  N   LIG    1        4.501  -0.535   2.783  0.00  0.00    -0.263 NA
ATOM     26  C   LIG    1        3.944  -0.667   1.594  0.00  0.00    +0.116 A 
ENDBRANCH  20  21
ENDBRANCH  13  20
TORSDOF 3
