REMARK  Name = ZINC04638255
REMARK                            x       y       z     vdW  Elec       q    Type
REMARK                         _______ _______ _______ _____ _____    ______ ____
ROOT
ATOM      1  C   LIG    1        2.193  -0.708   0.080  0.00  0.00    +0.171 C 
ATOM      2  O   LIG    1        1.105  -1.222  -0.096  0.00  0.00    -0.292 OA
ENDROOT
BRANCH   1   3
ATOM      3  C   LIG    1        3.386  -1.556   0.286  0.00  0.00    +0.018 A 
ATOM      4  C   LIG    1        4.639  -0.969   0.482  0.00  0.00    +0.012 A 
ATOM      5  C   LIG    1        5.747  -1.765   0.679  0.00  0.00    +0.016 A 
ATOM      6  C   LIG    1        5.622  -3.145   0.672  0.00  0.00    +0.018 A 
ATOM      7 BR   LIG    1        7.148  -4.229   0.935  0.00  0.00    -0.050 Br
ATOM      8  C   LIG    1        4.384  -3.733   0.473  0.00  0.00    +0.016 A 
ATOM      9  C   LIG    1        3.267  -2.947   0.281  0.00  0.00    +0.012 A 
ENDBRANCH   1   3
BRANCH   1  10
ATOM     10  C   LIG    1        2.322   0.753   0.086  0.00  0.00    +0.166 C 
BRANCH  10  11
ATOM     11  C   LIG    1        1.217   1.530   0.006  0.00  0.00    +0.247 C 
ATOM     12  O   LIG    1       -0.012   0.963   0.030  0.00  0.00    -0.285 OA
BRANCH  11  13
ATOM     13  C   LIG    1        1.352   3.000  -0.106  0.00  0.00    +0.375 C 
ATOM     14  O   LIG    1        2.454   3.509  -0.128  0.00  0.00    -0.242 OA
BRANCH  13  16
ATOM     15  C   LIG    1        0.460   5.207  -0.294  0.00  0.00    +0.280 C 
ATOM     16  O   LIG    1        0.252   3.774  -0.186  0.00  0.00    -0.462 OA
ENDBRANCH  13  16
ENDBRANCH  11  13
ENDBRANCH  10  11
ENDBRANCH   1  10
TORSDOF 5
