REMARK  Name = ZINC04751579
REMARK                            x       y       z     vdW  Elec       q    Type
REMARK                         _______ _______ _______ _____ _____    ______ ____
ROOT
ATOM      1  N   LIG    1       -2.021  -3.201   0.005  0.00  0.00    -0.304 N 
ATOM      2  H   LIG    1       -2.918  -2.833   0.016  0.00  0.00    +0.149 HD
ATOM      3  C   LIG    1       -0.955  -2.377  -0.001  0.00  0.00    +0.285 C 
ATOM      4  O   LIG    1        0.169  -2.837  -0.015  0.00  0.00    -0.267 OA
ENDROOT
BRANCH   3   5
ATOM      5  C   LIG    1       -1.155  -0.898   0.009  0.00  0.00    +0.249 C 
ATOM      6  O   LIG    1       -2.279  -0.437   0.022  0.00  0.00    -0.282 OA
BRANCH   5   7
ATOM      7  C   LIG    1        0.002  -0.004   0.002  0.00  0.00    +0.052 A 
ATOM      8  C   LIG    1        1.335  -0.370  -0.013  0.00  0.00    +0.095 A 
ATOM      9  N   LIG    1        2.106   0.732  -0.014  0.00  0.00    -0.360 N 
ATOM     10  C   LIG    1        1.327   1.873  -0.001  0.00  0.00    +0.047 A 
ATOM     11  C   LIG    1        1.633   3.230   0.005  0.00  0.00    +0.026 A 
ATOM     12  C   LIG    1        0.619   4.164   0.020  0.00  0.00    +0.002 A 
ATOM     13  C   LIG    1       -0.709   3.765   0.030  0.00  0.00    +0.001 A 
ATOM     14  C   LIG    1       -1.032   2.424   0.030  0.00  0.00    +0.011 A 
ATOM     15  H   LIG    1        3.075   0.727  -0.023  0.00  0.00    +0.165 HD
ATOM     16  C   LIG    1       -0.018   1.472   0.010  0.00  0.00    +0.011 A 
ENDBRANCH   5   7
ENDBRANCH   3   5
BRANCH   1  17
ATOM     17  C   LIG    1       -1.824  -4.653  -0.005  0.00  0.00    +0.142 C 
BRANCH  17  23
ATOM     18  C   LIG    1       -4.903  -6.479   1.195  0.00  0.00    +0.000 A 
ATOM     19  C   LIG    1       -5.625  -6.605   0.023  0.00  0.00    +0.003 A 
ATOM     20  C   LIG    1       -5.119  -6.099  -1.159  0.00  0.00    +0.038 A 
ATOM     21  C   LIG    1       -3.888  -5.466  -1.169  0.00  0.00    +0.128 A 
ATOM     22  F   LIG    1       -3.391  -4.971  -2.324  0.00  0.00    -0.205 F 
ATOM     23  C   LIG    1       -3.165  -5.341   0.005  0.00  0.00    +0.005 A 
ATOM     24  C   LIG    1       -3.671  -5.853   1.185  0.00  0.00    +0.008 A 
ENDBRANCH  17  23
ENDBRANCH   1  17
TORSDOF 4
