REMARK  Name = ZINC04716487
REMARK                            x       y       z     vdW  Elec       q    Type
REMARK                         _______ _______ _______ _____ _____    ______ ____
ROOT
ATOM      1  C   LIG    1       -1.831  -1.662   1.231  0.00  0.00    +0.138 A 
ATOM      2  C   LIG    1       -2.995  -0.914   1.241  0.00  0.00    +0.092 A 
ATOM      3  C   LIG    1       -3.595  -0.541   0.046  0.00  0.00    +0.124 A 
ATOM      4  C   LIG    1       -3.035  -0.915  -1.169  0.00  0.00    +0.091 A 
ATOM      5  C   LIG    1       -1.872  -1.663  -1.197  0.00  0.00    +0.135 A 
ATOM      6  C   LIG    1       -1.255  -2.039   0.007  0.00  0.00    +0.105 A 
ENDROOT
BRANCH   1   8
ATOM      7  C   LIG    1       -1.889  -1.606   3.605  0.00  0.00    +0.277 C 
ATOM      8  O   LIG    1       -1.246  -2.026   2.400  0.00  0.00    -0.494 OA
ENDBRANCH   1   8
BRANCH   3   9
ATOM      9  O   LIG    1       -4.737   0.192   0.065  0.00  0.00    -0.507 OA
ATOM     10  H   LIG    1       -4.591   1.148   0.062  0.00  0.00    +0.292 HD
ENDBRANCH   3   9
BRANCH   5  11
ATOM     11  O   LIG    1       -1.326  -2.027  -2.384  0.00  0.00    -0.506 OA
ATOM     12  H   LIG    1       -0.690  -1.390  -2.737  0.00  0.00    +0.292 HD
ENDBRANCH   5  11
BRANCH   6  13
ATOM     13  C   LIG    1       -0.014  -2.830  -0.013  0.00  0.00    +0.193 C 
ATOM     14  O   LIG    1        1.063  -2.271  -0.116  0.00  0.00    -0.287 OA
BRANCH  13  15
ATOM     15  C   LIG    1       -0.074  -4.290   0.090  0.00  0.00    +0.052 C 
ATOM     16  C   LIG    1        1.065  -5.007   0.177  0.00  0.00    +0.012 C 
BRANCH  16  17
ATOM     17  C   LIG    1        1.004  -6.474   0.281  0.00  0.00    -0.025 A 
ATOM     18  C   LIG    1       -0.232  -7.128   0.284  0.00  0.00    +0.008 A 
ATOM     19  C   LIG    1       -0.280  -8.502   0.382  0.00  0.00    +0.001 A 
ATOM     20  C   LIG    1        0.890  -9.235   0.476  0.00  0.00    +0.000 A 
ATOM     21  C   LIG    1        2.118  -8.595   0.474  0.00  0.00    +0.001 A 
ATOM     22  C   LIG    1        2.183  -7.221   0.371  0.00  0.00    +0.008 A 
ENDBRANCH  16  17
ENDBRANCH  13  15
ENDBRANCH   6  13
TORSDOF 6
