REMARK  Name = ZINC04316466
REMARK                            x       y       z     vdW  Elec       q    Type
REMARK                         _______ _______ _______ _____ _____    ______ ____
ROOT
ATOM      1  C   LIG    1        4.406  -1.094   1.637  0.00  0.00    +0.249 A 
ATOM      2  C   LIG    1        5.167  -0.231   2.409  0.00  0.00    +0.204 A 
ATOM      3  N   LIG    1        5.729   0.961   2.145  0.00  0.00    -0.209 NA
ATOM      4  C   LIG    1        6.422   1.595   3.076  0.00  0.00    +0.140 A 
ATOM      5  C   LIG    1        6.572   1.022   4.343  0.00  0.00    +0.078 A 
ATOM      6  C   LIG    1        6.005  -0.216   4.662  0.00  0.00    +0.087 A 
ATOM      7  C   LIG    1        6.231  -0.671   5.962  0.00  0.00    +0.036 A 
ATOM      8  C   LIG    1        6.959   0.071   6.826  0.00  0.00    +0.048 A 
ATOM      9  S   LIG    1        7.388   1.499   5.844  0.00  0.00    -0.092 S 
ATOM     10  N   LIG    1        5.287  -0.829   3.631  0.00  0.00    -0.192 N 
ATOM     11  N   LIG    1        4.590  -2.040   3.557  0.00  0.00    -0.057 NA
ATOM     12  N   LIG    1        4.088  -2.150   2.376  0.00  0.00    -0.108 NA
ENDROOT
BRANCH   4  13
ATOM     13  N   LIG    1        6.997   2.822   2.797  0.00  0.00    -0.314 N 
ATOM     14  C   LIG    1        7.795   3.627   3.733  0.00  0.00    +0.106 C 
ATOM     15  C   LIG    1        8.203   4.919   2.995  0.00  0.00    +0.020 C 
ATOM     16  C   LIG    1        7.139   5.027   1.871  0.00  0.00    +0.020 C 
ATOM     17  C   LIG    1        6.918   3.535   1.509  0.00  0.00    +0.106 C 
ENDBRANCH   4  13
BRANCH   1  18
ATOM     18  S   LIG    1        3.934  -0.832  -0.041  0.00  0.00    +0.047 S 
ATOM     19  O   LIG    1        4.890   0.060  -0.597  0.00  0.00    -0.163 OA
ATOM     20  O   LIG    1        3.674  -2.114  -0.595  0.00  0.00    -0.163 OA
BRANCH  18  24
ATOM     21  C   LIG    1       -0.017   1.378   0.010  0.00  0.00    +0.000 A 
ATOM     22  C   LIG    1        1.171   2.086   0.002  0.00  0.00    +0.002 A 
ATOM     23  C   LIG    1        2.377   1.411  -0.013  0.00  0.00    +0.027 A 
ATOM     24  C   LIG    1        2.396   0.029  -0.020  0.00  0.00    +0.095 A 
ATOM     25  C   LIG    1        1.208  -0.679  -0.012  0.00  0.00    +0.027 A 
ATOM     26  C   LIG    1        0.002  -0.004   0.002  0.00  0.00    +0.002 A 
ENDBRANCH  18  24
ENDBRANCH   1  18
TORSDOF 3
