REMARK  Name = ZINC04617893
REMARK                            x       y       z     vdW  Elec       q    Type
REMARK                         _______ _______ _______ _____ _____    ______ ____
ROOT
ATOM      1  C   LIG    1        1.616  -2.274  -2.581  0.00  0.00    +0.128 A 
ATOM      2  N   LIG    1        2.161  -1.497  -3.566  0.00  0.00    -0.271 N 
ATOM      3  H   LIG    1        2.247  -0.531  -3.546  0.00  0.00    +0.189 HD
ATOM      4  N   LIG    1        2.575  -2.337  -4.606  0.00  0.00    -0.172 NA
ATOM      5  C   LIG    1        2.294  -3.582  -4.291  0.00  0.00    +0.104 A 
ATOM      6  C   LIG    1        1.684  -3.594  -3.016  0.00  0.00    +0.040 A 
ENDROOT
BRANCH   5   7
ATOM      7  C   LIG    1        2.570  -4.773  -5.131  0.00  0.00    +0.046 A 
ATOM      8  C   LIG    1        1.577  -5.729  -5.335  0.00  0.00    +0.037 A 
ATOM      9  C   LIG    1        1.836  -6.836  -6.117  0.00  0.00    +0.083 A 
ATOM     10 CL   LIG    1        0.598  -8.027  -6.369  0.00  0.00    -0.080 Cl
ATOM     11  C   LIG    1        3.085  -7.000  -6.703  0.00  0.00    +0.139 A 
ATOM     12  C   LIG    1        4.078  -6.052  -6.505  0.00  0.00    +0.093 A 
ATOM     13  C   LIG    1        3.825  -4.936  -5.726  0.00  0.00    +0.130 A 
BRANCH  11  14
ATOM     14  O   LIG    1        3.335  -8.092  -7.472  0.00  0.00    -0.505 OA
ATOM     15  H   LIG    1        3.130  -7.969  -8.409  0.00  0.00    +0.292 HD
ENDBRANCH  11  14
BRANCH  13  16
ATOM     16  O   LIG    1        4.794  -4.003  -5.537  0.00  0.00    -0.506 OA
ATOM     17  H   LIG    1        4.622  -3.248  -5.009  0.00  0.00    +0.292 HD
ENDBRANCH  13  16
ENDBRANCH   5   7
BRANCH   6  18
ATOM     18  C   LIG    1        1.208  -4.787  -2.281  0.00  0.00    -0.013 A 
ATOM     19  C   LIG    1        2.124  -5.723  -1.799  0.00  0.00    +0.012 A 
ATOM     20  C   LIG    1        1.676  -6.833  -1.115  0.00  0.00    +0.046 A 
ATOM     21  C   LIG    1        0.316  -7.020  -0.905  0.00  0.00    +0.120 A 
ATOM     22  C   LIG    1       -0.598  -6.091  -1.383  0.00  0.00    +0.046 A 
ATOM     23  C   LIG    1       -0.157  -4.975  -2.062  0.00  0.00    +0.012 A 
BRANCH  21  24
ATOM     24  O   LIG    1       -0.121  -8.116  -0.231  0.00  0.00    -0.495 OA
ATOM     25  C   LIG    1       -1.532  -8.246  -0.050  0.00  0.00    +0.277 C 
ENDBRANCH  21  24
ENDBRANCH   6  18
BRANCH   1  28
ATOM     26  N   LIG    1        1.057  -0.488  -1.017  0.00  0.00    -0.310 N 
ATOM     27  H   LIG    1        1.426   0.149  -1.649  0.00  0.00    +0.149 HD
ATOM     28  C   LIG    1        1.058  -1.804  -1.307  0.00  0.00    +0.262 C 
ATOM     29  O   LIG    1        0.595  -2.602  -0.514  0.00  0.00    -0.269 OA
BRANCH  26  31
ATOM     30  C   LIG    1        0.623   1.505   0.333  0.00  0.00    +0.024 C 
ATOM     31  C   LIG    1        0.500  -0.018   0.254  0.00  0.00    +0.101 C 
ENDBRANCH  26  31
ENDBRANCH   1  28
TORSDOF 7
