REMARK  Name = ZINC04528567
REMARK                            x       y       z     vdW  Elec       q    Type
REMARK                         _______ _______ _______ _____ _____    ______ ____
ROOT
ATOM      1  C   UNK    1        3.666  -1.022  -0.086  0.00  0.00    +0.091 C 
ENDROOT
BRANCH   1   5
ATOM      2  C   UNK    1        0.678   1.982   0.458  0.00  0.00    +0.000 A 
ATOM      3  C   UNK    1        2.014   2.334   0.426  0.00  0.00    +0.000 A 
ATOM      4  C   UNK    1        2.981   1.362   0.250  0.00  0.00    +0.005 A 
ATOM      5  C   UNK    1        2.612   0.038   0.107  0.00  0.00    -0.023 A 
ATOM      6  C   UNK    1        1.275  -0.314   0.140  0.00  0.00    +0.005 A 
ATOM      7  C   UNK    1        0.308   0.658   0.314  0.00  0.00    +0.000 A 
ENDBRANCH   1   5
BRANCH   1   8
ATOM      8  C   UNK    1        4.431  -0.745  -1.354  0.00  0.00    -0.023 A 
ATOM      9  C   UNK    1        3.821  -0.073  -2.397  0.00  0.00    +0.005 A 
ATOM     10  C   UNK    1        4.523   0.181  -3.560  0.00  0.00    +0.000 A 
ATOM     11  C   UNK    1        5.835  -0.235  -3.680  0.00  0.00    +0.000 A 
ATOM     12  C   UNK    1        6.446  -0.906  -2.637  0.00  0.00    +0.000 A 
ATOM     13  C   UNK    1        5.745  -1.157  -1.472  0.00  0.00    +0.005 A 
ENDBRANCH   1   8
BRANCH   1  14
ATOM     14  C   UNK    1        3.007  -2.374  -0.182  0.00  0.00    -0.023 A 
ATOM     15  C   UNK    1        2.131  -2.644  -1.217  0.00  0.00    +0.005 A 
ATOM     16  C   UNK    1        1.527  -3.884  -1.306  0.00  0.00    +0.000 A 
ATOM     17  C   UNK    1        1.798  -4.854  -0.359  0.00  0.00    +0.000 A 
ATOM     18  C   UNK    1        2.675  -4.585   0.676  0.00  0.00    +0.000 A 
ATOM     19  C   UNK    1        3.282  -3.346   0.762  0.00  0.00    +0.005 A 
ENDBRANCH   1  14
BRANCH   1  20
ATOM     20  S   UNK    1        4.806  -1.004   1.325  0.00  0.00    -0.141 S 
BRANCH  20  21
ATOM     21  C   UNK    1        3.719  -1.157   2.770  0.00  0.00    +0.065 C 
BRANCH  21  22
ATOM     22  C   UNK    1        4.569  -1.292   4.035  0.00  0.00    +0.046 C 
BRANCH  22  23
ATOM     23  N   UNK    1        5.329  -0.053   4.249  0.00  0.00    +0.387 N 
ATOM     24  H   UNK    1        4.689   0.720   4.355  0.00  0.00    -0.089 HD
ATOM     25  H   UNK    1        5.930   0.114   3.457  0.00  0.00    -0.089 HD
ATOM     26  H   UNK    1        5.889  -0.143   5.084  0.00  0.00    -0.089 HD
ENDBRANCH  22  23
BRANCH  22  27
ATOM     27  C   UNK    1        3.670  -1.542   5.219  0.00  0.00    +0.291 C 
ATOM     28  O   UNK    1        3.089  -2.607   5.329  0.00  0.00    -0.253 OA
BRANCH  27  29
ATOM     29  O   UNK    1        3.525  -0.677   6.066  0.00  0.00    -0.482 OA
ATOM     30  H   UNK    1        3.972   0.142   5.982  0.00  0.00    +0.295 HD
ENDBRANCH  27  29
ENDBRANCH  22  27
ENDBRANCH  21  22
ENDBRANCH  20  21
ENDBRANCH   1  20
TORSDOF 9
