REMARK  Name = ZINC04532986
REMARK                            x       y       z     vdW  Elec       q    Type
REMARK                         _______ _______ _______ _____ _____    ______ ____
ROOT
ATOM      1  C   LIG    1        5.252   3.405  -0.886  0.00  0.00    -0.003 C 
ATOM      2  C   LIG    1        5.782   2.304  -1.456  0.00  0.00    -0.019 C 
ATOM      3  C   LIG    1        4.769   1.157  -1.401  0.00  0.00    +0.032 C 
ATOM      4  C   LIG    1        3.453   1.949  -1.330  0.00  0.00    +0.007 C 
ATOM      5  C   LIG    1        2.209   1.243  -0.915  0.00  0.00    +0.001 C 
ATOM      6  C   LIG    1        2.400  -0.092  -0.200  0.00  0.00    +0.031 C 
ATOM      7  C   LIG    1        1.019  -0.647   0.054  0.00  0.00    -0.027 C 
ATOM      8  C   LIG    1       -0.049   0.088   0.110  0.00  0.00    -0.065 C 
ATOM      9  C   LIG    1       -0.057   1.597   0.030  0.00  0.00    -0.008 C 
ATOM     10  C   LIG    1       -0.750   2.145   1.283  0.00  0.00    +0.016 C 
ATOM     11  C   LIG    1       -0.851   2.022  -1.198  0.00  0.00    +0.014 C 
ATOM     12  C   LIG    1       -1.538   0.812  -1.830  0.00  0.00    +0.032 C 
ATOM     13  C   LIG    1       -2.336   0.013  -0.807  0.00  0.00    +0.119 C 
ATOM     14  C   LIG    1       -1.402  -0.590   0.248  0.00  0.00    +0.062 C 
ATOM     15  C   LIG    1        1.366   2.138   0.009  0.00  0.00    +0.003 C 
ATOM     16  C   LIG    1        1.455   3.582  -0.461  0.00  0.00    +0.005 C 
ATOM     17  C   LIG    1        2.873   4.143  -0.257  0.00  0.00    +0.012 C 
ATOM     18  C   LIG    1        3.895   3.039  -0.328  0.00  0.00    -0.001 C 
ATOM     19  C   LIG    1        4.160   2.475   1.071  0.00  0.00    +0.016 C 
ENDROOT
BRANCH   1  21
ATOM     20  C   LIG    1        7.178   4.983  -1.514  0.00  0.00    +0.091 C 
ATOM     21  C   LIG    1        5.872   4.723  -0.808  0.00  0.00    +0.156 C 
ATOM     22  O   LIG    1        5.337   5.609  -0.176  0.00  0.00    -0.293 OA
ENDBRANCH   1  21
BRANCH  13  23
ATOM     23  O   LIG    1       -3.300   0.857  -0.175  0.00  0.00    -0.391 OA
ATOM     24  H   LIG    1       -3.859   0.402   0.469  0.00  0.00    +0.210 HD
ENDBRANCH  13  23
TORSDOF 2
