REMARK  Name = ZINC04321886
REMARK                            x       y       z     vdW  Elec       q    Type
REMARK                         _______ _______ _______ _____ _____    ______ ____
ROOT
ATOM      1  C   VAL A  1       -2.212  -0.147   1.109  0.00  0.00    +0.234 C 
ATOM      2  N   TYR A  2       -2.535   1.157   1.216  0.00  0.00    -0.301 N 
ATOM      3  H   TYR A  2       -2.182   1.798   0.579  0.00  0.00    +0.150 HD
ATOM      4  O   VAL A  1       -2.580  -0.934   1.956  0.00  0.00    -0.274 OA
ENDROOT
BRANCH   1   5
ATOM      5  CA  VAL A  1       -1.394  -0.627  -0.062  0.00  0.00    +0.165 C 
BRANCH   5   6
ATOM      6  N   VAL A  1       -1.672  -2.045  -0.302  0.00  0.00    -0.270 N 
ATOM      7  H   VAL A  1       -1.990  -2.607   0.422  0.00  0.00    +0.153 HD
ATOM      8  C   UNK A  0       -1.486  -2.570  -1.530  0.00  0.00    +0.401 C 
ATOM      9  O   UNK A  0       -1.088  -1.866  -2.437  0.00  0.00    -0.226 OA
BRANCH   8  10
ATOM     10  O   UNK A  0       -1.741  -3.873  -1.751  0.00  0.00    -0.446 OA
BRANCH  10  11
ATOM     11  C   UNK A  0       -1.521  -4.361  -3.076  0.00  0.00    +0.269 C 
BRANCH  11  12
ATOM     12  C   UNK A  0       -1.858  -5.829  -3.132  0.00  0.00    -0.010 A 
ATOM     13  C   UNK A  0       -0.883  -6.772  -2.866  0.00  0.00    +0.007 A 
ATOM     14  C   UNK A  0       -1.191  -8.119  -2.918  0.00  0.00    +0.000 A 
ATOM     15  C   UNK A  0       -2.474  -8.522  -3.236  0.00  0.00    +0.000 A 
ATOM     16  C   UNK A  0       -3.450  -7.579  -3.501  0.00  0.00    +0.000 A 
ATOM     17  C   UNK A  0       -3.142  -6.233  -3.445  0.00  0.00    +0.007 A 
ENDBRANCH  11  12
ENDBRANCH  10  11
ENDBRANCH   8  10
ENDBRANCH   5   6
BRANCH   5  19
ATOM     18  CG1 VAL A  1        0.491  -1.359   1.405  0.00  0.00    +0.009 C 
ATOM     19  CB  VAL A  1        0.093  -0.444   0.246  0.00  0.00    +0.012 C 
ATOM     20  CG2 VAL A  1        0.918  -0.801  -0.992  0.00  0.00    +0.009 C 
ENDBRANCH   5  19
ENDBRANCH   1   5
BRANCH   2  21
ATOM     21  CA  TYR A  2       -3.421   1.607   2.292  0.00  0.00    +0.186 C 
BRANCH  21  22
ATOM     22  C   TYR A  2       -2.611   1.855   3.539  0.00  0.00    +0.326 C 
ATOM     23  O   TYR A  2       -1.449   2.212   3.449  0.00  0.00    -0.249 OA
BRANCH  22  24
ATOM     24  OXT TYR A  2       -3.119   1.698   4.636  0.00  0.00    -0.479 OA
ATOM     25  HXT TYR A  2       -4.012   1.424   4.705  0.00  0.00    +0.295 HD
ENDBRANCH  22  24
ENDBRANCH  21  22
BRANCH  21  26
ATOM     26  CB  TYR A  2       -4.119   2.902   1.871  0.00  0.00    +0.069 C 
BRANCH  26  27
ATOM     27  CG  TYR A  2       -5.025   2.626   0.699  0.00  0.00    -0.045 A 
ATOM     28  CD2 TYR A  2       -4.537   2.736  -0.591  0.00  0.00    +0.007 A 
ATOM     29  CE2 TYR A  2       -5.365   2.484  -1.667  0.00  0.00    +0.045 A 
ATOM     30  CZ  TYR A  2       -6.687   2.121  -1.454  0.00  0.00    +0.117 A 
ATOM     31  CE1 TYR A  2       -7.174   2.012  -0.159  0.00  0.00    +0.045 A 
ATOM     32  CD1 TYR A  2       -6.340   2.260   0.914  0.00  0.00    +0.007 A 
BRANCH  30  33
ATOM     33  OH  TYR A  2       -7.504   1.874  -2.511  0.00  0.00    -0.507 OA
ATOM     34  HH  TYR A  2       -7.504   0.951  -2.801  0.00  0.00    +0.292 HD
ENDBRANCH  30  33
ENDBRANCH  26  27
ENDBRANCH  21  26
ENDBRANCH   2  21
TORSDOF 12
