REMARK  Name = ZINC04724399
REMARK                            x       y       z     vdW  Elec       q    Type
REMARK                         _______ _______ _______ _____ _____    ______ ____
ROOT
ATOM      1  C   LIG    1       -0.968   3.136  -0.023  0.00  0.00    +0.025 A 
ATOM      2  C   LIG    1       -2.210   3.737   0.048  0.00  0.00    +0.026 A 
ATOM      3  C   LIG    1       -3.359   2.959   0.038  0.00  0.00    +0.052 A 
ATOM      4  C   LIG    1       -3.261   1.575  -0.049  0.00  0.00    +0.064 A 
ATOM      5 CL   LIG    1       -4.698   0.602  -0.061  0.00  0.00    -0.082 Cl
ATOM      6  C   LIG    1       -2.019   0.975  -0.125  0.00  0.00    +0.045 A 
ATOM      7  C   LIG    1       -0.870   1.754  -0.115  0.00  0.00    +0.035 A 
ENDROOT
BRANCH   3   8
ATOM      8  N   LIG    1       -4.619   3.569   0.115  0.00  0.00    -0.286 N 
ATOM      9  H   LIG    1       -5.341   3.131   0.592  0.00  0.00    +0.155 HD
ATOM     10  C   LIG    1       -4.826   4.763  -0.474  0.00  0.00    +0.201 C 
ATOM     11  O   LIG    1       -3.903   5.349  -0.999  0.00  0.00    -0.278 OA
BRANCH  10  12
ATOM     12  C   LIG    1       -6.205   5.371  -0.480  0.00  0.00    +0.019 C 
BRANCH  12  13
ATOM     13  N   LIG    1       -6.154   6.658  -1.203  0.00  0.00    +0.385 N 
ATOM     14  H   LIG    1       -5.712   6.509  -2.118  0.00  0.00    -0.081 HD
ATOM     15  C   LIG    1       -7.524   7.174  -1.412  0.00  0.00    -0.078 C 
ATOM     16  C   LIG    1       -7.452   8.443  -2.264  0.00  0.00    -0.019 C 
ATOM     17  C   LIG    1       -6.610   9.494  -1.536  0.00  0.00    -0.004 C 
ATOM     18  C   LIG    1       -5.218   8.920  -1.260  0.00  0.00    -0.019 C 
ATOM     19  C   LIG    1       -5.354   7.637  -0.437  0.00  0.00    -0.078 C 
ENDBRANCH  12  13
ENDBRANCH  10  12
ENDBRANCH   3   8
BRANCH   7  20
ATOM     20  N   LIG    1        0.390   1.146  -0.192  0.00  0.00    -0.287 N 
ATOM     21  H   LIG    1        1.140   1.521   0.294  0.00  0.00    +0.155 HD
ATOM     22  C   LIG    1        0.557   0.035  -0.936  0.00  0.00    +0.201 C 
ATOM     23  O   LIG    1       -0.398  -0.483  -1.477  0.00  0.00    -0.278 OA
BRANCH  22  24
ATOM     24  C   LIG    1        1.930  -0.565  -1.097  0.00  0.00    +0.019 C 
BRANCH  24  25
ATOM     25  N   LIG    1        1.831  -1.751  -1.972  0.00  0.00    +0.385 N 
ATOM     26  H   LIG    1        1.339  -1.490  -2.834  0.00  0.00    -0.081 HD
ATOM     27  C   LIG    1        3.184  -2.235  -2.322  0.00  0.00    -0.078 C 
ATOM     28  C   LIG    1        3.057  -3.387  -3.321  0.00  0.00    -0.019 C 
ATOM     29  C   LIG    1        2.252  -4.523  -2.683  0.00  0.00    -0.004 C 
ATOM     30  C   LIG    1        0.881  -3.990  -2.259  0.00  0.00    -0.019 C 
ATOM     31  C   LIG    1        1.071  -2.820  -1.290  0.00  0.00    -0.078 C 
ENDBRANCH  24  25
ENDBRANCH  22  24
ENDBRANCH   7  20
TORSDOF 6
