REMARK  Name = ZINC04426563
REMARK                            x       y       z     vdW  Elec       q    Type
REMARK                         _______ _______ _______ _____ _____    ______ ____
ROOT
ATOM      1  C   LIG    1       -5.379  -1.656  -0.382  0.00  0.00    +0.159 C 
ATOM      2  C   LIG    1       -5.708  -0.273  -1.000  0.00  0.00    +0.160 C 
ATOM      3  C   LIG    1       -4.402   0.568  -0.933  0.00  0.00    +0.039 C 
ATOM      4  C   LIG    1       -3.326  -0.526  -0.855  0.00  0.00    +0.004 C 
ATOM      5  C   LIG    1       -1.938  -0.105  -0.501  0.00  0.00    +0.000 C 
ATOM      6  C   LIG    1       -1.826   1.256   0.186  0.00  0.00    +0.031 C 
ATOM      7  C   LIG    1       -0.353   1.520   0.380  0.00  0.00    -0.027 C 
ATOM      8  C   LIG    1        0.536   0.578   0.461  0.00  0.00    -0.065 C 
ATOM      9  C   LIG    1        0.230  -0.900   0.410  0.00  0.00    -0.008 C 
ATOM     10  C   LIG    1        0.816  -1.568   1.657  0.00  0.00    +0.016 C 
ATOM     11  C   LIG    1        0.875  -1.497  -0.833  0.00  0.00    +0.014 C 
ATOM     12  C   LIG    1        1.946  -0.567  -1.395  0.00  0.00    +0.032 C 
ATOM     13  C   LIG    1        2.822   0.060  -0.322  0.00  0.00    +0.119 C 
ATOM     14  C   LIG    1        1.998   0.965   0.597  0.00  0.00    +0.062 C 
ATOM     15  C   LIG    1       -1.277  -1.135   0.428  0.00  0.00    +0.003 C 
ATOM     16  C   LIG    1       -1.663  -2.538  -0.020  0.00  0.00    +0.005 C 
ATOM     17  C   LIG    1       -3.160  -2.796   0.206  0.00  0.00    +0.010 C 
ATOM     18  C   LIG    1       -3.945  -1.506   0.161  0.00  0.00    +0.010 C 
ATOM     19  C   LIG    1       -4.070  -0.900   1.562  0.00  0.00    +0.015 C 
ATOM     20  O   LIG    1       -5.646  -1.480  -1.767  0.00  0.00    -0.356 OA
ENDROOT
BRANCH   1  22
ATOM     21  C   LIG    1       -7.499  -3.156  -0.132  0.00  0.00    +0.089 C 
ATOM     22  C   LIG    1       -6.367  -2.382   0.492  0.00  0.00    +0.165 C 
ATOM     23  O   LIG    1       -6.251  -2.344   1.694  0.00  0.00    -0.295 OA
ENDBRANCH   1  22
BRANCH  13  24
ATOM     24  O   LIG    1        3.483  -0.952   0.436  0.00  0.00    -0.391 OA
ATOM     25  H   LIG    1        4.056  -0.609   1.136  0.00  0.00    +0.210 HD
ENDBRANCH  13  24
TORSDOF 2
