REMARK  Name = ZINC04475165
REMARK                            x       y       z     vdW  Elec       q    Type
REMARK                         _______ _______ _______ _____ _____    ______ ____
ROOT
ATOM      1  C   LIG    1       -3.610  -0.282  -1.049  0.00  0.00    +0.233 C 
ATOM      2  N   LIG    1       -4.075  -1.546  -1.103  0.00  0.00    -0.314 N 
ATOM      3  H   LIG    1       -3.454  -2.291  -1.125  0.00  0.00    +0.149 HD
ATOM      4  O   LIG    1       -4.384   0.644  -0.932  0.00  0.00    -0.274 OA
ENDROOT
BRANCH   1   5
ATOM      5  C   LIG    1       -2.128  -0.021  -1.133  0.00  0.00    +0.159 C 
BRANCH   5   6
ATOM      6  N   LIG    1       -1.900   1.376  -1.512  0.00  0.00    -0.302 N 
ATOM      7  H   LIG    1       -2.550   2.055  -1.276  0.00  0.00    +0.150 HD
ATOM      8  C   LIG    1       -0.785   1.716  -2.189  0.00  0.00    +0.246 C 
ATOM      9  O   LIG    1       -0.016   0.857  -2.563  0.00  0.00    -0.273 OA
BRANCH   8  10
ATOM     10  C   LIG    1       -0.495   3.166  -2.482  0.00  0.00    +0.244 C 
ATOM     11  C   LIG    1       -1.437   3.903  -3.436  0.00  0.00    +0.265 C 
ATOM     12  O   LIG    1       -0.114   3.513  -3.815  0.00  0.00    -0.347 OA
BRANCH  11  13
ATOM     13  C   LIG    1       -2.593   3.131  -4.017  0.00  0.00    +0.337 C 
ATOM     14  O   LIG    1       -3.477   2.715  -3.288  0.00  0.00    -0.248 OA
BRANCH  13  15
ATOM     15  O   LIG    1       -2.645   2.922  -5.217  0.00  0.00    -0.479 OA
ATOM     16  H   LIG    1       -1.966   3.242  -5.778  0.00  0.00    +0.295 HD
ENDBRANCH  13  15
ENDBRANCH  11  13
ENDBRANCH   8  10
ENDBRANCH   5   6
BRANCH   5  17
ATOM     17  C   LIG    1       -1.484  -0.291   0.228  0.00  0.00    +0.034 C 
BRANCH  17  19
ATOM     18  C   LIG    1       -0.760  -2.595  -0.414  0.00  0.00    +0.007 C 
ATOM     19  C   LIG    1       -1.608  -1.779   0.564  0.00  0.00    -0.015 C 
ATOM     20  C   LIG    1       -1.115  -2.022   1.992  0.00  0.00    +0.007 C 
ENDBRANCH  17  19
ENDBRANCH   5  17
ENDBRANCH   1   5
BRANCH   2  21
ATOM     21  C   LIG    1       -5.519  -1.795  -1.128  0.00  0.00    +0.104 C 
BRANCH  21  22
ATOM     22  C   LIG    1       -5.776  -3.302  -1.189  0.00  0.00    +0.022 C 
BRANCH  22  23
ATOM     23  C   LIG    1       -7.283  -3.562  -1.216  0.00  0.00    +0.038 C 
BRANCH  23  24
ATOM     24  C   LIG    1       -7.540  -5.069  -1.277  0.00  0.00    +0.196 C 
BRANCH  24  25
ATOM     25  N   LIG    1       -8.984  -5.317  -1.303  0.00  0.00    -0.279 N 
ATOM     26  H   LIG    1       -9.604  -4.572  -1.281  0.00  0.00    +0.258 HD
BRANCH  25  27
ATOM     27  C   LIG    1       -9.456  -6.600  -1.357  0.00  0.00    +0.341 C 
ATOM     28  N   LIG    1      -10.768  -6.826  -1.381  0.00  0.00    -0.292 N 
ATOM     29  H   LIG    1      -11.103  -7.735  -1.419  0.00  0.00    +0.255 HD
ATOM     30  H   LIG    1      -11.389  -6.081  -1.359  0.00  0.00    +0.255 HD
BRANCH  27  31
ATOM     31  N   LIG    1       -8.603  -7.623  -1.387  0.00  0.00    -0.292 N 
ATOM     32  H   LIG    1       -8.938  -8.532  -1.426  0.00  0.00    +0.255 HD
ATOM     33  H   LIG    1       -7.647  -7.458  -1.371  0.00  0.00    +0.255 HD
ENDBRANCH  27  31
ENDBRANCH  25  27
ENDBRANCH  24  25
ENDBRANCH  23  24
ENDBRANCH  22  23
ENDBRANCH  21  22
ENDBRANCH   2  21
TORSDOF 14
