REMARK  Name = ZINC04658574
REMARK                            x       y       z     vdW  Elec       q    Type
REMARK                         _______ _______ _______ _____ _____    ______ ____
ROOT
ATOM      1  C   LIG    1        1.177   1.588  -0.001  0.00  0.00    +0.314 C 
ATOM      2  O   LIG    1        2.199   0.944  -0.014  0.00  0.00    -0.250 OA
ENDROOT
BRANCH   1   3
ATOM      3  O   LIG    1       -0.011   0.963   0.007  0.00  0.00    -0.480 OA
ATOM      4  H   LIG    1       -0.804   1.462   0.018  0.00  0.00    +0.295 HD
ENDBRANCH   1   3
BRANCH   1   5
ATOM      5  C   LIG    1        1.235   3.094   0.007  0.00  0.00    +0.186 C 
BRANCH   5   6
ATOM      6  S   LIG    1        2.967   3.632  -0.007  0.00  0.00    -0.167 S 
ATOM      7  H   LIG    1        2.891   4.975   0.001  0.00  0.00    +0.102 HD
ENDBRANCH   5   6
ENDBRANCH   1   5
TORSDOF 3
