REMARK  Name = ZINC04578150
REMARK                            x       y       z     vdW  Elec       q    Type
REMARK                         _______ _______ _______ _____ _____    ______ ____
ROOT
ATOM      1  C   LIG    1        0.859   0.231   4.830  0.00  0.00    +0.061 C 
ATOM      2  C   LIG    1       -0.314   1.176   4.774  0.00  0.00    +0.021 C 
ATOM      3  C   LIG    1       -0.629   1.774   3.605  0.00  0.00    +0.078 C 
ATOM      4  C   LIG    1       -1.812   2.721   3.594  0.00  0.00    +0.143 C 
ATOM      5  N   LIG    1       -2.532   2.904   4.866  0.00  0.00    -0.288 N 
ATOM      6  H   LIG    1       -3.300   3.494   4.921  0.00  0.00    +0.151 HD
ATOM      7  C   LIG    1       -2.096   2.236   5.952  0.00  0.00    +0.304 C 
ATOM      8  O   LIG    1       -2.680   2.383   7.008  0.00  0.00    -0.252 OA
ATOM      9  N   LIG    1       -1.040   1.414   5.906  0.00  0.00    -0.273 N 
ATOM     10  H   LIG    1       -0.775   0.962   6.723  0.00  0.00    +0.156 HD
ENDROOT
BRANCH   4  11
ATOM     11  C   LIG    1       -1.323   4.070   3.134  0.00  0.00    -0.022 A 
ATOM     12  C   LIG    1       -0.682   4.913   4.023  0.00  0.00    +0.008 A 
ATOM     13  C   LIG    1       -0.229   6.149   3.599  0.00  0.00    +0.033 A 
ATOM     14  C   LIG    1       -0.426   6.545   2.290  0.00  0.00    +0.122 A 
ATOM     15  C   LIG    1       -1.071   5.705   1.402  0.00  0.00    +0.033 A 
ATOM     16  C   LIG    1       -1.520   4.467   1.825  0.00  0.00    +0.008 A 
BRANCH  14  17
ATOM     17  N   LIG    1        0.054   7.871   1.838  0.00  0.00    +0.006 N 
ATOM     18  O   LIG    1       -0.119   8.220   0.684  0.00  0.00    -0.130 OA
BRANCH  17  19
ATOM     19  O   LIG    1        0.622   8.612   2.620  0.00  0.00    -0.396 OA
ATOM     20  H   LIG    1        0.756   8.343   3.507  0.00  0.00    +0.329 HD
ENDBRANCH  17  19
ENDBRANCH  14  17
ENDBRANCH   4  11
BRANCH   3  21
ATOM     21  C   LIG    1        0.122   1.530   2.432  0.00  0.00    +0.339 C 
ATOM     22  O   LIG    1        1.144   0.871   2.490  0.00  0.00    -0.245 OA
BRANCH  21  23
ATOM     23  O   LIG    1       -0.293   2.027   1.249  0.00  0.00    -0.457 OA
BRANCH  23  24
ATOM     24  C   LIG    1        0.515   1.741   0.105  0.00  0.00    +0.259 C 
BRANCH  24  25
ATOM     25  C   LIG    1       -0.101   2.373  -1.116  0.00  0.00    +0.006 C 
ATOM     26  C   LIG    1        0.651   3.027  -1.966  0.00  0.00    +0.007 C 
ENDBRANCH  24  25
ENDBRANCH  23  24
ENDBRANCH  21  23
ENDBRANCH   3  21
TORSDOF 7
