REMARK  Name = ZINC04245664
REMARK                            x       y       z     vdW  Elec       q    Type
REMARK                         _______ _______ _______ _____ _____    ______ ____
ROOT
ATOM      1  C   LIG    1        2.966   1.476   0.069  0.00  0.00    +0.185 C 
ATOM      2  C   LIG    1        1.672   0.695   0.287  0.00  0.00    +0.052 C 
ATOM      3  C   LIG    1        0.525   1.462  -0.385  0.00  0.00    +0.012 C 
ATOM      4  C   LIG    1       -0.786   0.695  -0.209  0.00  0.00    +0.012 C 
ATOM      5  C   LIG    1        0.422   2.810   0.282  0.00  0.00    -0.020 C 
ATOM      6  C   LIG    1        1.492   3.417   0.759  0.00  0.00    -0.044 C 
ATOM      7  C   LIG    1        1.331   4.686   1.505  0.00  0.00    -0.000 C 
ATOM      8  C   LIG    1        2.319   5.135   2.259  0.00  0.00    -0.023 C 
ATOM      9  C   LIG    1        3.640   4.444   2.412  0.00  0.00    +0.012 C 
ATOM     10  C   LIG    1        4.674   5.143   1.527  0.00  0.00    +0.012 C 
ATOM     11  C   LIG    1        3.555   2.970   2.011  0.00  0.00    +0.007 C 
ATOM     12  C   LIG    1        2.885   2.872   0.639  0.00  0.00    +0.063 C 
ENDROOT
BRANCH   1  13
ATOM     13  O   LIG    1        4.059   0.767   0.711  0.00  0.00    -0.461 OA
BRANCH  13  14
ATOM     14  C   LIG    1        4.635  -0.225   0.013  0.00  0.00    +0.310 C 
ATOM     15  O   LIG    1        4.305  -0.429  -1.131  0.00  0.00    -0.251 OA
BRANCH  14  16
ATOM     16  C   LIG    1        5.691  -1.085   0.658  0.00  0.00    +0.094 C 
ATOM     17  C   LIG    1        5.069  -1.884   1.804  0.00  0.00    +0.019 C 
BRANCH  16  19
ATOM     18  C   LIG    1        7.438  -2.820   0.233  0.00  0.00    +0.004 C 
ATOM     19  C   LIG    1        6.268  -2.049  -0.381  0.00  0.00    +0.011 C 
ENDBRANCH  16  19
ENDBRANCH  14  16
ENDBRANCH  13  14
ENDBRANCH   1  13
BRANCH  11  20
ATOM     20  C   LIG    1        4.962   2.373   1.938  0.00  0.00    +0.008 C 
BRANCH  20  21
ATOM     21  C   LIG    1        5.806   2.914   3.094  0.00  0.00    +0.045 C 
BRANCH  21  22
ATOM     22  C   LIG    1        7.248   2.425   2.946  0.00  0.00    +0.179 C 
ATOM     23  C   LIG    1        8.118   3.057   4.036  0.00  0.00    +0.076 C 
ATOM     24  C   LIG    1        9.549   2.524   3.917  0.00  0.00    +0.129 C 
ATOM     25  C   LIG    1        9.529   1.000   4.085  0.00  0.00    +0.152 C 
ATOM     26  C   LIG    1        8.518   0.426   3.117  0.00  0.00    +0.310 C 
ATOM     27  O   LIG    1        8.805  -0.499   2.395  0.00  0.00    -0.251 OA
ATOM     28  O   LIG    1        7.287   0.977   3.083  0.00  0.00    -0.461 OA
BRANCH  24  29
ATOM     29  O   LIG    1       10.363   3.107   4.936  0.00  0.00    -0.391 OA
ATOM     30  H   LIG    1       11.284   2.813   4.920  0.00  0.00    +0.210 HD
ENDBRANCH  24  29
ENDBRANCH  21  22
ENDBRANCH  20  21
ENDBRANCH  11  20
TORSDOF 8
