REMARK  Name = ZINC04228235
REMARK                            x       y       z     vdW  Elec       q    Type
REMARK                         _______ _______ _______ _____ _____    ______ ____
ROOT
ATOM      1  C   UNK A  0       -3.136  -3.719   0.292  0.00  0.00    +0.015 A 
ATOM      2  C   UNK A  0       -2.901  -2.363   0.274  0.00  0.00    +0.023 A 
ATOM      3  C   UNK A  0       -1.600  -1.882   0.150  0.00  0.00    +0.027 A 
ATOM      4  C   UNK A  0       -0.534  -2.771   0.037  0.00  0.00    +0.023 A 
ATOM      5  C   UNK A  0       -0.762  -4.128   0.059  0.00  0.00    +0.015 A 
ATOM      6  C   UNK A  0       -2.067  -4.614   0.184  0.00  0.00    +0.037 A 
ENDROOT
BRANCH   6   7
ATOM      7  C   UNK A  0       -2.316  -6.067   0.203  0.00  0.00    +0.245 C 
ATOM      8  N   GLU A  1       -1.284  -6.929   0.099  0.00  0.00    -0.298 N 
ATOM      9  H   GLU A  1       -0.379  -6.593   0.012  0.00  0.00    +0.150 HD
ATOM     10  O   UNK A  0       -3.451  -6.489   0.312  0.00  0.00    -0.270 OA
BRANCH   8  11
ATOM     11  CA  GLU A  1       -1.531  -8.373   0.118  0.00  0.00    +0.182 C 
BRANCH  11  12
ATOM     12  C   GLU A  1       -1.600  -8.852   1.545  0.00  0.00    +0.325 C 
ATOM     13  O   GLU A  1       -1.457  -8.068   2.454  0.00  0.00    -0.249 OA
BRANCH  12  14
ATOM     14  OXT GLU A  1       -1.819 -10.150   1.808  0.00  0.00    -0.479 OA
ATOM     15  HXT GLU A  1       -1.930 -10.758   1.103  0.00  0.00    +0.295 HD
ENDBRANCH  12  14
ENDBRANCH  11  12
BRANCH  11  16
ATOM     16  CB  GLU A  1       -0.394  -9.094  -0.608  0.00  0.00    +0.045 C 
BRANCH  16  17
ATOM     17  CG  GLU A  1       -0.403  -8.701  -2.087  0.00  0.00    +0.123 C 
BRANCH  17  18
ATOM     18  CD  GLU A  1        0.717  -9.412  -2.802  0.00  0.00    +0.305 C 
ATOM     19  OE1 GLU A  1        1.448 -10.156  -2.191  0.00  0.00    -0.251 OA
BRANCH  18  20
ATOM     20  OE2 GLU A  1        0.904  -9.218  -4.117  0.00  0.00    -0.481 OA
ATOM     21  HE2 GLU A  1        0.337  -8.641  -4.590  0.00  0.00    +0.295 HD
ENDBRANCH  18  20
ENDBRANCH  17  18
ENDBRANCH  16  17
ENDBRANCH  11  16
ENDBRANCH   8  11
ENDBRANCH   6   7
BRANCH   3  22
ATOM     22  N   UNK A  0       -1.366  -0.512   0.133  0.00  0.00    -0.342 N 
ATOM     23  H   UNK A  0       -2.108   0.108   0.207  0.00  0.00    +0.146 HD
BRANCH  22  24
ATOM     24  C   UNK A  0        0.002  -0.004   0.002  0.00  0.00    +0.125 C 
BRANCH  24  25
ATOM     25  C   UNK A  0       -0.019   1.526   0.010  0.00  0.00    +0.105 C 
ATOM     26  C   UNK A  0        1.421   2.059  -0.000  0.00  0.00    +0.126 C 
ATOM     27  N   UNK A  0        1.345   3.529  -0.024  0.00  0.00    -0.326 N 
ATOM     28  H   UNK A  0        1.937   4.052  -0.586  0.00  0.00    +0.148 HD
ATOM     29  C   UNK A  0        0.398   4.143   0.785  0.00  0.00    +0.149 A 
ATOM     30  C   UNK A  0       -0.600   3.395   1.388  0.00  0.00    +0.133 A 
ATOM     31  C   UNK A  0       -1.542   4.059   2.191  0.00  0.00    +0.276 A 
ATOM     32  N   UNK A  0       -1.438   5.394   2.346  0.00  0.00    -0.294 N 
ATOM     33  C   UNK A  0       -0.434   6.080   1.735  0.00  0.00    +0.195 A 
ATOM     34  H   UNK A  0       -2.102   5.883   2.913  0.00  0.00    +0.172 HD
ATOM     35  O   UNK A  0       -2.439   3.437   2.739  0.00  0.00    -0.266 OA
ATOM     36  N   UNK A  0        0.452   5.467   0.981  0.00  0.00    -0.199 NA
ATOM     37  N   UNK A  0       -0.695   2.001   1.222  0.00  0.00    -0.331 N 
ATOM     38  H   UNK A  0       -1.657   1.699   1.241  0.00  0.00    +0.147 HD
BRANCH  33  39
ATOM     39  N   UNK A  0       -0.344   7.438   1.910  0.00  0.00    -0.329 N 
ATOM     40  H   UNK A  0        0.368   7.936   1.479  0.00  0.00    +0.145 HD
ATOM     41  H   UNK A  0       -0.992   7.900   2.464  0.00  0.00    +0.145 HD
ENDBRANCH  33  39
ENDBRANCH  24  25
ENDBRANCH  22  24
ENDBRANCH   3  22
TORSDOF 12
