REMARK  Name = ZINC04530702
REMARK                            x       y       z     vdW  Elec       q    Type
REMARK                         _______ _______ _______ _____ _____    ______ ____
ROOT
ATOM      1  C   LIG    1        3.717  -2.072  -0.046  0.00  0.00    +0.097 C 
ATOM      2  C   LIG    1        4.932  -2.748  -0.062  0.00  0.00    +0.128 C 
ENDROOT
BRANCH   2   3
ATOM      3  C   LIG    1        4.956  -4.224  -0.070  0.00  0.00    +0.017 A 
ATOM      4  C   LIG    1        3.760  -4.945  -0.068  0.00  0.00    +0.011 A 
ATOM      5  C   LIG    1        3.790  -6.324  -0.075  0.00  0.00    +0.001 A 
ATOM      6  C   LIG    1        5.001  -6.993  -0.086  0.00  0.00    +0.000 A 
ATOM      7  C   LIG    1        6.190  -6.285  -0.088  0.00  0.00    +0.001 A 
ATOM      8  C   LIG    1        6.175  -4.906  -0.087  0.00  0.00    +0.011 A 
ENDBRANCH   2   3
BRANCH   1   9
ATOM      9  C   LIG    1        3.695  -0.683  -0.038  0.00  0.00    +0.190 C 
ATOM     10  O   LIG    1        4.840   0.004  -0.046  0.00  0.00    -0.287 OA
BRANCH   9  14
ATOM     11  C   LIG    1       -0.017   1.380   0.010  0.00  0.00    +0.000 A 
ATOM     12  C   LIG    1        1.168   2.094   0.002  0.00  0.00    +0.001 A 
ATOM     13  C   LIG    1        2.377   1.431  -0.013  0.00  0.00    +0.012 A 
ATOM     14  C   LIG    1        2.404   0.034  -0.021  0.00  0.00    +0.022 A 
ATOM     15  C   LIG    1        1.204  -0.681  -0.013  0.00  0.00    +0.012 A 
ATOM     16  C   LIG    1        0.002  -0.004   0.002  0.00  0.00    +0.001 A 
ENDBRANCH   9  14
ENDBRANCH   1   9
BRANCH   2  17
ATOM     17  O   LIG    1        6.078  -2.061  -0.070  0.00  0.00    -0.506 OA
ATOM     18  H   LIG    1        6.062  -1.124  -0.065  0.00  0.00    +0.292 HD
ENDBRANCH   2  17
TORSDOF 4
