REMARK  Name = ZINC04275736
REMARK                            x       y       z     vdW  Elec       q    Type
REMARK                         _______ _______ _______ _____ _____    ______ ____
ROOT
ATOM      1  C   LIG    1        1.521   0.040   6.116  0.00  0.00    +0.249 C 
ATOM      2  N   LIG    1        2.631  -0.723   6.151  0.00  0.00    -0.275 N 
ATOM      3  H   LIG    1        3.049  -1.010   5.323  0.00  0.00    +0.156 HD
ATOM      4  O   LIG    1        0.998   0.401   7.152  0.00  0.00    -0.270 OA
ENDROOT
BRANCH   1   8
ATOM      5  C   LIG    1       -0.149   1.182   2.379  0.00  0.00    +0.162 A 
ATOM      6  C   LIG    1        0.995   0.397   2.417  0.00  0.00    +0.050 A 
ATOM      7  C   LIG    1        1.539   0.025   3.627  0.00  0.00    +0.017 A 
ATOM      8  C   LIG    1        0.940   0.438   4.819  0.00  0.00    +0.041 A 
ATOM      9  C   LIG    1       -0.212   1.229   4.781  0.00  0.00    +0.062 A 
ATOM     10  C   LIG    1       -0.749   1.603   3.565  0.00  0.00    +0.162 A 
BRANCH   5  12
ATOM     11  C   LIG    1       -0.013   1.086   0.008  0.00  0.00    +0.277 C 
ATOM     12  O   LIG    1       -0.682   1.547   1.184  0.00  0.00    -0.491 OA
ENDBRANCH   5  12
BRANCH  10  13
ATOM     13  O   LIG    1       -1.866   2.378   3.524  0.00  0.00    -0.491 OA
ATOM     14  C   LIG    1       -2.428   2.772   4.777  0.00  0.00    +0.277 C 
ENDBRANCH  10  13
ENDBRANCH   1   8
BRANCH   2  15
ATOM     15  C   LIG    1        3.177  -1.096   7.368  0.00  0.00    +0.084 A 
ATOM     16  C   LIG    1        4.303  -1.876   7.607  0.00  0.00    +0.065 A 
ATOM     17  C   LIG    1        4.652  -2.107   8.988  0.00  0.00    +0.022 A 
ATOM     18  C   LIG    1        3.854  -1.558   9.923  0.00  0.00    +0.048 A 
ATOM     19  S   LIG    1        2.618  -0.711   8.961  0.00  0.00    -0.081 S 
BRANCH  16  20
ATOM     20  C   LIG    1        5.100  -2.433   6.509  0.00  0.00    +0.244 C 
ATOM     21  N   LIG    1        6.185  -3.185   6.779  0.00  0.00    -0.325 N 
ATOM     22  H   LIG    1        6.712  -3.554   6.053  0.00  0.00    +0.145 HD
ATOM     23  H   LIG    1        6.439  -3.358   7.699  0.00  0.00    +0.145 HD
ATOM     24  O   LIG    1        4.780  -2.217   5.355  0.00  0.00    -0.270 OA
ENDBRANCH  16  20
ENDBRANCH   2  15
TORSDOF 5
