REMARK  Name = ZINC04356960
REMARK                            x       y       z     vdW  Elec       q    Type
REMARK                         _______ _______ _______ _____ _____    ______ ____
ROOT
ATOM      1  N   LIG    1        0.688  -0.476  -1.203  0.00  0.00    -0.242 N 
ATOM      2  C   LIG    1        1.770  -1.226  -1.085  0.00  0.00    +0.259 C 
ATOM      3  C   LIG    1        2.413  -1.669  -2.280  0.00  0.00    +0.077 C 
ATOM      4  S   LIG    1        1.359  -0.938  -3.525  0.00  0.00    -0.061 S 
ATOM      5  C   LIG    1        3.538  -2.449  -2.432  0.00  0.00    +0.020 C 
ATOM      6  O   LIG    1        2.206  -1.530   0.011  0.00  0.00    -0.269 OA
ATOM      7  C   LIG    1        0.201  -0.144  -2.420  0.00  0.00    +0.121 C 
ATOM      8  S   LIG    1       -1.174   0.800  -2.804  0.00  0.00    -0.027 S 
ENDROOT
BRANCH   1  10
ATOM      9  C   LIG    1       -0.019   1.526   0.010  0.00  0.00    +0.040 C 
ATOM     10  C   LIG    1        0.002  -0.004   0.002  0.00  0.00    +0.188 C 
BRANCH  10  11
ATOM     11  C   LIG    1       -1.412  -0.526   0.013  0.00  0.00    +0.326 C 
ATOM     12  O   LIG    1       -1.994  -0.731  -1.039  0.00  0.00    -0.249 OA
BRANCH  11  13
ATOM     13  O   LIG    1       -1.974  -0.742   1.073  0.00  0.00    -0.479 OA
ATOM     14  H   LIG    1       -1.526  -0.585   1.881  0.00  0.00    +0.295 HD
ENDBRANCH  11  13
ENDBRANCH  10  11
ENDBRANCH   1  10
BRANCH   5  15
ATOM     15  C   LIG    1        4.002  -2.768  -3.717  0.00  0.00    +0.005 C 
ATOM     16  C   LIG    1        5.114  -3.538  -3.868  0.00  0.00    +0.046 C 
BRANCH  16  17
ATOM     17  C   LIG    1        5.582  -3.860  -5.163  0.00  0.00    +0.128 A 
ATOM     18  C   LIG    1        6.687  -4.632  -5.461  0.00  0.00    +0.049 A 
ATOM     19  C   LIG    1        6.772  -4.685  -6.861  0.00  0.00    +0.042 A 
ATOM     20  C   LIG    1        5.741  -3.962  -7.352  0.00  0.00    +0.195 A 
ATOM     21  O   LIG    1        5.024  -3.472  -6.329  0.00  0.00    -0.464 OA
ENDBRANCH  16  17
ENDBRANCH   5  15
TORSDOF 5
