REMARK  Name = ZINC04175523
REMARK                            x       y       z     vdW  Elec       q    Type
REMARK                         _______ _______ _______ _____ _____    ______ ____
ROOT
ATOM      1  C   LIG    1        4.992  -2.739  -0.061  0.00  0.00    +0.186 C 
ATOM      2  O   LIG    1        6.037  -2.113  -0.068  0.00  0.00    -0.287 OA
ENDROOT
BRANCH   1   3
ATOM      3  C   LIG    1        5.017  -4.216  -0.070  0.00  0.00    +0.022 A 
ATOM      4  C   LIG    1        3.820  -4.937  -0.067  0.00  0.00    +0.015 A 
ATOM      5  C   LIG    1        3.847  -6.313  -0.075  0.00  0.00    +0.046 A 
ATOM      6  C   LIG    1        5.063  -6.986  -0.085  0.00  0.00    +0.117 A 
ATOM      7  C   LIG    1        6.256  -6.273  -0.087  0.00  0.00    +0.046 A 
ATOM      8  C   LIG    1        6.238  -4.896  -0.085  0.00  0.00    +0.015 A 
BRANCH   6   9
ATOM      9  O   LIG    1        5.086  -8.343  -0.092  0.00  0.00    -0.507 OA
ATOM     10  H   LIG    1        5.088  -8.732  -0.977  0.00  0.00    +0.292 HD
ENDBRANCH   6   9
ENDBRANCH   1   3
BRANCH   1  12
ATOM     11  C   LIG    1        3.691  -0.679  -0.037  0.00  0.00    +0.011 C 
ATOM     12  C   LIG    1        3.714  -2.029  -0.045  0.00  0.00    +0.052 C 
BRANCH  11  16
ATOM     13  C   LIG    1       -0.017   1.380   0.010  0.00  0.00    +0.000 A 
ATOM     14  C   LIG    1        1.168   2.096   0.002  0.00  0.00    +0.001 A 
ATOM     15  C   LIG    1        2.377   1.434  -0.013  0.00  0.00    +0.008 A 
ATOM     16  C   LIG    1        2.405   0.035  -0.021  0.00  0.00    -0.025 A 
ATOM     17  C   LIG    1        1.203  -0.681  -0.013  0.00  0.00    +0.008 A 
ATOM     18  C   LIG    1        0.002  -0.004   0.002  0.00  0.00    +0.001 A 
ENDBRANCH  11  16
ENDBRANCH   1  12
TORSDOF 4
