REMARK  Name = ZINC04523158
REMARK                            x       y       z     vdW  Elec       q    Type
REMARK                         _______ _______ _______ _____ _____    ______ ____
ROOT
ATOM      1  C   LIG    1        3.591  -0.825  -0.037  0.00  0.00    +0.086 A 
ATOM      2  C   LIG    1        4.792  -0.107  -0.050  0.00  0.00    +0.032 A 
ATOM      3  C   LIG    1        5.984  -0.771  -0.059  0.00  0.00    +0.032 A 
ATOM      4  C   LIG    1        6.006  -2.171  -0.067  0.00  0.00    +0.086 A 
ATOM      5  C   LIG    1        4.804  -2.889  -0.060  0.00  0.00    +0.032 A 
ATOM      6  C   LIG    1        3.612  -2.224  -0.044  0.00  0.00    +0.032 A 
ENDROOT
BRANCH   1   8
ATOM      7  N   LIG    1        2.379   1.129  -0.015  0.00  0.00    -0.147 NA
ATOM      8  N   LIG    1        2.398  -0.161  -0.022  0.00  0.00    -0.149 NA
BRANCH   7  12
ATOM      9  C   LIG    1       -2.496   0.964   0.019  0.00  0.00    +0.046 C 
ATOM     10  C   LIG    1       -1.205   1.741   0.017  0.00  0.00    -0.028 A 
ATOM     11  C   LIG    1       -0.013   1.076   0.008  0.00  0.00    +0.036 A 
ATOM     12  C   LIG    1        1.191   1.791   0.000  0.00  0.00    +0.107 A 
ATOM     13  C   LIG    1        1.166   3.199   0.008  0.00  0.00    +0.054 A 
ATOM     14  C   LIG    1       -0.051   3.861   0.022  0.00  0.00    +0.048 A 
ATOM     15  C   LIG    1       -1.235   3.135   0.030  0.00  0.00    +0.029 A 
BRANCH  13  16
ATOM     16  N   LIG    1        2.355   3.920   0.001  0.00  0.00    -0.356 N 
ATOM     17  H   LIG    1        2.334   4.889   0.006  0.00  0.00    +0.142 HD
ATOM     18  H   LIG    1        3.205   3.453  -0.009  0.00  0.00    +0.142 HD
ENDBRANCH  13  16
BRANCH  15  19
ATOM     19  N   LIG    1       -2.457   3.801   0.045  0.00  0.00    -0.358 N 
ATOM     20  H   LIG    1       -3.285   3.296   0.050  0.00  0.00    +0.142 HD
ATOM     21  H   LIG    1       -2.480   4.771   0.050  0.00  0.00    +0.142 HD
ENDBRANCH  15  19
ENDBRANCH   7  12
ENDBRANCH   1   8
BRANCH   4  22
ATOM     22  N   LIG    1        7.198  -2.835  -0.083  0.00  0.00    -0.149 NA
ATOM     23  N   LIG    1        8.305  -2.173  -0.090  0.00  0.00    -0.149 NA
BRANCH  23  24
ATOM     24  C   LIG    1        9.497  -2.837  -0.106  0.00  0.00    +0.087 A 
ATOM     25  C   LIG    1        9.519  -4.238  -0.115  0.00  0.00    +0.033 A 
ATOM     26  C   LIG    1       10.719  -4.913  -0.131  0.00  0.00    +0.048 A 
ATOM     27  C   LIG    1       11.917  -4.210  -0.139  0.00  0.00    +0.131 A 
ATOM     28  C   LIG    1       11.908  -2.806  -0.132  0.00  0.00    +0.102 A 
ATOM     29  C   LIG    1       10.694  -2.122  -0.119  0.00  0.00    +0.048 A 
BRANCH  27  30
ATOM     30  O   LIG    1       13.095  -4.880  -0.156  0.00  0.00    -0.506 OA
ATOM     31  H   LIG    1       13.428  -5.070  -1.044  0.00  0.00    +0.292 HD
ENDBRANCH  27  30
BRANCH  28  32
ATOM     32  C   LIG    1       13.179  -2.058  -0.141  0.00  0.00    +0.340 C 
ATOM     33  O   LIG    1       14.236  -2.657  -0.156  0.00  0.00    -0.245 OA
BRANCH  32  34
ATOM     34  O   LIG    1       13.168  -0.711  -0.134  0.00  0.00    -0.477 OA
ATOM     35  H   LIG    1       12.353  -0.249  -0.123  0.00  0.00    +0.295 HD
ENDBRANCH  32  34
ENDBRANCH  28  32
ENDBRANCH  23  24
ENDBRANCH   4  22
TORSDOF 9
