REMARK  Name = ZINC04762943
REMARK                            x       y       z     vdW  Elec       q    Type
REMARK                         _______ _______ _______ _____ _____    ______ ____
ROOT
ATOM      1  C   LIG    1        0.022   1.285  -0.787  0.00  0.00    +0.001 A 
ATOM      2  C   LIG    1        1.207   2.018  -0.797  0.00  0.00    +0.001 A 
ATOM      3  C   LIG    1        2.404   1.417  -0.556  0.00  0.00    +0.011 A 
ATOM      4  C   LIG    1        2.450   0.038  -0.291  0.00  0.00    +0.014 A 
ATOM      5  C   LIG    1        1.244  -0.707  -0.280  0.00  0.00    +0.006 A 
ATOM      6  C   LIG    1        1.289  -2.091  -0.014  0.00  0.00    +0.052 A 
ATOM      7  C   LIG    1        2.503  -2.694   0.230  0.00  0.00    +0.027 A 
ATOM      8  C   LIG    1        3.682  -1.953   0.216  0.00  0.00    +0.035 A 
ATOM      9  C   LIG    1        3.668  -0.615  -0.037  0.00  0.00    +0.129 A 
ATOM     10  C   LIG    1        0.028  -0.053  -0.534  0.00  0.00    +0.010 A 
ENDROOT
BRANCH   6  11
ATOM     11  N   LIG    1        0.111  -2.845   0.002  0.00  0.00    -0.209 N 
ATOM     12  C   LIG    1       -0.378  -3.447  -1.088  0.00  0.00    +0.231 C 
ATOM     13  C   LIG    1       -1.653  -4.176  -0.732  0.00  0.00    +0.095 C 
ATOM     14  C   LIG    1       -1.375  -5.711  -0.799  0.00  0.00    +0.025 C 
ATOM     15  C   LIG    1       -2.300  -6.221   0.365  0.00  0.00    +0.016 C 
ATOM     16  C   LIG    1       -1.605  -5.307   1.440  0.00  0.00    +0.025 C 
ATOM     17  C   LIG    1       -0.135  -5.641   1.156  0.00  0.00    -0.027 C 
ATOM     18  C   LIG    1        0.007  -5.870  -0.155  0.00  0.00    -0.027 C 
ATOM     19  C   LIG    1       -1.821  -3.882   0.788  0.00  0.00    +0.095 C 
ATOM     20  O   LIG    1        0.125  -3.414  -2.191  0.00  0.00    -0.274 OA
ATOM     21  C   LIG    1       -0.616  -3.028   1.111  0.00  0.00    +0.231 C 
ATOM     22  O   LIG    1       -0.351  -2.576   2.204  0.00  0.00    -0.274 OA
ENDBRANCH   6  11
BRANCH   9  23
ATOM     23  N   LIG    1        4.934   0.150  -0.045  0.00  0.00    +0.007 N 
ATOM     24  O   LIG    1        5.938  -0.346  -0.501  0.00  0.00    -0.130 OA
BRANCH  23  25
ATOM     25  O   LIG    1        4.966   1.273   0.403  0.00  0.00    -0.396 OA
ATOM     26  H   LIG    1        4.188   1.658   0.756  0.00  0.00    +0.329 HD
ENDBRANCH  23  25
ENDBRANCH   9  23
TORSDOF 3
