REMARK  Name = ZINC04658552
REMARK                            x       y       z     vdW  Elec       q    Type
REMARK                         _______ _______ _______ _____ _____    ______ ____
ROOT
ATOM      1  CA  GLY A  1       -0.018   1.503   0.010  0.00  0.00    +0.036 C 
ENDROOT
BRANCH   1   2
ATOM      2  N   GLY A  1        1.360   2.011  -0.000  0.00  0.00    +0.385 N 
ATOM      3  H1  GLY A  1        1.346   3.020   0.005  0.00  0.00    -0.089 HD
ATOM      4  H2  GLY A  1        1.832   1.686  -0.830  0.00  0.00    -0.089 HD
ATOM      5  H3  GLY A  1        1.848   1.677   0.817  0.00  0.00    -0.089 HD
ENDBRANCH   1   2
BRANCH   1   6
ATOM      6  C   GLY A  1        0.002  -0.004   0.002  0.00  0.00    +0.287 C 
ATOM      7  O   GLY A  1        1.066  -0.599  -0.011  0.00  0.00    -0.253 OA
BRANCH   6   8
ATOM      8  OXT GLY A  1       -1.045  -0.628   0.009  0.00  0.00    -0.482 OA
ATOM      9  HXT GLY A  1       -1.863  -0.171   0.019  0.00  0.00    +0.295 HD
ENDBRANCH   6   8
ENDBRANCH   1   6
TORSDOF 3
