REMARK  Name = ZINC04164735
REMARK                            x       y       z     vdW  Elec       q    Type
REMARK                         _______ _______ _______ _____ _____    ______ ____
ROOT
ATOM      1  C   LIG    1       -0.024   1.188  -0.091  0.00  0.00    +0.120 C 
ENDROOT
BRANCH   1   2
ATOM      2  C   LIG    1        1.305   1.890   0.022  0.00  0.00    +0.017 A 
ATOM      3  C   LIG    1        1.375   3.131   0.649  0.00  0.00    +0.010 A 
ATOM      4  C   LIG    1        2.560   3.790   0.767  0.00  0.00    +0.010 A 
ATOM      5  C   LIG    1        3.732   3.214   0.249  0.00  0.00    +0.004 A 
ATOM      6  C   LIG    1        4.976   3.866   0.352  0.00  0.00    +0.012 A 
ATOM      7  C   LIG    1        6.073   3.246  -0.173  0.00  0.00    +0.023 A 
ATOM      8  C   LIG    1        5.941   2.003  -0.789  0.00  0.00    +0.039 A 
ATOM      9  C   LIG    1        7.164   1.335  -1.363  0.00  0.00    +0.065 C 
ATOM     10  N   LIG    1        4.781   1.400  -0.883  0.00  0.00    -0.248 NA
ATOM     11  C   LIG    1        3.669   1.952  -0.390  0.00  0.00    +0.113 A 
ATOM     12  C   LIG    1        2.424   1.296  -0.488  0.00  0.00    +0.148 A 
BRANCH  12  13
ATOM     13  O   LIG    1        2.338   0.082  -1.092  0.00  0.00    -0.504 OA
ATOM     14  H   LIG    1        2.170   0.126  -2.043  0.00  0.00    +0.292 HD
ENDBRANCH  12  13
ENDBRANCH   1   2
BRANCH   1  15
ATOM     15  C   LIG    1       -0.654   1.517  -1.419  0.00  0.00    -0.019 A 
ATOM     16  C   LIG    1       -1.195   2.770  -1.635  0.00  0.00    +0.055 A 
ATOM     17  C   LIG    1       -1.771   3.078  -2.858  0.00  0.00    +0.165 A 
ATOM     18  C   LIG    1       -1.814   2.121  -3.864  0.00  0.00    +0.204 A 
ATOM     19  C   LIG    1       -1.274   0.860  -3.642  0.00  0.00    +0.165 A 
ATOM     20  C   LIG    1       -0.696   0.561  -2.418  0.00  0.00    +0.055 A 
BRANCH  17  21
ATOM     21  O   LIG    1       -2.298   4.314  -3.071  0.00  0.00    -0.491 OA
ATOM     22  C   LIG    1       -2.321   5.210  -1.958  0.00  0.00    +0.277 C 
ENDBRANCH  17  21
BRANCH  18  23
ATOM     23  O   LIG    1       -2.384   2.417  -5.064  0.00  0.00    -0.488 OA
ATOM     24  C   LIG    1       -3.781   2.153  -5.202  0.00  0.00    +0.277 C 
ENDBRANCH  18  23
BRANCH  19  25
ATOM     25  O   LIG    1       -1.314  -0.081  -4.623  0.00  0.00    -0.491 OA
ATOM     26  C   LIG    1       -0.741  -1.355  -4.324  0.00  0.00    +0.277 C 
ENDBRANCH  19  25
ENDBRANCH   1  15
BRANCH   1  27
ATOM     27  N   LIG    1       -0.905   1.635   0.992  0.00  0.00    -0.290 NA
ATOM     28  H   LIG    1       -1.537   2.354   0.837  0.00  0.00    +0.124 HD
BRANCH  27  33
ATOM     29  C   LIG    1       -2.683   1.224   5.417  0.00  0.00    +0.024 C 
ATOM     30  C   LIG    1       -1.671   0.810   4.380  0.00  0.00    +0.052 C 
ATOM     31  N   LIG    1       -1.756   1.419   3.168  0.00  0.00    -0.299 NA
ATOM     32  H   LIG    1       -2.468   2.130   2.962  0.00  0.00    +0.124 HD
ATOM     33  C   LIG    1       -0.834   1.028   2.240  0.00  0.00    +0.122 C 
ATOM     34  C   LIG    1        0.150   0.078   2.490  0.00  0.00    +0.034 C 
ATOM     35  C   LIG    1        0.210  -0.517   3.738  0.00  0.00    +0.004 C 
ATOM     36  C   LIG    1       -0.721  -0.140   4.697  0.00  0.00    +0.018 C 
ENDBRANCH  27  33
ENDBRANCH   1  27
TORSDOF 8
