REMARK  Name = ZINC04765030
REMARK                            x       y       z     vdW  Elec       q    Type
REMARK                         _______ _______ _______ _____ _____    ______ ____
ROOT
ATOM      1  C   LIG    1        1.174  -2.168  -0.169  0.00  0.00    +0.040 C 
ATOM      2  C   LIG    1        1.165  -0.661  -0.147  0.00  0.00    -0.052 C 
ATOM      3  C   LIG    1        0.002  -0.004   0.002  0.00  0.00    +0.065 C 
ATOM      4  C   LIG    1       -0.018   1.476   0.010  0.00  0.00    +0.340 C 
ATOM      5  O   LIG    1        1.173   2.131   0.002  0.00  0.00    -0.457 OA
ATOM      6  C   LIG    1        2.179   1.498  -0.833  0.00  0.00    +0.185 C 
ATOM      7  C   LIG    1        3.483   2.293  -0.835  0.00  0.00    +0.064 C 
ATOM      8  C   LIG    1        4.487   1.590  -1.755  0.00  0.00    +0.084 C 
ATOM      9 CL   LIG    1        6.039   2.506  -1.757  0.00  0.00    -0.122 Cl
ATOM     10  C   LIG    1        4.740   0.165  -1.263  0.00  0.00    +0.020 C 
ATOM     11  C   LIG    1        3.425  -0.621  -1.227  0.00  0.00    +0.013 C 
ATOM     12  O   LIG    1       -1.068   2.087   0.018  0.00  0.00    -0.245 OA
ATOM     13  C   LIG    1        2.452   0.093  -0.292  0.00  0.00    +0.056 C 
ENDROOT
BRANCH   3  14
ATOM     14  C   LIG    1       -1.263  -0.763   0.158  0.00  0.00    -0.011 A 
ATOM     15  C   LIG    1       -1.741  -1.550  -0.888  0.00  0.00    +0.009 A 
ATOM     16  C   LIG    1       -2.915  -2.258  -0.736  0.00  0.00    +0.001 A 
ATOM     17  C   LIG    1       -3.625  -2.178   0.449  0.00  0.00    +0.000 A 
ATOM     18  C   LIG    1       -3.159  -1.395   1.489  0.00  0.00    +0.001 A 
ATOM     19  C   LIG    1       -1.982  -0.687   1.350  0.00  0.00    +0.009 A 
ENDBRANCH   3  14
TORSDOF 1
