REMARK  Name = ZINC04156199
REMARK                            x       y       z     vdW  Elec       q    Type
REMARK                         _______ _______ _______ _____ _____    ______ ____
ROOT
ATOM      1  N   LIG    1        1.237  -2.082  -0.022  0.00  0.00    -0.210 N 
ATOM      2  C   LIG    1        2.369  -2.788  -0.131  0.00  0.00    +0.231 C 
ATOM      3  C   LIG    1        2.039  -4.265  -0.106  0.00  0.00    +0.095 C 
ATOM      4  C   LIG    1        2.690  -4.907   1.125  0.00  0.00    +0.024 C 
ATOM      5  C   LIG    1        2.223  -6.367   1.213  0.00  0.00    +0.009 C 
ATOM      6  C   LIG    1        0.700  -6.408   1.363  0.00  0.00    +0.009 C 
ATOM      7  C   LIG    1        0.146  -4.978   1.378  0.00  0.00    +0.024 C 
ATOM      8  C   LIG    1        0.852  -4.218   2.491  0.00  0.00    -0.027 C 
ATOM      9  C   LIG    1        2.189  -4.171   2.358  0.00  0.00    -0.027 C 
ATOM     10  C   LIG    1        0.504  -4.290   0.035  0.00  0.00    +0.095 C 
ATOM     11  O   LIG    1        3.482  -2.319  -0.232  0.00  0.00    -0.274 OA
ATOM     12  C   LIG    1        0.128  -2.825   0.083  0.00  0.00    +0.231 C 
ATOM     13  O   LIG    1       -0.999  -2.393   0.196  0.00  0.00    -0.274 OA
ENDROOT
BRANCH   1  18
ATOM     14  C   LIG    1        1.537   1.409  -1.145  0.00  0.00    +0.002 A 
ATOM     15  C   LIG    1        1.172   2.086   0.004  0.00  0.00    +0.012 A 
ATOM     16  C   LIG    1        0.829   1.383   1.144  0.00  0.00    +0.057 A 
ATOM     17  C   LIG    1        0.849   0.002   1.139  0.00  0.00    +0.036 A 
ATOM     18  C   LIG    1        1.214  -0.680  -0.014  0.00  0.00    +0.044 A 
ATOM     19  C   LIG    1        1.559   0.028  -1.157  0.00  0.00    +0.024 A 
BRANCH  16  20
ATOM     20  C   LIG    1        0.432   2.125   2.395  0.00  0.00    +0.417 C 
ATOM     21  F   LIG    1        1.312   1.795   3.431  0.00  0.00    -0.166 F 
ATOM     22  F   LIG    1       -0.870   1.766   2.757  0.00  0.00    -0.166 F 
ATOM     23  F   LIG    1        0.488   3.503   2.157  0.00  0.00    -0.166 F 
ENDBRANCH  16  20
ENDBRANCH   1  18
TORSDOF 2
