REMARK  Name = ZINC04579107
REMARK                            x       y       z     vdW  Elec       q    Type
REMARK                         _______ _______ _______ _____ _____    ______ ____
ROOT
ATOM      1  C   LIG    1        2.233   1.167   1.249  0.00  0.00    +0.139 C 
ATOM      2  N   LIG    1        1.005   1.874   0.877  0.00  0.00    -0.258 N 
ATOM      3  C   LIG    1       -0.103   1.182   0.672  0.00  0.00    +0.258 C 
ATOM      4  C   LIG    1       -1.306   1.954   0.295  0.00  0.00    +0.077 C 
ATOM      5  S   LIG    1       -0.649   3.617   0.298  0.00  0.00    -0.061 S 
ATOM      6  C   LIG    1       -2.561   1.521   0.022  0.00  0.00    +0.028 C 
ATOM      7  O   LIG    1       -0.130  -0.029   0.785  0.00  0.00    -0.269 OA
ATOM      8  C   LIG    1        1.031   3.217   0.751  0.00  0.00    +0.120 C 
ATOM      9  S   LIG    1        2.354   4.280   0.971  0.00  0.00    -0.027 S 
ENDROOT
BRANCH   6  10
ATOM     10  C   LIG    1       -2.833   0.081  -0.096  0.00  0.00    -0.024 A 
ATOM     11  C   LIG    1       -1.905  -0.761  -0.720  0.00  0.00    +0.008 A 
ATOM     12  C   LIG    1       -2.164  -2.111  -0.821  0.00  0.00    +0.001 A 
ATOM     13  C   LIG    1       -3.344  -2.633  -0.317  0.00  0.00    +0.000 A 
ATOM     14  C   LIG    1       -4.269  -1.806   0.296  0.00  0.00    +0.001 A 
ATOM     15  C   LIG    1       -4.022  -0.454   0.411  0.00  0.00    +0.008 A 
ENDBRANCH   6  10
TORSDOF 1
