REMARK  Name = ZINC04725769
REMARK                            x       y       z     vdW  Elec       q    Type
REMARK                         _______ _______ _______ _____ _____    ______ ____
ROOT
ATOM      1  C   LIG    1       -0.248   2.743  -1.478  0.00  0.00    +0.002 A 
ATOM      2  C   LIG    1       -1.353   3.319  -0.842  0.00  0.00    +0.001 A 
ATOM      3  C   LIG    1       -1.207   4.009   0.326  0.00  0.00    +0.017 A 
ATOM      4  C   LIG    1        0.066   4.141   0.872  0.00  0.00    +0.035 A 
ATOM      5  C   LIG    1        1.244   3.546   0.213  0.00  0.00    +0.055 A 
ATOM      6  N   LIG    1        2.488   3.659   0.717  0.00  0.00    -0.234 N 
ATOM      7  C   LIG    1        3.444   3.055  -0.017  0.00  0.00    +0.255 C 
ATOM      8  O   LIG    1        3.206   2.004  -0.578  0.00  0.00    -0.269 OA
ATOM      9  C   LIG    1        2.942   4.271   1.828  0.00  0.00    +0.055 A 
ATOM     10  C   LIG    1        4.309   4.252   2.150  0.00  0.00    +0.025 A 
ATOM     11  C   LIG    1        4.750   4.876   3.277  0.00  0.00    +0.002 A 
ATOM     12  C   LIG    1        3.888   5.550   4.148  0.00  0.00    +0.001 A 
ATOM     13  C   LIG    1        2.548   5.610   3.899  0.00  0.00    +0.017 A 
ATOM     14  C   LIG    1        2.049   4.987   2.758  0.00  0.00    +0.035 A 
ATOM     15  S   LIG    1        0.374   4.995   2.340  0.00  0.00    -0.086 S 
ATOM     16  C   LIG    1        1.015   2.846  -0.983  0.00  0.00    +0.025 A 
ENDROOT
BRANCH   7  17
ATOM     17  C   LIG    1        4.780   3.671  -0.139  0.00  0.00    +0.038 A 
ATOM     18  C   LIG    1        4.915   5.061  -0.139  0.00  0.00    +0.015 A 
ATOM     19  C   LIG    1        6.167   5.629  -0.248  0.00  0.00    +0.033 A 
ATOM     20  C   LIG    1        7.287   4.826  -0.368  0.00  0.00    +0.122 A 
ATOM     21  C   LIG    1        7.161   3.447  -0.374  0.00  0.00    +0.033 A 
ATOM     22  C   LIG    1        5.916   2.865  -0.260  0.00  0.00    +0.015 A 
BRANCH  20  23
ATOM     23  N   LIG    1        8.627   5.443  -0.490  0.00  0.00    +0.006 N 
ATOM     24  O   LIG    1        9.695   4.681  -0.605  0.00  0.00    -0.130 OA
BRANCH  23  25
ATOM     25  O   LIG    1        8.751   6.754  -0.485  0.00  0.00    -0.396 OA
ATOM     26  H   LIG    1        7.991   7.296  -0.404  0.00  0.00    +0.329 HD
ENDBRANCH  23  25
ENDBRANCH  20  23
ENDBRANCH   7  17
TORSDOF 3
