REMARK  Name = ZINC04214849
REMARK                            x       y       z     vdW  Elec       q    Type
REMARK                         _______ _______ _______ _____ _____    ______ ____
ROOT
ATOM      1  C   LIG    1        2.061  -5.375  -7.739  0.00  0.00    +0.011 C 
ENDROOT
BRANCH   1   2
ATOM      2  C   LIG    1        2.477  -5.509  -6.273  0.00  0.00    -0.018 C 
BRANCH   2   3
ATOM      3  C   LIG    1        1.955  -4.307  -5.483  0.00  0.00    -0.079 C 
BRANCH   3  10
ATOM      4  N   LIG    1        1.043  -5.743   0.472  0.00  0.00    -0.300 N 
ATOM      5  H   LIG    1        1.177  -6.577  -0.005  0.00  0.00    +0.150 HD
ATOM      6  C   LIG    1        1.375  -4.573  -0.108  0.00  0.00    +0.302 C 
ATOM      7  N   LIG    1        1.992  -4.566  -1.307  0.00  0.00    -0.289 N 
ATOM      8  C   LIG    1        2.473  -3.310  -1.903  0.00  0.00    +0.091 C 
ATOM      9  C   LIG    1        1.957  -3.227  -3.343  0.00  0.00    -0.059 C 
ATOM     10  N   LIG    1        2.354  -4.436  -4.075  0.00  0.00    +0.382 N 
ATOM     11  H   LIG    1        3.355  -4.547  -4.021  0.00  0.00    -0.082 HD
ATOM     12  C   LIG    1        1.700  -5.613  -3.488  0.00  0.00    -0.059 C 
ATOM     13  C   LIG    1        2.209  -5.815  -2.053  0.00  0.00    +0.091 C 
ATOM     14  O   LIG    1        1.118  -3.523   0.449  0.00  0.00    -0.253 OA
BRANCH   4  16
ATOM     15  C   LIG    1        0.193  -7.199   2.243  0.00  0.00    +0.024 C 
ATOM     16  C   LIG    1        0.479  -5.756   1.824  0.00  0.00    +0.102 C 
ENDBRANCH   4  16
ENDBRANCH   3  10
ENDBRANCH   2   3
ENDBRANCH   1   2
BRANCH   1  17
ATOM     17  C   LIG    1        2.583  -6.577  -8.529  0.00  0.00    +0.049 C 
BRANCH  17  18
ATOM     18  C   LIG    1        2.280  -6.385  -9.993  0.00  0.00    -0.040 A 
ATOM     19  C   LIG    1        0.997  -6.067 -10.397  0.00  0.00    +0.007 A 
ATOM     20  C   LIG    1        0.719  -5.891 -11.739  0.00  0.00    +0.038 A 
ATOM     21  C   LIG    1        1.726  -6.033 -12.679  0.00  0.00    +0.123 A 
ATOM     22  F   LIG    1        1.454  -5.861 -13.992  0.00  0.00    -0.205 F 
ATOM     23  C   LIG    1        3.010  -6.352 -12.273  0.00  0.00    +0.038 A 
ATOM     24  C   LIG    1        3.288  -6.523 -10.930  0.00  0.00    +0.007 A 
ENDBRANCH  17  18
BRANCH  17  25
ATOM     25  C   LIG    1        1.910  -7.832  -8.037  0.00  0.00    -0.040 A 
ATOM     26  C   LIG    1        0.531  -7.892  -7.962  0.00  0.00    +0.007 A 
ATOM     27  C   LIG    1       -0.088  -9.043  -7.511  0.00  0.00    +0.038 A 
ATOM     28  C   LIG    1        0.674 -10.136  -7.135  0.00  0.00    +0.123 A 
ATOM     29  F   LIG    1        0.071 -11.261  -6.694  0.00  0.00    -0.205 F 
ATOM     30  C   LIG    1        2.055 -10.075  -7.211  0.00  0.00    +0.038 A 
ATOM     31  C   LIG    1        2.672  -8.925  -7.667  0.00  0.00    +0.007 A 
ENDBRANCH  17  25
ENDBRANCH   1  17
TORSDOF 7
