REMARK  Name = ZINC04216113
REMARK                            x       y       z     vdW  Elec       q    Type
REMARK                         _______ _______ _______ _____ _____    ______ ____
ROOT
ATOM      1  C   LIG    1       -1.299   2.049   0.019  0.00  0.00    +0.260 C 
ATOM      2  C   LIG    1       -1.433   2.901   1.301  0.00  0.00    +0.246 C 
ATOM      3  F   LIG    1       -0.170   3.215   1.816  0.00  0.00    -0.238 F 
ATOM      4  C   LIG    1       -2.158   4.181   0.828  0.00  0.00    +0.184 C 
ATOM      5  C   LIG    1       -2.376   3.951  -0.684  0.00  0.00    +0.178 C 
ATOM      6  O   LIG    1       -1.355   3.003  -1.064  0.00  0.00    -0.345 OA
ENDROOT
BRANCH   1  16
ATOM      7  C   LIG    1        1.152   2.054   0.002  0.00  0.00    +0.113 A 
ATOM      8  C   LIG    1        2.334   1.401  -0.013  0.00  0.00    +0.094 A 
ATOM      9  I   LIG    1        4.137   2.469  -0.025  0.00  0.00    -0.037 I 
ATOM     10  C   LIG    1        2.338  -0.015  -0.021  0.00  0.00    +0.267 A 
ATOM     11  N   LIG    1        1.166  -0.680  -0.013  0.00  0.00    -0.274 N 
ATOM     12  C   LIG    1        0.002  -0.004   0.002  0.00  0.00    +0.331 A 
ATOM     13  O   LIG    1       -1.048  -0.618   0.009  0.00  0.00    -0.246 OA
ATOM     14  H   LIG    1        1.161  -1.680  -0.018  0.00  0.00    +0.173 HD
ATOM     15  O   LIG    1        3.392  -0.626  -0.035  0.00  0.00    -0.267 OA
ATOM     16  N   LIG    1       -0.016   1.341   0.009  0.00  0.00    -0.270 N 
ENDBRANCH   1  16
BRANCH   4  17
ATOM     17  O   LIG    1       -3.411   4.323   1.498  0.00  0.00    -0.386 OA
ATOM     18  H   LIG    1       -3.333   4.470   2.451  0.00  0.00    +0.210 HD
ENDBRANCH   4  17
BRANCH   5  19
ATOM     19  C   LIG    1       -2.198   5.262  -1.453  0.00  0.00    +0.190 C 
BRANCH  19  20
ATOM     20  O   LIG    1       -2.445   5.036  -2.842  0.00  0.00    -0.392 OA
ATOM     21  H   LIG    1       -2.350   5.826  -3.392  0.00  0.00    +0.210 HD
ENDBRANCH  19  20
ENDBRANCH   5  19
TORSDOF 4
