REMARK  Name = ZINC04692811
REMARK                            x       y       z     vdW  Elec       q    Type
REMARK                         _______ _______ _______ _____ _____    ______ ____
ROOT
ATOM      1  C   LIG    1       -0.017   1.379   0.010  0.00  0.00    +0.000 A 
ATOM      2  C   LIG    1        1.168   2.093   0.002  0.00  0.00    +0.001 A 
ATOM      3  C   LIG    1        2.377   1.429  -0.013  0.00  0.00    +0.010 A 
ATOM      4  C   LIG    1        2.403   0.034  -0.021  0.00  0.00    -0.000 A 
ATOM      5  C   LIG    1        1.204  -0.680  -0.013  0.00  0.00    +0.010 A 
ATOM      6  C   LIG    1        0.002  -0.004   0.002  0.00  0.00    +0.001 A 
ENDROOT
BRANCH   4   7
ATOM      7  C   LIG    1        3.696  -0.685  -0.037  0.00  0.00    +0.066 A 
ATOM      8  C   LIG    1        4.937  -0.128  -0.041  0.00  0.00    +0.138 A 
ATOM      9  N   LIG    1        5.833  -1.122  -0.056  0.00  0.00    -0.244 NA
ATOM     10  C   LIG    1        5.212  -2.270  -0.063  0.00  0.00    +0.196 A 
ATOM     11  N   LIG    1        3.880  -2.049  -0.046  0.00  0.00    -0.344 N 
ATOM     12  H   LIG    1        3.183  -2.725  -0.044  0.00  0.00    +0.167 HD
ENDBRANCH   4   7
TORSDOF 1
