REMARK  Name = ZINC04663284
REMARK                            x       y       z     vdW  Elec       q    Type
REMARK                         _______ _______ _______ _____ _____    ______ ____
ROOT
ATOM      1  C   LIG    1        3.782   3.551  -0.828  0.00  0.00    +0.086 C 
ATOM      2  C   LIG    1        4.683   3.061  -1.970  0.00  0.00    +0.031 C 
ATOM      3  C   LIG    1        5.179   1.647  -1.664  0.00  0.00    +0.011 C 
ATOM      4  C   LIG    1        3.874   3.051  -3.267  0.00  0.00    +0.107 C 
ATOM      5  C   LIG    1        3.200   4.380  -3.479  0.00  0.00    -0.006 A 
ATOM      6  C   LIG    1        2.789   4.728  -4.755  0.00  0.00    +0.007 A 
ATOM      7  C   LIG    1        2.169   5.941  -4.982  0.00  0.00    +0.000 A 
ATOM      8  C   LIG    1        1.942   6.812  -3.932  0.00  0.00    +0.002 A 
ATOM      9  C   LIG    1        2.349   6.474  -2.657  0.00  0.00    +0.024 A 
ATOM     10  C   LIG    1        2.980   5.257  -2.428  0.00  0.00    +0.042 A 
ATOM     11  N   LIG    1        3.390   4.935  -1.127  0.00  0.00    -0.264 N 
ATOM     12  C   LIG    1        3.425   5.880  -0.167  0.00  0.00    +0.251 C 
ATOM     13  O   LIG    1        4.119   5.720   0.819  0.00  0.00    -0.270 OA
ENDROOT
BRANCH  12  14
ATOM     14  C   LIG    1        2.619   7.110  -0.311  0.00  0.00    +0.037 A 
ATOM     15  C   LIG    1        1.226   7.050  -0.221  0.00  0.00    +0.014 A 
ATOM     16  C   LIG    1        0.480   8.202  -0.350  0.00  0.00    +0.021 A 
ATOM     17  C   LIG    1        1.108   9.415  -0.581  0.00  0.00    +0.041 A 
ATOM     18 CL   LIG    1        0.161  10.860  -0.751  0.00  0.00    -0.084 Cl
ATOM     19  C   LIG    1        2.488   9.480  -0.677  0.00  0.00    +0.021 A 
ATOM     20  C   LIG    1        3.246   8.335  -0.543  0.00  0.00    +0.014 A 
ENDBRANCH  12  14
BRANCH   1  22
ATOM     21  C   LIG    1        3.566   3.627   1.660  0.00  0.00    +0.006 C 
ATOM     22  C   LIG    1        4.550   3.504   0.494  0.00  0.00    +0.020 C 
ENDBRANCH   1  22
BRANCH   4  23
ATOM     23  N   LIG    1        4.771   2.779  -4.393  0.00  0.00    -0.337 N 
ATOM     24  H   LIG    1        5.712   3.007  -4.329  0.00  0.00    +0.147 HD
BRANCH  23  25
ATOM     25  C   LIG    1        4.272   2.192  -5.558  0.00  0.00    +0.028 A 
ATOM     26  C   LIG    1        2.927   1.860  -5.649  0.00  0.00    +0.023 A 
ATOM     27  C   LIG    1        2.436   1.284  -6.804  0.00  0.00    +0.002 A 
ATOM     28  C   LIG    1        3.284   1.028  -7.865  0.00  0.00    +0.000 A 
ATOM     29  C   LIG    1        4.625   1.353  -7.776  0.00  0.00    +0.002 A 
ATOM     30  C   LIG    1        5.122   1.934  -6.626  0.00  0.00    +0.023 A 
ENDBRANCH  23  25
ENDBRANCH   4  23
TORSDOF 4
