REMARK  Name = ZINC04245612
REMARK                            x       y       z     vdW  Elec       q    Type
REMARK                         _______ _______ _______ _____ _____    ______ ____
ROOT
ATOM      1  C   LIG    1       -5.069   2.196   0.381  0.00  0.00    +0.185 C 
ATOM      2  C   LIG    1       -6.350   1.428   0.699  0.00  0.00    +0.052 C 
ATOM      3  C   LIG    1       -7.539   2.386   0.547  0.00  0.00    +0.012 C 
ATOM      4  C   LIG    1       -8.846   1.643   0.833  0.00  0.00    +0.012 C 
ATOM      5  C   LIG    1       -7.359   3.503   1.542  0.00  0.00    -0.020 C 
ATOM      6  C   LIG    1       -6.155   3.922   1.883  0.00  0.00    -0.044 C 
ATOM      7  C   LIG    1       -6.021   4.944   2.947  0.00  0.00    -0.000 C 
ATOM      8  C   LIG    1       -4.849   5.137   3.528  0.00  0.00    -0.023 C 
ATOM      9  C   LIG    1       -3.601   4.388   3.172  0.00  0.00    +0.012 C 
ATOM     10  C   LIG    1       -2.730   5.269   2.275  0.00  0.00    +0.012 C 
ATOM     11  C   LIG    1       -3.916   3.084   2.438  0.00  0.00    +0.007 C 
ATOM     12  C   LIG    1       -4.885   3.386   1.292  0.00  0.00    +0.063 C 
ENDROOT
BRANCH   1  13
ATOM     13  O   LIG    1       -3.933   1.304   0.531  0.00  0.00    -0.460 OA
BRANCH  13  14
ATOM     14  C   LIG    1       -3.726   0.410  -0.448  0.00  0.00    +0.313 C 
ATOM     15  O   LIG    1       -4.523   0.307  -1.350  0.00  0.00    -0.250 OA
BRANCH  14  16
ATOM     16  C   LIG    1       -2.499  -0.464  -0.423  0.00  0.00    +0.062 C 
ATOM     17  C   LIG    1       -2.529  -1.350   0.823  0.00  0.00    +0.022 C 
ATOM     18  C   LIG    1       -1.247   0.416  -0.393  0.00  0.00    +0.022 C 
BRANCH  16  20
ATOM     19  C   LIG    1       -1.289  -2.308  -1.596  0.00  0.00    +0.005 C 
ATOM     20  C   LIG    1       -2.474  -1.343  -1.675  0.00  0.00    +0.014 C 
ENDBRANCH  16  20
ENDBRANCH  14  16
ENDBRANCH  13  14
ENDBRANCH   1  13
BRANCH  11  21
ATOM     21  C   LIG    1       -2.624   2.488   1.874  0.00  0.00    +0.008 C 
BRANCH  21  22
ATOM     22  C   LIG    1       -1.467   2.781   2.831  0.00  0.00    +0.045 C 
BRANCH  22  23
ATOM     23  C   LIG    1       -0.307   3.406   2.053  0.00  0.00    +0.179 C 
ATOM     24  C   LIG    1        0.599   4.177   3.016  0.00  0.00    +0.076 C 
ATOM     25  C   LIG    1        1.787   4.756   2.242  0.00  0.00    +0.129 C 
ATOM     26  C   LIG    1        2.571   3.606   1.598  0.00  0.00    +0.152 C 
ATOM     27  C   LIG    1        1.605   2.756   0.803  0.00  0.00    +0.310 C 
ATOM     28  O   LIG    1        1.846   2.445  -0.339  0.00  0.00    -0.251 OA
ATOM     29  O   LIG    1        0.466   2.356   1.406  0.00  0.00    -0.461 OA
BRANCH  25  30
ATOM     30  O   LIG    1        2.639   5.473   3.139  0.00  0.00    -0.391 OA
ATOM     31  H   LIG    1        3.413   5.867   2.715  0.00  0.00    +0.210 HD
ENDBRANCH  25  30
ENDBRANCH  22  23
ENDBRANCH  21  22
ENDBRANCH  11  21
TORSDOF 8
