REMARK  Name = ZINC04654969
REMARK                            x       y       z     vdW  Elec       q    Type
REMARK                         _______ _______ _______ _____ _____    ______ ____
ROOT
ATOM      1  C   LIG    1       -5.296  -5.858  -7.662  0.00  0.00    -0.027 C 
ATOM      2  C   LIG    1       -6.130  -6.847  -7.868  0.00  0.00    -0.031 C 
ENDROOT
BRANCH   1   3
ATOM      3  C   LIG    1       -3.836  -6.021  -7.997  0.00  0.00    +0.053 C 
BRANCH   3   5
ATOM      4  C   LIG    1       -2.360  -4.168  -8.589  0.00  0.00    -0.027 C 
ATOM      5  C   LIG    1       -3.401  -4.899  -8.904  0.00  0.00    -0.027 C 
BRANCH   4   6
ATOM      6  C   LIG    1       -1.495  -4.556  -7.418  0.00  0.00    +0.053 C 
BRANCH   6   8
ATOM      7  C   LIG    1        0.866  -3.965  -7.224  0.00  0.00    -0.027 C 
ATOM      8  C   LIG    1       -0.057  -4.640  -7.862  0.00  0.00    -0.027 C 
BRANCH   7   9
ATOM      9  C   LIG    1        0.522  -3.236  -5.951  0.00  0.00    +0.053 C 
BRANCH   9  11
ATOM     10  C   LIG    1        2.147  -2.719  -4.203  0.00  0.00    -0.031 C 
ATOM     11  C   LIG    1        1.488  -3.637  -4.865  0.00  0.00    -0.027 C 
BRANCH  10  12
ATOM     12  C   LIG    1        1.823  -1.262  -4.410  0.00  0.00    +0.027 C 
BRANCH  12  13
ATOM     13  C   LIG    1        1.563  -0.600  -3.055  0.00  0.00    +0.004 C 
BRANCH  13  14
ATOM     14  C   LIG    1        1.234   0.879  -3.264  0.00  0.00    +0.000 C 
BRANCH  14  16
ATOM     15  C   LIG    1        0.645   3.020  -2.118  0.00  0.00    +0.004 C 
ATOM     16  C   LIG    1        0.975   1.541  -1.909  0.00  0.00    -0.003 C 
ENDBRANCH  14  16
ENDBRANCH  13  14
ENDBRANCH  12  13
ENDBRANCH  10  12
ENDBRANCH   9  11
ENDBRANCH   7   9
ENDBRANCH   6   8
ENDBRANCH   4   6
ENDBRANCH   3   5
ENDBRANCH   1   3
BRANCH   2  17
ATOM     17  C   LIG    1       -5.609  -8.198  -8.285  0.00  0.00    +0.027 C 
BRANCH  17  18
ATOM     18  C   LIG    1       -6.167  -9.271  -7.348  0.00  0.00    +0.015 C 
BRANCH  18  19
ATOM     19  C   LIG    1       -5.637 -10.643  -7.771  0.00  0.00    +0.121 C 
BRANCH  19  20
ATOM     20  C   LIG    1       -6.187 -11.700  -6.849  0.00  0.00    +0.307 C 
ATOM     21  O   LIG    1       -6.926 -11.389  -5.946  0.00  0.00    -0.251 OA
BRANCH  20  22
ATOM     22  O   LIG    1       -5.855 -12.988  -7.031  0.00  0.00    -0.457 OA
BRANCH  22  23
ATOM     23  C   LIG    1       -6.413 -13.937  -6.119  0.00  0.00    +0.227 C 
BRANCH  23  24
ATOM     24  C   LIG    1       -5.475 -14.105  -4.922  0.00  0.00    +0.202 C 
BRANCH  24  25
ATOM     25  O   LIG    1       -4.243 -14.681  -5.359  0.00  0.00    -0.391 OA
ATOM     26  H   LIG    1       -3.599 -14.817  -4.651  0.00  0.00    +0.210 HD
ENDBRANCH  24  25
ENDBRANCH  23  24
BRANCH  23  27
ATOM     27  C   LIG    1       -6.585 -15.283  -6.825  0.00  0.00    +0.202 C 
BRANCH  27  28
ATOM     28  O   LIG    1       -5.302 -15.805  -7.176  0.00  0.00    -0.391 OA
ATOM     29  H   LIG    1       -5.335 -16.659  -7.628  0.00  0.00    +0.210 HD
ENDBRANCH  27  28
ENDBRANCH  23  27
ENDBRANCH  22  23
ENDBRANCH  20  22
ENDBRANCH  19  20
ENDBRANCH  18  19
ENDBRANCH  17  18
ENDBRANCH   2  17
TORSDOF 20
