REMARK  Name = ZINC04533108
REMARK                            x       y       z     vdW  Elec       q    Type
REMARK                         _______ _______ _______ _____ _____    ______ ____
ROOT
ATOM      1  C   LIG    1       -0.960   2.255  -1.120  0.00  0.00    +0.012 C 
ATOM      2  C   LIG    1       -1.273   1.926   0.339  0.00  0.00    -0.016 C 
ATOM      3  C   LIG    1       -0.716   0.574   0.710  0.00  0.00    +0.008 C 
ATOM      4  C   LIG    1       -1.529  -0.521  -0.003  0.00  0.00    +0.005 C 
ATOM      5  C   LIG    1       -3.002  -0.442   0.371  0.00  0.00    +0.002 C 
ATOM      6  C   LIG    1       -3.594   0.926   0.007  0.00  0.00    -0.003 C 
ATOM      7  C   LIG    1       -3.694   1.078  -1.505  0.00  0.00    +0.008 C 
ATOM      8  C   LIG    1       -4.715   0.053  -2.025  0.00  0.00    +0.032 C 
ATOM      9  C   LIG    1       -4.197  -1.322  -1.644  0.00  0.00    -0.060 C 
ATOM     10  C   LIG    1       -4.107  -2.233  -2.614  0.00  0.00    +0.046 C 
ATOM     11  C   LIG    1       -3.608  -3.579  -2.314  0.00  0.00    +0.156 C 
ATOM     12  C   LIG    1       -3.705  -4.023  -0.866  0.00  0.00    +0.080 C 
ATOM     13  C   LIG    1       -3.091  -2.907  -0.019  0.00  0.00    +0.019 C 
ATOM     14  O   LIG    1       -3.143  -4.298  -3.175  0.00  0.00    -0.293 OA
ATOM     15  C   LIG    1       -3.817  -1.586  -0.220  0.00  0.00    -0.007 C 
ATOM     16  C   LIG    1       -5.122  -1.680   0.589  0.00  0.00    +0.016 C 
ATOM     17  C   LIG    1       -0.755   3.118   1.170  0.00  0.00    +0.104 C 
ATOM     18  C   LIG    1       -1.863   4.191   0.997  0.00  0.00    +0.015 C 
ATOM     19  C   LIG    1       -3.100   3.458   0.404  0.00  0.00    +0.005 C 
ATOM     20  C   LIG    1       -2.773   1.986   0.681  0.00  0.00    -0.001 C 
ENDROOT
BRANCH  17  21
ATOM     21  C   LIG    1        0.543   3.611   0.591  0.00  0.00    +0.310 C 
ATOM     22  O   LIG    1        1.369   2.821   0.199  0.00  0.00    -0.251 OA
BRANCH  21  23
ATOM     23  O   LIG    1        0.785   4.929   0.509  0.00  0.00    -0.468 OA
ATOM     24  C   LIG    1        2.058   5.332  -0.061  0.00  0.00    +0.280 C 
ENDBRANCH  21  23
ENDBRANCH  17  21
TORSDOF 2
