REMARK  Name = ZINC04262273
REMARK                            x       y       z     vdW  Elec       q    Type
REMARK                         _______ _______ _______ _____ _____    ______ ____
ROOT
ATOM      1  C   LIG    1        1.174   2.078   0.002  0.00  0.00    +0.000 A 
ATOM      2  C   LIG    1       -0.017   1.375   0.010  0.00  0.00    +0.000 A 
ATOM      3  C   LIG    1        0.002  -0.004   0.002  0.00  0.00    +0.004 A 
ATOM      4  C   LIG    1        1.208  -0.694  -0.013  0.00  0.00    -0.045 A 
ATOM      5  C   LIG    1        2.393   0.006  -0.027  0.00  0.00    -0.044 A 
ATOM      6  C   LIG    1        3.736  -0.675  -0.061  0.00  0.00    +0.034 C 
ATOM      7  C   LIG    1        3.609  -2.135   0.368  0.00  0.00    +0.003 C 
ATOM      8  C   LIG    1        2.491  -2.785  -0.457  0.00  0.00    +0.032 C 
ATOM      9  C   LIG    1        1.155  -2.199  -0.006  0.00  0.00    +0.033 C 
ATOM     10  C   LIG    1        2.372   1.395  -0.016  0.00  0.00    +0.004 A 
ENDROOT
BRANCH   8  11
ATOM     11  N   LIG    1        2.723  -2.513  -1.887  0.00  0.00    +0.389 N 
ATOM     12  H   LIG    1        3.618  -2.929  -2.169  0.00  0.00    -0.088 HD
ATOM     13  H   LIG    1        2.758  -1.508  -2.049  0.00  0.00    -0.088 HD
ATOM     14  H   LIG    1        1.975  -2.921  -2.445  0.00  0.00    -0.088 HD
ENDBRANCH   8  11
BRANCH   8  15
ATOM     15  C   LIG    1        2.495  -4.275  -0.231  0.00  0.00    +0.293 C 
ATOM     16  O   LIG    1        2.951  -4.730   0.792  0.00  0.00    -0.253 OA
BRANCH  15  17
ATOM     17  O   LIG    1        1.991  -5.097  -1.164  0.00  0.00    -0.482 OA
ATOM     18  H   LIG    1        1.637  -4.745  -1.957  0.00  0.00    +0.295 HD
ENDBRANCH  15  17
ENDBRANCH   8  15
TORSDOF 3
