REMARK  Name = ZINC04202508
REMARK                            x       y       z     vdW  Elec       q    Type
REMARK                         _______ _______ _______ _____ _____    ______ ____
ROOT
ATOM      1  C   LIG    1       -2.257   1.496   0.765  0.00  0.00    -0.017 C 
ATOM      2  C   LIG    1       -2.162   1.847  -0.734  0.00  0.00    -0.082 C 
ATOM      3  N   LIG    1       -0.773   1.596  -1.148  0.00  0.00    +0.379 N 
ATOM      4  H   LIG    1       -0.759   0.900  -1.903  0.00  0.00    -0.086 HD
ATOM      5  H   LIG    1       -0.349   2.470  -1.481  0.00  0.00    -0.086 HD
ATOM      6  C   LIG    1       -0.013   1.086   0.008  0.00  0.00    -0.079 C 
ATOM      7  C   LIG    1       -0.783   1.608   1.246  0.00  0.00    -0.019 C 
ENDROOT
BRANCH   7   8
ATOM      8  C   LIG    1       -0.532   0.717   2.464  0.00  0.00    +0.122 C 
BRANCH   8   9
ATOM      9  C   LIG    1        0.913   0.828   2.878  0.00  0.00    +0.305 C 
ATOM     10  O   LIG    1        1.664   1.546   2.263  0.00  0.00    -0.251 OA
BRANCH   9  11
ATOM     11  O   LIG    1        1.365   0.129   3.931  0.00  0.00    -0.481 OA
ATOM     12  H   LIG    1        0.782  -0.428   4.409  0.00  0.00    +0.295 HD
ENDBRANCH   9  11
ENDBRANCH   8   9
ENDBRANCH   7   8
TORSDOF 3
