REMARK  Name = ZINC04642956
REMARK                            x       y       z     vdW  Elec       q    Type
REMARK                         _______ _______ _______ _____ _____    ______ ____
ROOT
ATOM      1  C   LIG    1       -0.013   1.086   0.008  0.00  0.00    +0.112 C 
ENDROOT
BRANCH   1   8
ATOM      2  C   LIG    1       -0.360   2.779   1.819  0.00  0.00    +0.005 A 
ATOM      3  C   LIG    1       -1.010   3.227   2.953  0.00  0.00    +0.015 A 
ATOM      4  C   LIG    1       -2.012   2.463   3.523  0.00  0.00    +0.018 A 
ATOM      5 BR   LIG    1       -2.897   3.073   5.079  0.00  0.00    -0.050 Br
ATOM      6  C   LIG    1       -2.366   1.253   2.955  0.00  0.00    +0.015 A 
ATOM      7  C   LIG    1       -1.719   0.808   1.818  0.00  0.00    +0.005 A 
ATOM      8  C   LIG    1       -0.718   1.572   1.248  0.00  0.00    -0.037 A 
ENDBRANCH   1   8
BRANCH   1   9
ATOM      9  S   LIG    1       -0.888   1.685  -1.458  0.00  0.00    -0.088 S 
BRANCH   9  10
ATOM     10  C   LIG    1        0.122   0.990  -2.724  0.00  0.00    +0.123 C 
ATOM     11  N   LIG    1        1.165   0.274  -2.405  0.00  0.00    -0.382 N 
ATOM     12  H   LIG    1        1.414   0.104  -1.347  0.00  0.00    +0.158 HD
ATOM     13  H   LIG    1        1.796  -0.160  -3.195  0.00  0.00    +0.158 HD
BRANCH  10  14
ATOM     14  N   LIG    1       -0.189   1.202  -4.047  0.00  0.00    -0.340 N 
ATOM     15  H   LIG    1       -1.069   1.806  -4.315  0.00  0.00    +0.144 HD
ATOM     16  H   LIG    1        0.442   0.768  -4.836  0.00  0.00    +0.144 HD
ENDBRANCH  10  14
ENDBRANCH   9  10
ENDBRANCH   1   9
TORSDOF 4
