REMARK  Name = ZINC04161545
REMARK                            x       y       z     vdW  Elec       q    Type
REMARK                         _______ _______ _______ _____ _____    ______ ____
ROOT
ATOM      1  C   LIG    1        3.164   1.892   5.026  0.00  0.00    +0.227 C 
ATOM      2  N   LIG    1        4.184   2.178   5.860  0.00  0.00    -0.285 N 
ATOM      3  H   LIG    1        5.025   2.505   5.503  0.00  0.00    +0.155 HD
ATOM      4  O   LIG    1        2.144   1.403   5.462  0.00  0.00    -0.275 OA
ENDROOT
BRANCH   2   5
ATOM      5  C   LIG    1        4.031   2.002   7.239  0.00  0.00    +0.033 A 
ATOM      6  C   LIG    1        4.648   2.875   8.125  0.00  0.00    +0.023 A 
ATOM      7  C   LIG    1        4.490   2.702   9.486  0.00  0.00    +0.006 A 
ATOM      8  C   LIG    1        3.727   1.654   9.967  0.00  0.00    -0.044 A 
ATOM      9  C   LIG    1        3.115   0.779   9.088  0.00  0.00    +0.006 A 
ATOM     10  C   LIG    1        3.265   0.950   7.726  0.00  0.00    +0.023 A 
BRANCH   8  11
ATOM     11  C   LIG    1        3.562   1.464  11.453  0.00  0.00    +0.019 C 
ATOM     12  C   LIG    1        2.906   2.707  12.057  0.00  0.00    +0.008 C 
ATOM     13  C   LIG    1        2.739   2.515  13.565  0.00  0.00    +0.001 C 
ATOM     14  C   LIG    1        4.111   2.299  14.207  0.00  0.00    +0.000 C 
ATOM     15  C   LIG    1        4.766   1.056  13.604  0.00  0.00    +0.001 C 
ATOM     16  C   LIG    1        4.934   1.248  12.095  0.00  0.00    +0.008 C 
ENDBRANCH   8  11
ENDBRANCH   2   5
BRANCH   1  17
ATOM     17  C   LIG    1        3.292   2.182   3.553  0.00  0.00    +0.173 C 
BRANCH  17  18
ATOM     18  S   LIG    1        1.768   1.691   2.708  0.00  0.00    -0.078 S 
BRANCH  18  23
ATOM     19  N   LIG    1        1.378   1.971  -0.035  0.00  0.00    -0.319 N 
ATOM     20  C   LIG    1        2.084   2.444  -1.129  0.00  0.00    +0.069 A 
ATOM     21  C   LIG    1        3.290   2.862  -0.662  0.00  0.00    +0.140 A 
ATOM     22  N   LIG    1        3.322   2.654   0.660  0.00  0.00    -0.230 NA
ATOM     23  C   LIG    1        2.183   2.127   1.052  0.00  0.00    +0.170 A 
BRANCH  20  24
ATOM     24  C   LIG    1        1.617   2.486  -2.530  0.00  0.00    +0.000 A 
ATOM     25  C   LIG    1        2.204   3.369  -3.439  0.00  0.00    +0.010 A 
ATOM     26  C   LIG    1        1.767   3.398  -4.747  0.00  0.00    +0.001 A 
ATOM     27  C   LIG    1        0.742   2.564  -5.157  0.00  0.00    +0.000 A 
ATOM     28  C   LIG    1        0.152   1.690  -4.260  0.00  0.00    +0.001 A 
ATOM     29  C   LIG    1        0.584   1.646  -2.950  0.00  0.00    +0.010 A 
ENDBRANCH  20  24
BRANCH  19  31
ATOM     30  C   LIG    1        0.098  -0.110  -0.134  0.00  0.00    +0.027 C 
ATOM     31  C   LIG    1        0.023   1.415  -0.045  0.00  0.00    +0.121 C 
ENDBRANCH  19  31
ENDBRANCH  18  23
ENDBRANCH  17  18
ENDBRANCH   1  17
TORSDOF 7
