REMARK  Name = ZINC04321885
REMARK                            x       y       z     vdW  Elec       q    Type
REMARK                         _______ _______ _______ _____ _____    ______ ____
ROOT
ATOM      1  C   VAL A  1       -1.413  -2.041   0.005  0.00  0.00    +0.234 C 
ATOM      2  N   TYR A  2       -0.830  -2.701  -1.015  0.00  0.00    -0.301 N 
ATOM      3  H   TYR A  2       -0.423  -2.206  -1.744  0.00  0.00    +0.150 HD
ATOM      4  O   VAL A  1       -1.921  -2.659   0.916  0.00  0.00    -0.274 OA
ENDROOT
BRANCH   1   5
ATOM      5  CA  VAL A  1       -1.433  -0.534   0.013  0.00  0.00    +0.165 C 
BRANCH   5   6
ATOM      6  N   VAL A  1       -2.119  -0.061   1.218  0.00  0.00    -0.270 N 
ATOM      7  H   VAL A  1       -2.152  -0.622   2.009  0.00  0.00    +0.153 HD
ATOM      8  C   UNK A  0       -2.704   1.153   1.228  0.00  0.00    +0.401 C 
ATOM      9  O   UNK A  0       -2.663   1.856   0.238  0.00  0.00    -0.226 OA
BRANCH   8  10
ATOM     10  O   UNK A  0       -3.334   1.587   2.336  0.00  0.00    -0.446 OA
BRANCH  10  11
ATOM     11  C   UNK A  0       -3.932   2.884   2.276  0.00  0.00    +0.269 C 
BRANCH  11  12
ATOM     12  C   UNK A  0       -4.586   3.197   3.598  0.00  0.00    -0.010 A 
ATOM     13  C   UNK A  0       -5.905   2.847   3.816  0.00  0.00    +0.007 A 
ATOM     14  C   UNK A  0       -6.505   3.134   5.028  0.00  0.00    +0.000 A 
ATOM     15  C   UNK A  0       -5.785   3.771   6.022  0.00  0.00    +0.000 A 
ATOM     16  C   UNK A  0       -4.465   4.120   5.803  0.00  0.00    +0.000 A 
ATOM     17  C   UNK A  0       -3.864   3.829   4.593  0.00  0.00    +0.007 A 
ENDBRANCH  11  12
ENDBRANCH  10  11
ENDBRANCH   8  10
ENDBRANCH   5   6
BRANCH   5  19
ATOM     18  CG1 VAL A  1       -0.019   1.526   0.010  0.00  0.00    +0.009 C 
ATOM     19  CB  VAL A  1        0.002  -0.004   0.002  0.00  0.00    +0.012 C 
ATOM     20  CG2 VAL A  1        0.742  -0.511   1.242  0.00  0.00    +0.009 C 
ENDBRANCH   5  19
ENDBRANCH   1   5
BRANCH   2  21
ATOM     21  CA  TYR A  2       -0.810  -4.166  -1.024  0.00  0.00    +0.186 C 
BRANCH  21  22
ATOM     22  C   TYR A  2       -2.096  -4.682  -1.615  0.00  0.00    +0.326 C 
ATOM     23  O   TYR A  2       -2.687  -4.027  -2.455  0.00  0.00    -0.249 OA
BRANCH  22  24
ATOM     24  OXT TYR A  2       -2.546  -5.756  -1.252  0.00  0.00    -0.479 OA
ATOM     25  HXT TYR A  2       -2.092  -6.260  -0.605  0.00  0.00    +0.295 HD
ENDBRANCH  22  24
ENDBRANCH  21  22
BRANCH  21  26
ATOM     26  CB  TYR A  2        0.370  -4.655  -1.865  0.00  0.00    +0.069 C 
BRANCH  26  27
ATOM     27  CG  TYR A  2        1.662  -4.243  -1.206  0.00  0.00    -0.045 A 
ATOM     28  CD2 TYR A  2        2.236  -3.024  -1.518  0.00  0.00    +0.007 A 
ATOM     29  CE2 TYR A  2        3.420  -2.644  -0.916  0.00  0.00    +0.045 A 
ATOM     30  CZ  TYR A  2        4.032  -3.485   0.002  0.00  0.00    +0.117 A 
ATOM     31  CE1 TYR A  2        3.454  -4.707   0.312  0.00  0.00    +0.045 A 
ATOM     32  CD1 TYR A  2        2.267  -5.081  -0.288  0.00  0.00    +0.007 A 
BRANCH  30  33
ATOM     33  OH  TYR A  2        5.197  -3.114   0.595  0.00  0.00    -0.507 OA
ATOM     34  HH  TYR A  2        5.080  -2.624   1.420  0.00  0.00    +0.292 HD
ENDBRANCH  30  33
ENDBRANCH  26  27
ENDBRANCH  21  26
ENDBRANCH   2  21
TORSDOF 12
