REMARK  Name = ZINC04214704
REMARK                            x       y       z     vdW  Elec       q    Type
REMARK                         _______ _______ _______ _____ _____    ______ ____
ROOT
ATOM      1  N   LIG    1       -9.665   8.372   1.099  0.00  0.00    -0.281 N 
ATOM      2  H   LIG    1      -10.463   7.907   0.805  0.00  0.00    +0.155 HD
ATOM      3  C   LIG    1       -9.729   9.676   1.433  0.00  0.00    +0.250 C 
ATOM      4  O   LIG    1       -8.711  10.286   1.700  0.00  0.00    -0.270 OA
ENDROOT
BRANCH   1   8
ATOM      5  C   LIG    1       -6.036   6.339   1.327  0.00  0.00    -0.049 A 
ATOM      6  C   LIG    1       -6.262   7.440   2.133  0.00  0.00    +0.005 A 
ATOM      7  C   LIG    1       -7.462   8.119   2.056  0.00  0.00    +0.023 A 
ATOM      8  C   LIG    1       -8.447   7.689   1.176  0.00  0.00    +0.034 A 
ATOM      9  C   LIG    1       -8.218   6.580   0.372  0.00  0.00    +0.023 A 
ATOM     10  C   LIG    1       -7.014   5.908   0.450  0.00  0.00    +0.005 A 
BRANCH   5  11
ATOM     11  C   LIG    1       -4.723   5.604   1.410  0.00  0.00    +0.016 C 
BRANCH  11  12
ATOM     12  C   LIG    1       -3.735   6.211   0.411  0.00  0.00    -0.074 C 
BRANCH  12  18
ATOM     13  C   LIG    1        1.155   2.052   0.012  0.00  0.00    +0.162 A 
ATOM     14  C   LIG    1        1.131   3.435   0.049  0.00  0.00    +0.053 A 
ATOM     15  C   LIG    1       -0.078   4.115   0.061  0.00  0.00    -0.044 A 
ATOM     16  C   LIG    1       -1.264   3.412   0.034  0.00  0.00    -0.057 A 
ATOM     17  C   LIG    1       -2.600   4.107   0.039  0.00  0.00    -0.043 C 
ATOM     18  N   LIG    1       -2.445   5.493   0.513  0.00  0.00    +0.383 N 
ATOM     19  H   LIG    1       -2.146   5.480   1.496  0.00  0.00    -0.081 HD
ATOM     20  C   LIG    1       -1.417   6.180  -0.294  0.00  0.00    -0.074 C 
ATOM     21  C   LIG    1       -1.244   2.025  -0.006  0.00  0.00    +0.051 A 
ATOM     22  C   LIG    1       -0.053   5.621   0.112  0.00  0.00    +0.017 C 
ATOM     23  C   LIG    1       -0.041   1.342  -0.012  0.00  0.00    +0.162 A 
BRANCH  13  25
ATOM     24  C   LIG    1        3.530   2.186   0.025  0.00  0.00    +0.277 C 
ATOM     25  O   LIG    1        2.343   1.390  -0.001  0.00  0.00    -0.491 OA
ENDBRANCH  13  25
BRANCH  23  26
ATOM     26  O   LIG    1       -0.028  -0.018  -0.046  0.00  0.00    -0.491 OA
ATOM     27  C   LIG    1       -1.295  -0.678  -0.069  0.00  0.00    +0.277 C 
ENDBRANCH  23  26
ENDBRANCH  12  18
ENDBRANCH  11  12
ENDBRANCH   5  11
ENDBRANCH   1   8
BRANCH   3  28
ATOM     28  C   LIG    1      -11.031  10.362   1.476  0.00  0.00    +0.062 A 
ATOM     29  C   LIG    1      -12.212   9.641   1.267  0.00  0.00    +0.064 A 
ATOM     30  C   LIG    1      -13.429  10.287   1.315  0.00  0.00    +0.162 A 
ATOM     31  C   LIG    1      -13.486  11.660   1.559  0.00  0.00    +0.163 A 
ATOM     32  C   LIG    1      -12.322  12.382   1.761  0.00  0.00    +0.073 A 
ATOM     33  C   LIG    1      -11.092  11.743   1.722  0.00  0.00    +0.050 A 
BRANCH  33  34
ATOM     34  N   LIG    1       -9.920  12.469   1.925  0.00  0.00    -0.281 N 
ATOM     35  H   LIG    1       -9.173  12.063   2.392  0.00  0.00    +0.155 HD
ATOM     36  C   LIG    1       -9.825  13.735   1.472  0.00  0.00    +0.250 C 
ATOM     37  O   LIG    1      -10.789  14.272   0.963  0.00  0.00    -0.270 OA
BRANCH  36  38
ATOM     38  C   LIG    1       -8.549  14.470   1.596  0.00  0.00    +0.056 A 
ATOM     39  C   LIG    1       -8.445  15.776   1.131  0.00  0.00    +0.024 A 
ATOM     40  C   LIG    1       -7.209  16.429   1.273  0.00  0.00    +0.001 A 
ATOM     41  C   LIG    1       -7.027  17.750   0.827  0.00  0.00    +0.010 A 
ATOM     42  C   LIG    1       -5.816  18.351   0.982  0.00  0.00    +0.001 A 
ATOM     43  C   LIG    1       -4.753  17.674   1.577  0.00  0.00    +0.002 A 
ATOM     44  C   LIG    1       -4.894  16.395   2.020  0.00  0.00    +0.028 A 
ATOM     45  C   LIG    1       -6.129  15.739   1.879  0.00  0.00    +0.071 A 
ATOM     46  N   LIG    1       -6.290  14.481   2.306  0.00  0.00    -0.254 NA
ATOM     47  C   LIG    1       -7.433  13.855   2.189  0.00  0.00    +0.124 A 
ENDBRANCH  36  38
ENDBRANCH  33  34
BRANCH  30  48
ATOM     48  O   LIG    1      -14.578   9.585   1.117  0.00  0.00    -0.491 OA
ATOM     49  C   LIG    1      -14.447   8.183   0.873  0.00  0.00    +0.277 C 
ENDBRANCH  30  48
BRANCH  31  50
ATOM     50  O   LIG    1      -14.689  12.290   1.599  0.00  0.00    -0.491 OA
ATOM     51  C   LIG    1      -14.676  13.696   1.854  0.00  0.00    +0.277 C 
ENDBRANCH  31  50
ENDBRANCH   3  28
TORSDOF 11
