REMARK  Name = ZINC04243783
REMARK                            x       y       z     vdW  Elec       q    Type
REMARK                         _______ _______ _______ _____ _____    ______ ____
ROOT
ATOM      1  C   LIG    1        2.440   0.082  -0.123  0.00  0.00    +0.171 C 
ATOM      2  O   LIG    1        2.437   1.284   0.066  0.00  0.00    -0.292 OA
ENDROOT
BRANCH   1   3
ATOM      3  C   LIG    1        3.716  -0.626  -0.361  0.00  0.00    +0.019 A 
ATOM      4  C   LIG    1        3.723  -2.007  -0.573  0.00  0.00    +0.011 A 
ATOM      5  C   LIG    1        4.916  -2.661  -0.799  0.00  0.00    +0.002 A 
ATOM      6  C   LIG    1        6.106  -1.954  -0.807  0.00  0.00    +0.015 A 
ATOM      7  C   LIG    1        6.107  -0.586  -0.593  0.00  0.00    +0.019 A 
ATOM      8 BR   LIG    1        7.739   0.369  -0.605  0.00  0.00    -0.050 Br
ATOM      9  C   LIG    1        4.920   0.081  -0.370  0.00  0.00    +0.026 A 
ENDBRANCH   1   3
BRANCH   1  10
ATOM     10  C   LIG    1        1.178  -0.664  -0.115  0.00  0.00    +0.166 C 
BRANCH  10  11
ATOM     11  C   LIG    1        0.024  -0.039   0.215  0.00  0.00    +0.247 C 
ATOM     12  O   LIG    1        0.053   1.227   0.692  0.00  0.00    -0.285 OA
BRANCH  11  13
ATOM     13  C   LIG    1       -1.271  -0.739   0.054  0.00  0.00    +0.375 C 
ATOM     14  O   LIG    1       -1.297  -1.875  -0.374  0.00  0.00    -0.242 OA
BRANCH  13  16
ATOM     15  C   LIG    1       -3.651  -0.864   0.198  0.00  0.00    +0.280 C 
ATOM     16  O   LIG    1       -2.419  -0.117   0.382  0.00  0.00    -0.462 OA
ENDBRANCH  13  16
ENDBRANCH  11  13
ENDBRANCH  10  11
ENDBRANCH   1  10
TORSDOF 5
