REMARK  Name = ZINC04533105
REMARK                            x       y       z     vdW  Elec       q    Type
REMARK                         _______ _______ _______ _____ _____    ______ ____
ROOT
ATOM      1  C   LIG    1       -1.795   0.485  -2.085  0.00  0.00    +0.012 C 
ATOM      2  C   LIG    1       -0.734   1.423  -1.507  0.00  0.00    -0.016 C 
ATOM      3  C   LIG    1       -1.192   2.884  -1.503  0.00  0.00    +0.008 C 
ATOM      4  C   LIG    1       -2.281   3.101  -0.457  0.00  0.00    +0.005 C 
ATOM      5  C   LIG    1       -1.698   2.809   0.931  0.00  0.00    +0.002 C 
ATOM      6  C   LIG    1       -1.292   1.354   0.977  0.00  0.00    -0.003 C 
ATOM      7  C   LIG    1       -0.692   1.062   2.357  0.00  0.00    +0.008 C 
ATOM      8  C   LIG    1       -1.770   1.254   3.426  0.00  0.00    +0.032 C 
ATOM      9  C   LIG    1       -2.341   2.654   3.294  0.00  0.00    -0.060 C 
ATOM     10  C   LIG    1       -2.427   3.396   4.397  0.00  0.00    +0.046 C 
ATOM     11  C   LIG    1       -2.987   4.751   4.328  0.00  0.00    +0.156 C 
ATOM     12  C   LIG    1       -3.882   5.051   3.141  0.00  0.00    +0.080 C 
ATOM     13  C   LIG    1       -3.143   4.596   1.884  0.00  0.00    +0.019 C 
ATOM     14  O   LIG    1       -2.746   5.586   5.174  0.00  0.00    -0.293 OA
ATOM     15  C   LIG    1       -2.778   3.092   1.983  0.00  0.00    -0.007 C 
ATOM     16  C   LIG    1       -4.032   2.305   1.596  0.00  0.00    +0.016 C 
ATOM     17  C   LIG    1        0.590   1.375  -2.316  0.00  0.00    +0.104 C 
ATOM     18  C   LIG    1        1.727   1.580  -1.298  0.00  0.00    +0.015 C 
ATOM     19  C   LIG    1        1.059   1.703   0.091  0.00  0.00    +0.005 C 
ATOM     20  C   LIG    1       -0.294   0.992  -0.098  0.00  0.00    -0.001 C 
ENDROOT
BRANCH  17  21
ATOM     21  C   LIG    1        0.610   2.476  -3.345  0.00  0.00    +0.310 C 
ATOM     22  O   LIG    1        1.117   3.540  -3.080  0.00  0.00    -0.251 OA
BRANCH  21  23
ATOM     23  O   LIG    1        0.064   2.275  -4.554  0.00  0.00    -0.468 OA
ATOM     24  C   LIG    1        0.119   3.380  -5.494  0.00  0.00    +0.280 C 
ENDBRANCH  21  23
ENDBRANCH  17  21
TORSDOF 2
