REMARK  Name = ZINC04217344
REMARK                            x       y       z     vdW  Elec       q    Type
REMARK                         _______ _______ _______ _____ _____    ______ ____
ROOT
ATOM      1  C   LIG    1        1.763  -1.704  -0.024  0.00  0.00    +0.363 C 
ATOM      2  N   LIG    1        3.069  -1.950  -0.038  0.00  0.00    -0.291 N 
ATOM      3  H   LIG    1        3.390  -2.865  -0.046  0.00  0.00    +0.254 HD
ATOM      4  H   LIG    1        3.701  -1.214  -0.040  0.00  0.00    +0.254 HD
ENDROOT
BRANCH   1   8
ATOM      5  C   LIG    1       -0.016   1.347   0.009  0.00  0.00    +0.059 A 
ATOM      6  C   LIG    1        1.311   1.798  -0.001  0.00  0.00    +0.152 A 
ATOM      7  N   LIG    1        2.100   0.756  -0.014  0.00  0.00    -0.113 NA
ATOM      8  N   LIG    1        1.305  -0.398  -0.013  0.00  0.00    -0.118 N 
ATOM      9  C   LIG    1        0.002  -0.004   0.002  0.00  0.00    +0.196 A 
ENDBRANCH   1   8
BRANCH   1  10
ATOM     10  N   LIG    1        0.897  -2.712  -0.022  0.00  0.00    -0.251 N 
ATOM     11  H   LIG    1        1.218  -3.627  -0.030  0.00  0.00    +0.241 HD
ATOM     12  H   LIG    1       -0.056  -2.532  -0.012  0.00  0.00    +0.241 HD
ENDBRANCH   1  10
TORSDOF 2
