REMARK  Name = ZINC04474603
REMARK                            x       y       z     vdW  Elec       q    Type
REMARK                         _______ _______ _______ _____ _____    ______ ____
ROOT
ATOM      1  C   LIG    1       -2.732  -2.198  -8.573  0.00  0.00    -0.027 C 
ATOM      2  C   LIG    1       -3.771  -2.377  -9.351  0.00  0.00    -0.027 C 
ENDROOT
BRANCH   1   3
ATOM      3  C   LIG    1       -2.549  -3.060  -7.351  0.00  0.00    +0.053 C 
BRANCH   3   5
ATOM      4  C   LIG    1       -0.380  -3.562  -6.348  0.00  0.00    -0.027 C 
ATOM      5  C   LIG    1       -1.179  -3.687  -7.379  0.00  0.00    -0.027 C 
BRANCH   4   6
ATOM      6  C   LIG    1       -0.889  -2.944  -5.071  0.00  0.00    +0.053 C 
BRANCH   6   8
ATOM      7  C   LIG    1        0.036  -3.431  -2.865  0.00  0.00    -0.027 C 
ATOM      8  C   LIG    1       -0.608  -3.871  -3.917  0.00  0.00    -0.027 C 
BRANCH   7   9
ATOM      9  C   LIG    1        0.355  -1.964  -2.736  0.00  0.00    +0.053 C 
BRANCH   9  11
ATOM     10  C   LIG    1        0.698  -0.832  -0.600  0.00  0.00    -0.031 C 
ATOM     11  C   LIG    1       -0.128  -1.461  -1.400  0.00  0.00    -0.027 C 
BRANCH  10  13
ATOM     12  C   LIG    1        2.330   1.020  -0.833  0.00  0.00    +0.008 C 
ATOM     13  C   LIG    1        2.080  -0.470  -1.077  0.00  0.00    +0.023 C 
ENDBRANCH  10  13
ENDBRANCH   9  11
ENDBRANCH   7   9
ENDBRANCH   6   8
ENDBRANCH   4   6
ENDBRANCH   3   5
ENDBRANCH   1   3
BRANCH   2  14
ATOM     14  C   LIG    1       -4.863  -3.331  -8.943  0.00  0.00    +0.053 C 
BRANCH  14  15
ATOM     15  C   LIG    1       -6.196  -2.632  -9.018  0.00  0.00    -0.027 C 
ATOM     16  C   LIG    1       -7.155  -3.128  -9.760  0.00  0.00    -0.031 C 
BRANCH  16  17
ATOM     17  C   LIG    1       -6.874  -4.292 -10.675  0.00  0.00    +0.027 C 
BRANCH  17  18
ATOM     18  C   LIG    1       -7.760  -5.476 -10.280  0.00  0.00    +0.015 C 
BRANCH  18  19
ATOM     19  C   LIG    1       -7.475  -6.658 -11.209  0.00  0.00    +0.121 C 
BRANCH  19  20
ATOM     20  C   LIG    1       -8.347  -7.824 -10.820  0.00  0.00    +0.305 C 
ATOM     21  O   LIG    1       -9.124  -7.719  -9.886  0.00  0.00    -0.251 OA
BRANCH  20  22
ATOM     22  O   LIG    1       -8.275  -8.872 -11.439  0.00  0.00    -0.481 OA
ATOM     23  H   LIG    1       -7.678  -8.952 -12.156  0.00  0.00    +0.295 HD
ENDBRANCH  20  22
ENDBRANCH  19  20
ENDBRANCH  18  19
ENDBRANCH  17  18
ENDBRANCH  16  17
ENDBRANCH  14  15
ENDBRANCH   2  14
TORSDOF 14
