REMARK  Name = ZINC04097406
REMARK                            x       y       z     vdW  Elec       q    Type
REMARK                         _______ _______ _______ _____ _____    ______ ____
ROOT
ATOM      1  C   LIG    1       -1.380  -0.319   4.736  0.00  0.00    -0.040 A 
ATOM      2  C   LIG    1       -1.561   1.047   4.626  0.00  0.00    +0.049 A 
ATOM      3  C   LIG    1       -2.172   1.579   3.499  0.00  0.00    +0.124 A 
ATOM      4  C   LIG    1       -2.603   0.738   2.484  0.00  0.00    +0.043 A 
ATOM      5  C   LIG    1       -2.425  -0.632   2.599  0.00  0.00    +0.124 A 
ATOM      6  C   LIG    1       -1.808  -1.158   3.725  0.00  0.00    +0.049 A 
ENDROOT
BRANCH   4   7
ATOM      7  C   LIG    1       -3.267   1.313   1.259  0.00  0.00    +0.056 C 
ATOM      8  C   LIG    1       -4.659   0.763   1.144  0.00  0.00    -0.019 C 
ATOM      9  C   LIG    1       -5.191   0.363   0.034  0.00  0.00    -0.076 C 
ATOM     10  C   LIG    1       -6.605  -0.156   0.076  0.00  0.00    +0.039 C 
ATOM     11  C   LIG    1       -4.488   0.385  -1.291  0.00  0.00    +0.031 C 
ATOM     12  C   LIG    1       -3.269   1.308  -1.226  0.00  0.00    +0.013 C 
ATOM     13  C   LIG    1       -2.451   0.944   0.019  0.00  0.00    +0.026 C 
BRANCH  13  14
ATOM     14  C   LIG    1       -1.156   1.715   0.017  0.00  0.00    -0.076 C 
ATOM     15  C   LIG    1       -1.176   3.222   0.025  0.00  0.00    +0.039 C 
ATOM     16  C   LIG    1       -0.013   1.076   0.008  0.00  0.00    +0.007 C 
ENDBRANCH  13  14
ENDBRANCH   4   7
BRANCH   3  17
ATOM     17  O   LIG    1       -2.350   2.921   3.392  0.00  0.00    -0.506 OA
ATOM     18  H   LIG    1       -3.189   3.237   3.754  0.00  0.00    +0.292 HD
ENDBRANCH   3  17
BRANCH   5  19
ATOM     19  O   LIG    1       -2.851  -1.458   1.608  0.00  0.00    -0.506 OA
ATOM     20  H   LIG    1       -2.188  -1.629   0.926  0.00  0.00    +0.292 HD
ENDBRANCH   5  19
BRANCH   1  21
ATOM     21  C   LIG    1       -0.716  -0.893   5.960  0.00  0.00    +0.035 C 
BRANCH  21  22
ATOM     22  C   LIG    1       -1.778  -1.206   7.017  0.00  0.00    +0.005 C 
BRANCH  22  23
ATOM     23  C   LIG    1       -1.103  -1.790   8.260  0.00  0.00    +0.000 C 
BRANCH  23  25
ATOM     24  C   LIG    1       -1.491  -2.686  10.560  0.00  0.00    +0.004 C 
ATOM     25  C   LIG    1       -2.165  -2.103   9.317  0.00  0.00    -0.003 C 
ENDBRANCH  23  25
ENDBRANCH  22  23
ENDBRANCH  21  22
ENDBRANCH   1  21
TORSDOF 8
