REMARK  Name = ZINC04475232
REMARK                            x       y       z     vdW  Elec       q    Type
REMARK                         _______ _______ _______ _____ _____    ______ ____
ROOT
ATOM      1  C   LIG    1        0.127   1.449  -0.004  0.00  0.00    +0.035 C 
ATOM      2  C   LIG    1        0.087  -0.057  -0.000  0.00  0.00    -0.023 C 
ATOM      3  C   LIG    1       -1.080  -0.691  -0.001  0.00  0.00    -0.003 C 
ATOM      4  C   LIG    1       -2.434  -0.097  -0.019  0.00  0.00    +0.160 C 
ATOM      5  C   LIG    1       -3.439  -1.219   0.258  0.00  0.00    +0.084 C 
ATOM      6  C   LIG    1       -2.546  -2.288   0.910  0.00  0.00    +0.010 C 
ATOM      7  C   LIG    1       -3.095  -3.680   0.990  0.00  0.00    -0.002 C 
ATOM      8  C   LIG    1       -4.403  -3.847   0.224  0.00  0.00    +0.008 C 
ATOM      9  C   LIG    1       -4.723  -5.333   0.045  0.00  0.00    +0.032 C 
ATOM     10  C   LIG    1       -4.019  -6.120   1.126  0.00  0.00    -0.060 C 
ATOM     11  C   LIG    1       -4.714  -6.817   2.016  0.00  0.00    +0.046 C 
ATOM     12  C   LIG    1       -4.046  -7.573   3.072  0.00  0.00    +0.156 C 
ATOM     13  C   LIG    1       -2.549  -7.520   3.220  0.00  0.00    +0.080 C 
ATOM     14  C   LIG    1       -2.007  -6.235   2.588  0.00  0.00    +0.019 C 
ATOM     15  O   LIG    1       -4.704  -8.247   3.839  0.00  0.00    -0.293 OA
ATOM     16  C   LIG    1       -2.509  -6.089   1.158  0.00  0.00    -0.007 C 
ATOM     17  C   LIG    1       -1.954  -7.210   0.279  0.00  0.00    +0.016 C 
ATOM     18  C   LIG    1       -2.073  -4.731   0.575  0.00  0.00    +0.002 C 
ATOM     19  C   LIG    1       -0.663  -4.394   1.029  0.00  0.00    +0.005 C 
ATOM     20  C   LIG    1       -0.179  -3.014   0.581  0.00  0.00    +0.012 C 
ATOM     21  O   LIG    1       -2.703   1.070  -0.205  0.00  0.00    -0.292 OA
ATOM     22  C   LIG    1       -1.299  -2.192   0.003  0.00  0.00    -0.001 C 
ATOM     23  C   LIG    1       -1.588  -2.595  -1.444  0.00  0.00    +0.016 C 
ENDROOT
TORSDOF 0
