REMARK  Name = ZINC04489629
REMARK                            x       y       z     vdW  Elec       q    Type
REMARK                         _______ _______ _______ _____ _____    ______ ____
ROOT
ATOM      1  C   LIG    1       -8.092  -2.873   4.420  0.00  0.00    +0.064 A 
ATOM      2  C   LIG    1       -9.368  -2.336   4.247  0.00  0.00    +0.028 A 
ATOM      3  C   LIG    1       -9.998  -1.739   5.325  0.00  0.00    +0.004 A 
ATOM      4  C   LIG    1       -9.332  -1.699   6.543  0.00  0.00    +0.023 A 
ATOM      5  C   LIG    1       -8.068  -2.252   6.644  0.00  0.00    +0.044 A 
ATOM      6  N   LIG    1       -7.492  -2.818   5.604  0.00  0.00    -0.252 NA
ENDROOT
BRANCH   1   8
ATOM      7  C   LIG    1       -6.196  -4.032   3.440  0.00  0.00    +0.006 C 
ATOM      8  C   LIG    1       -7.406  -3.514   3.280  0.00  0.00    +0.026 C 
BRANCH   7   9
ATOM      9  C   LIG    1       -5.496  -4.686   2.276  0.00  0.00    +0.141 C 
BRANCH   9  10
ATOM     10  O   LIG    1       -6.281  -4.521   1.094  0.00  0.00    -0.387 OA
ATOM     11  H   LIG    1       -6.437  -3.598   0.851  0.00  0.00    +0.210 HD
ENDBRANCH   9  10
BRANCH   9  12
ATOM     12  C   LIG    1       -4.126  -4.035   2.074  0.00  0.00    +0.062 C 
BRANCH  12  14
ATOM     13  C   LIG    1       -2.889  -4.108  -0.030  0.00  0.00    -0.031 C 
ATOM     14  C   LIG    1       -3.376  -4.768   0.991  0.00  0.00    -0.028 C 
BRANCH  13  15
ATOM     15  C   LIG    1       -2.928  -2.602  -0.042  0.00  0.00    +0.027 C 
BRANCH  15  16
ATOM     16  C   LIG    1       -1.526  -2.058  -0.327  0.00  0.00    +0.004 C 
BRANCH  16  17
ATOM     17  C   LIG    1       -1.565  -0.528  -0.339  0.00  0.00    +0.000 C 
BRANCH  17  19
ATOM     18  C   LIG    1       -0.203   1.545  -0.635  0.00  0.00    +0.004 C 
ATOM     19  C   LIG    1       -0.164   0.015  -0.624  0.00  0.00    -0.003 C 
ENDBRANCH  17  19
ENDBRANCH  16  17
ENDBRANCH  15  16
ENDBRANCH  13  15
ENDBRANCH  12  14
ENDBRANCH   9  12
ENDBRANCH   7   9
ENDBRANCH   1   8
BRANCH   5  20
ATOM     20  C   LIG    1       -7.343  -2.209   7.964  0.00  0.00    +0.086 C 
BRANCH  20  21
ATOM     21  C   LIG    1       -6.932  -3.627   8.366  0.00  0.00    +0.120 C 
BRANCH  21  22
ATOM     22  O   LIG    1       -8.102  -4.413   8.603  0.00  0.00    -0.391 OA
ATOM     23  H   LIG    1       -8.670  -4.070   9.306  0.00  0.00    +0.210 HD
ENDBRANCH  21  22
BRANCH  21  24
ATOM     24  C   LIG    1       -6.088  -3.572   9.641  0.00  0.00    +0.032 C 
BRANCH  24  25
ATOM     25  C   LIG    1       -5.574  -4.974   9.973  0.00  0.00    +0.005 C 
BRANCH  25  26
ATOM     26  C   LIG    1       -4.730  -4.918  11.248  0.00  0.00    +0.028 C 
BRANCH  26  27
ATOM     27  C   LIG    1       -4.215  -6.321  11.581  0.00  0.00    +0.156 C 
BRANCH  27  28
ATOM     28  O   LIG    1       -3.427  -6.269  12.772  0.00  0.00    -0.395 OA
ATOM     29  H   LIG    1       -3.068  -7.125  13.043  0.00  0.00    +0.209 HD
ENDBRANCH  27  28
ENDBRANCH  26  27
ENDBRANCH  25  26
ENDBRANCH  24  25
ENDBRANCH  21  24
ENDBRANCH  20  21
ENDBRANCH   5  20
TORSDOF 17
