REMARK  Name = ZINC04353192
REMARK                            x       y       z     vdW  Elec       q    Type
REMARK                         _______ _______ _______ _____ _____    ______ ____
ROOT
ATOM      1  C   LIG    1        1.171   2.098   0.002  0.00  0.00    +0.121 A 
ATOM      2  C   LIG    1       -0.017   1.372   0.010  0.00  0.00    +0.047 A 
ATOM      3  C   LIG    1        0.002  -0.004   0.002  0.00  0.00    +0.030 A 
ATOM      4  C   LIG    1        1.217  -0.687  -0.013  0.00  0.00    +0.051 A 
ATOM      5  C   LIG    1        2.416   0.044  -0.020  0.00  0.00    +0.049 A 
ATOM      6  C   LIG    1        3.699  -0.680  -0.036  0.00  0.00    +0.197 A 
ATOM      7  C   LIG    1        3.650  -2.153  -0.043  0.00  0.00    +0.046 A 
ATOM      8  C   LIG    1        4.825  -2.907  -0.059  0.00  0.00    +0.014 A 
ATOM      9  C   LIG    1        4.756  -4.272  -0.066  0.00  0.00    +0.001 A 
ATOM     10  C   LIG    1        3.526  -4.914  -0.058  0.00  0.00    +0.002 A 
ATOM     11  C   LIG    1        2.355  -4.189  -0.042  0.00  0.00    +0.026 A 
ATOM     12  C   LIG    1        2.400  -2.796  -0.035  0.00  0.00    +0.051 A 
ATOM     13  O   LIG    1        4.761  -0.084  -0.043  0.00  0.00    -0.287 OA
ATOM     14  N   LIG    1        1.231  -2.067  -0.021  0.00  0.00    -0.354 N 
ATOM     15  H   LIG    1        0.385  -2.542  -0.015  0.00  0.00    +0.166 HD
ATOM     16  C   LIG    1        2.386   1.441  -0.013  0.00  0.00    +0.059 A 
ENDROOT
BRANCH   1  18
ATOM     17  C   LIG    1       -0.154   4.073   0.025  0.00  0.00    +0.277 C 
ATOM     18  O   LIG    1        1.136   3.458   0.010  0.00  0.00    -0.495 OA
ENDBRANCH   1  18
TORSDOF 1
