REMARK  Name = ZINC04342760
REMARK                            x       y       z     vdW  Elec       q    Type
REMARK                         _______ _______ _______ _____ _____    ______ ____
ROOT
ATOM      1  C   LIG    1       -3.689   2.979   0.299  0.00  0.00    +0.059 A 
ATOM      2  C   LIG    1       -2.502   3.668   0.516  0.00  0.00    +0.027 A 
ATOM      3  C   LIG    1       -1.337   2.972   0.771  0.00  0.00    +0.024 A 
ATOM      4  C   LIG    1       -1.350   1.584   0.801  0.00  0.00    +0.027 A 
ATOM      5  C   LIG    1       -2.536   0.895   0.584  0.00  0.00    +0.054 A 
ATOM      6  C   LIG    1       -3.702   1.591   0.334  0.00  0.00    +0.140 A 
ENDROOT
BRANCH   4   7
ATOM      7  N   LIG    1       -0.168   0.878   1.054  0.00  0.00    -0.358 N 
ATOM      8  H   LIG    1        0.662   1.359   1.202  0.00  0.00    +0.142 HD
ATOM      9  H   LIG    1       -0.177  -0.091   1.079  0.00  0.00    +0.142 HD
ENDBRANCH   4   7
BRANCH   6  10
ATOM     10  S   LIG    1       -5.208   0.717   0.061  0.00  0.00    +0.111 S 
ATOM     11  O   LIG    1       -5.929   1.449  -0.921  0.00  0.00    -0.142 OA
ATOM     12  O   LIG    1       -5.747   0.426   1.343  0.00  0.00    -0.142 OA
BRANCH  10  13
ATOM     13  O   LIG    1       -4.845  -0.618  -0.572  0.00  0.00    -0.250 OA
ATOM     14  H   LIG    1       -4.348  -1.154   0.066  0.00  0.00    +0.245 HD
ENDBRANCH  10  13
ENDBRANCH   6  10
BRANCH   1  15
ATOM     15  N   LIG    1       -4.871   3.685   0.047  0.00  0.00    -0.313 N 
ATOM     16  H   LIG    1       -5.676   3.207  -0.207  0.00  0.00    +0.152 HD
BRANCH  15  19
ATOM     17  C   LIG    1       -5.575   7.220  -0.680  0.00  0.00    +0.024 A 
ATOM     18  C   LIG    1       -5.555   5.844  -0.791  0.00  0.00    +0.025 A 
ATOM     19  C   LIG    1       -4.892   5.080   0.160  0.00  0.00    +0.031 A 
ATOM     20  C   LIG    1       -4.254   5.699   1.227  0.00  0.00    +0.025 A 
ATOM     21  C   LIG    1       -4.270   7.076   1.336  0.00  0.00    +0.024 A 
ATOM     22  C   LIG    1       -4.933   7.840   0.384  0.00  0.00    +0.025 A 
BRANCH  22  23
ATOM     23  N   LIG    1       -4.954   9.235   0.497  0.00  0.00    -0.358 N 
ATOM     24  H   LIG    1       -4.505   9.668   1.240  0.00  0.00    +0.142 HD
ATOM     25  H   LIG    1       -5.417   9.769  -0.167  0.00  0.00    +0.142 HD
ENDBRANCH  22  23
ENDBRANCH  15  19
ENDBRANCH   1  15
TORSDOF 6
