REMARK  Name = ZINC04363905
REMARK                            x       y       z     vdW  Elec       q    Type
REMARK                         _______ _______ _______ _____ _____    ______ ____
ROOT
ATOM      1  C   LIG    1       -1.214  -0.652  -0.191  0.00  0.00    +0.162 A 
ATOM      2  C   LIG    1       -2.387   0.086  -0.162  0.00  0.00    +0.051 A 
ATOM      3  C   LIG    1       -3.594  -0.543   0.082  0.00  0.00    +0.032 A 
ATOM      4  C   LIG    1       -3.634  -1.908   0.299  0.00  0.00    +0.109 A 
ATOM      5  C   LIG    1       -2.468  -2.650   0.272  0.00  0.00    +0.078 A 
ATOM      6  C   LIG    1       -1.256  -2.027   0.021  0.00  0.00    +0.164 A 
ENDROOT
BRANCH   4   7
ATOM      7  S   LIG    1       -5.175  -2.704   0.610  0.00  0.00    +0.061 S 
ATOM      8  O   LIG    1       -6.049  -1.709   1.124  0.00  0.00    -0.153 OA
ATOM      9  O   LIG    1       -4.879  -3.898   1.321  0.00  0.00    -0.153 OA
BRANCH   7  10
ATOM     10  N   LIG    1       -5.793  -3.166  -0.855  0.00  0.00    -0.168 NA
BRANCH  10  11
ATOM     11  C   LIG    1       -6.662  -2.254  -1.604  0.00  0.00    +0.183 C 
BRANCH  11  12
ATOM     12  C   LIG    1       -5.838  -1.479  -2.600  0.00  0.00    +0.120 A 
ATOM     13  C   LIG    1       -5.585  -1.849  -3.868  0.00  0.00    +0.046 A 
ATOM     14  C   LIG    1       -4.780  -0.836  -4.437  0.00  0.00    +0.041 A 
ATOM     15  C   LIG    1       -4.590   0.093  -3.483  0.00  0.00    +0.195 A 
ATOM     16  O   LIG    1       -5.238  -0.299  -2.374  0.00  0.00    -0.466 OA
ENDBRANCH  11  12
ENDBRANCH  10  11
BRANCH  10  17
ATOM     17  C   LIG    1       -5.470  -4.485  -1.403  0.00  0.00    +0.124 C 
BRANCH  17  18
ATOM     18  C   LIG    1       -6.577  -5.475  -1.036  0.00  0.00    +0.135 C 
BRANCH  18  19
ATOM     19  C   LIG    1       -6.253  -6.801  -1.587  0.00  0.00    +0.064 C 
ATOM     20  N   LIG    1       -6.002  -7.824  -2.012  0.00  0.00    -0.197 NA
ENDBRANCH  18  19
ENDBRANCH  17  18
ENDBRANCH  10  17
ENDBRANCH   7  10
ENDBRANCH   4   7
BRANCH   1  22
ATOM     21  C   LIG    1       -0.060   1.378  -0.641  0.00  0.00    +0.277 C 
ATOM     22  O   LIG    1       -0.027  -0.035  -0.432  0.00  0.00    -0.491 OA
ENDBRANCH   1  22
BRANCH   6  23
ATOM     23  O   LIG    1       -0.108  -2.756  -0.012  0.00  0.00    -0.485 OA
BRANCH  23  24
ATOM     24  C   LIG    1       -0.238  -4.175   0.099  0.00  0.00    +0.174 C 
ATOM     25  C   LIG    1       -0.255  -4.590   1.585  0.00  0.00    +0.044 C 
ATOM     26  C   LIG    1        0.531  -5.923   1.616  0.00  0.00    +0.004 C 
ATOM     27  C   LIG    1        1.662  -5.678   0.586  0.00  0.00    +0.004 C 
ATOM     28  C   LIG    1        0.981  -4.867  -0.536  0.00  0.00    +0.044 C 
ENDBRANCH  23  24
ENDBRANCH   6  23
TORSDOF 10
