REMARK  Name = ZINC04098005
REMARK                            x       y       z     vdW  Elec       q    Type
REMARK                         _______ _______ _______ _____ _____    ______ ____
ROOT
ATOM      1  C   LIG    1       -0.370  -1.720   2.909  0.00  0.00    -0.002 A 
ATOM      2  C   LIG    1       -1.705  -1.435   2.698  0.00  0.00    +0.014 A 
ATOM      3  C   LIG    1       -2.667  -1.959   3.542  0.00  0.00    -0.006 A 
ATOM      4  C   LIG    1       -2.296  -2.768   4.600  0.00  0.00    +0.014 A 
ATOM      5  C   LIG    1       -0.962  -3.057   4.815  0.00  0.00    -0.002 A 
ATOM      6  C   LIG    1        0.005  -2.537   3.966  0.00  0.00    +0.124 A 
ENDROOT
BRANCH   3   7
ATOM      7  C   LIG    1       -4.123  -1.645   3.310  0.00  0.00    +0.211 C 
ATOM      8  C   LIG    1       -4.535  -0.450   4.181  0.00  0.00    +0.129 C 
ATOM      9  C   LIG    1       -6.012  -0.202   3.934  0.00  0.00    +0.174 C 
ATOM     10  C   LIG    1       -6.866  -1.389   3.813  0.00  0.00    +0.101 A 
ATOM     11  C   LIG    1       -8.264  -1.272   3.839  0.00  0.00    +0.134 A 
ATOM     12  C   LIG    1       -9.046  -2.406   3.711  0.00  0.00    +0.091 A 
ATOM     13  C   LIG    1       -8.447  -3.651   3.559  0.00  0.00    +0.124 A 
ATOM     14  C   LIG    1       -7.064  -3.774   3.539  0.00  0.00    +0.092 A 
ATOM     15  C   LIG    1       -6.263  -2.653   3.667  0.00  0.00    +0.139 A 
ATOM     16  O   LIG    1       -6.464   0.920   3.840  0.00  0.00    -0.292 OA
ATOM     17  O   LIG    1       -4.915  -2.780   3.658  0.00  0.00    -0.483 OA
BRANCH  11  18
ATOM     18  O   LIG    1       -8.845  -0.055   3.989  0.00  0.00    -0.506 OA
ATOM     19  H   LIG    1       -9.021   0.402   3.156  0.00  0.00    +0.292 HD
ENDBRANCH  11  18
BRANCH  13  20
ATOM     20  O   LIG    1       -9.222  -4.757   3.432  0.00  0.00    -0.507 OA
ATOM     21  H   LIG    1       -9.451  -4.973   2.517  0.00  0.00    +0.292 HD
ENDBRANCH  13  20
ENDBRANCH   3   7
BRANCH   6  22
ATOM     22  O   LIG    1        1.317  -2.824   4.172  0.00  0.00    -0.506 OA
ATOM     23  H   LIG    1        1.770  -2.198   4.754  0.00  0.00    +0.292 HD
ENDBRANCH   6  22
BRANCH   1  24
ATOM     24  C   LIG    1        0.678  -1.150   1.989  0.00  0.00    +0.066 C 
BRANCH  24  28
ATOM     25  C   LIG    1        0.360  -0.457  -0.726  0.00  0.00    +0.038 C 
ATOM     26  C   LIG    1        0.794  -1.849  -0.347  0.00  0.00    -0.079 C 
ATOM     27  C   LIG    1        0.993  -2.894  -1.416  0.00  0.00    +0.038 C 
ATOM     28  C   LIG    1        0.999  -2.152   0.911  0.00  0.00    -0.023 C 
ENDBRANCH  24  28
ENDBRANCH   1  24
BRANCH   5  29
ATOM     29  C   LIG    1       -0.557  -3.939   5.968  0.00  0.00    +0.066 C 
BRANCH  29  30
ATOM     30  C   LIG    1       -0.192  -3.082   7.153  0.00  0.00    -0.023 C 
ATOM     31  C   LIG    1       -0.824  -3.234   8.290  0.00  0.00    -0.079 C 
ATOM     32  C   LIG    1       -0.371  -2.475   9.511  0.00  0.00    +0.038 C 
ATOM     33  C   LIG    1       -2.005  -4.167   8.378  0.00  0.00    +0.038 C 
ENDBRANCH  29  30
ENDBRANCH   5  29
TORSDOF 8
