REMARK  Name = ZINC04102420
REMARK                            x       y       z     vdW  Elec       q    Type
REMARK                         _______ _______ _______ _____ _____    ______ ____
ROOT
ATOM      1  C   LIG    1       -6.023   5.311  -1.671  0.00  0.00    -0.096 C 
ATOM      2  N   LIG    1       -5.298   4.202  -1.054  0.00  0.00    +0.381 N 
ATOM      3  H   LIG    1       -5.668   4.053  -0.108  0.00  0.00    -0.082 HD
ATOM      4  C   LIG    1       -5.523   2.965  -1.843  0.00  0.00    -0.043 C 
ATOM      5  C   LIG    1       -5.124   1.739  -1.075  0.00  0.00    -0.056 A 
ATOM      6  C   LIG    1       -6.013   0.655  -1.154  0.00  0.00    +0.006 A 
ATOM      7  C   LIG    1       -5.842  -0.480  -0.397  0.00  0.00    +0.049 A 
ATOM      8  C   LIG    1       -4.761  -0.627   0.463  0.00  0.00    +0.159 A 
ATOM      9  C   LIG    1       -3.838   0.425   0.505  0.00  0.00    +0.166 A 
ATOM     10  O   LIG    1       -2.678   0.471   1.197  0.00  0.00    -0.484 OA
ATOM     11  C   LIG    1       -2.204   1.824   1.216  0.00  0.00    +0.191 C 
ATOM     12  C   LIG    1       -0.704   1.902   1.273  0.00  0.00    +0.081 C 
ATOM     13  C   LIG    1       -0.017   1.425   0.010  0.00  0.00    +0.141 C 
ATOM     14  C   LIG    1       -0.718   1.909  -1.219  0.00  0.00    +0.001 C 
ATOM     15  C   LIG    1       -1.931   2.346  -1.231  0.00  0.00    -0.014 C 
ATOM     16  C   LIG    1       -2.822   2.450  -0.037  0.00  0.00    +0.053 C 
ATOM     17  C   LIG    1       -3.209   3.888   0.237  0.00  0.00    +0.001 C 
ATOM     18  C   LIG    1       -4.047   1.582  -0.259  0.00  0.00    +0.013 A 
ATOM     19  C   LIG    1       -3.878   4.538  -0.940  0.00  0.00    -0.077 C 
ENDROOT
BRANCH   8  20
ATOM     20  O   LIG    1       -4.606  -1.741   1.228  0.00  0.00    -0.503 OA
ATOM     21  H   LIG    1       -5.025  -1.683   2.097  0.00  0.00    +0.292 HD
ENDBRANCH   8  20
BRANCH  13  22
ATOM     22  O   LIG    1        0.002  -0.004   0.002  0.00  0.00    -0.388 OA
ATOM     23  H   LIG    1        0.442  -0.387  -0.769  0.00  0.00    +0.210 HD
ENDBRANCH  13  22
TORSDOF 2
