REMARK VINA RESULT:      -5.4      5.098      6.164
REMARK  Name = ZINC00000883
REMARK                            x       y       z     vdW  Elec       q    Type
REMARK                         _______ _______ _______ _____ _____    ______ ____
ROOT
ATOM      1  C   LIG    1       23.770  29.296  56.063  0.00  0.00    +0.025 C 
ATOM      2  C   LIG    1       23.426  30.514  55.203  0.00  0.00    +0.068 C 
ATOM      3  C   LIG    1       23.395  30.131  53.722  0.00  0.00    +0.025 C 
ATOM      4  C   LIG    1       22.101  31.105  55.629  0.00  0.00    -0.010 A 
ATOM      5  C   LIG    1       20.824  30.599  55.654  0.00  0.00    +0.034 A 
ATOM      6  C   LIG    1       19.777  31.391  56.106  0.00  0.00    +0.067 A 
ATOM      7  C   LIG    1       20.029  32.706  56.536  0.00  0.00    +0.091 A 
ATOM      8  N   LIG    1       18.841  33.235  56.917  0.00  0.00    -0.228 NA
ATOM      9  C   LIG    1       17.890  32.349  56.752  0.00  0.00    +0.139 A 
ATOM     10  C   LIG    1       21.333  33.206  56.504  0.00  0.00    +0.053 A 
ATOM     11  N   LIG    1       18.418  31.189  56.254  0.00  0.00    -0.338 N 
ATOM     12  H   LIG    1       17.930  30.379  56.042  0.00  0.00    +0.167 HD
ATOM     13  C   LIG    1       22.372  32.407  56.051  0.00  0.00    +0.040 A 
ATOM     14  N   LIG    1       23.738  32.678  55.926  0.00  0.00    -0.284 N 
ATOM     15  H   LIG    1       24.144  33.525  56.164  0.00  0.00    +0.155 HD
ATOM     16  C   LIG    1       24.422  31.628  55.441  0.00  0.00    +0.227 C 
ATOM     17  O   LIG    1       25.616  31.584  55.232  0.00  0.00    -0.275 OA
ENDROOT
BRANCH   9  18
ATOM     18  C   LIG    1       16.460  32.568  57.062  0.00  0.00    +0.020 A 
ATOM     19  C   LIG    1       15.914  33.856  57.064  0.00  0.00    +0.031 A 
ATOM     20  C   LIG    1       14.575  34.015  57.360  0.00  0.00    +0.111 A 
ATOM     21  N   LIG    1       13.814  32.975  57.637  0.00  0.00    -0.263 NA
ATOM     22  C   LIG    1       14.289  31.743  57.647  0.00  0.00    +0.111 A 
ATOM     23  C   LIG    1       15.615  31.493  57.357  0.00  0.00    +0.031 A 
ENDBRANCH   9  18
TORSDOF 1
