REMARK VINA RESULT:      -6.3      0.000      0.000
REMARK  Name = ZINC00000883
REMARK                            x       y       z     vdW  Elec       q    Type
REMARK                         _______ _______ _______ _____ _____    ______ ____
ROOT
ATOM      1  C   LIG    1       28.415  32.474  55.875  0.00  0.00    +0.025 C 
ATOM      2  C   LIG    1       27.120  32.840  55.147  0.00  0.00    +0.068 C 
ATOM      3  C   LIG    1       27.326  32.792  53.632  0.00  0.00    +0.025 C 
ATOM      4  C   LIG    1       26.000  31.913  55.561  0.00  0.00    -0.010 A 
ATOM      5  C   LIG    1       25.832  30.554  55.452  0.00  0.00    +0.034 A 
ATOM      6  C   LIG    1       24.672  29.961  55.933  0.00  0.00    +0.067 A 
ATOM      7  C   LIG    1       23.675  30.755  56.530  0.00  0.00    +0.091 A 
ATOM      8  N   LIG    1       22.672  29.923  56.901  0.00  0.00    -0.228 NA
ATOM      9  C   LIG    1       22.978  28.691  56.578  0.00  0.00    +0.139 A 
ATOM     10  C   LIG    1       23.862  32.136  56.634  0.00  0.00    +0.053 A 
ATOM     11  N   LIG    1       24.207  28.660  55.977  0.00  0.00    -0.338 N 
ATOM     12  H   LIG    1       24.665  27.874  55.642  0.00  0.00    +0.167 HD
ATOM     13  C   LIG    1       25.024  32.718  56.150  0.00  0.00    +0.040 A 
ATOM     14  N   LIG    1       25.433  34.054  56.139  0.00  0.00    -0.284 N 
ATOM     15  H   LIG    1       24.906  34.784  56.499  0.00  0.00    +0.155 HD
ATOM     16  C   LIG    1       26.642  34.211  55.573  0.00  0.00    +0.227 C 
ATOM     17  O   LIG    1       27.237  35.258  55.430  0.00  0.00    -0.275 OA
ENDROOT
BRANCH   9  18
ATOM     18  C   LIG    1       22.124  27.509  56.827  0.00  0.00    +0.020 A 
ATOM     19  C   LIG    1       20.767  27.518  56.488  0.00  0.00    +0.031 A 
ATOM     20  C   LIG    1       20.007  26.394  56.739  0.00  0.00    +0.111 A 
ATOM     21  N   LIG    1       20.543  25.322  57.291  0.00  0.00    -0.263 NA
ATOM     22  C   LIG    1       21.818  25.272  57.627  0.00  0.00    +0.111 A 
ATOM     23  C   LIG    1       22.652  26.349  57.406  0.00  0.00    +0.031 A 
ENDBRANCH   9  18
TORSDOF 1
