REMARK VINA RESULT:      -5.5      5.391      7.738
REMARK  Name = ZINC00000883
REMARK                            x       y       z     vdW  Elec       q    Type
REMARK                         _______ _______ _______ _____ _____    ______ ____
ROOT
ATOM      1  C   LIG    1       24.748  31.550  54.674  0.00  0.00    +0.025 C 
ATOM      2  C   LIG    1       23.531  30.864  55.299  0.00  0.00    +0.068 C 
ATOM      3  C   LIG    1       23.929  30.136  56.584  0.00  0.00    +0.025 C 
ATOM      4  C   LIG    1       22.439  31.873  55.575  0.00  0.00    -0.010 A 
ATOM      5  C   LIG    1       22.386  32.987  56.376  0.00  0.00    +0.034 A 
ATOM      6  C   LIG    1       21.221  33.741  56.433  0.00  0.00    +0.067 A 
ATOM      7  C   LIG    1       20.102  33.360  55.670  0.00  0.00    +0.091 A 
ATOM      8  N   LIG    1       19.124  34.264  55.918  0.00  0.00    -0.228 NA
ATOM      9  C   LIG    1       19.557  35.161  56.769  0.00  0.00    +0.139 A 
ATOM     10  C   LIG    1       20.172  32.224  54.860  0.00  0.00    +0.053 A 
ATOM     11  N   LIG    1       20.851  34.883  57.118  0.00  0.00    -0.338 N 
ATOM     12  H   LIG    1       21.404  35.391  57.732  0.00  0.00    +0.167 HD
ATOM     13  C   LIG    1       21.341  31.478  54.811  0.00  0.00    +0.040 A 
ATOM     14  N   LIG    1       21.649  30.321  54.089  0.00  0.00    -0.284 N 
ATOM     15  H   LIG    1       21.028  29.876  53.492  0.00  0.00    +0.155 HD
ATOM     16  C   LIG    1       22.904  29.900  54.316  0.00  0.00    +0.227 C 
ATOM     17  O   LIG    1       23.435  28.926  53.824  0.00  0.00    -0.275 OA
ENDROOT
BRANCH   9  18
ATOM     18  C   LIG    1       18.767  36.306  57.275  0.00  0.00    +0.020 A 
ATOM     19  C   LIG    1       19.383  37.356  57.964  0.00  0.00    +0.031 A 
ATOM     20  C   LIG    1       18.608  38.403  58.419  0.00  0.00    +0.111 A 
ATOM     21  N   LIG    1       17.306  38.422  58.213  0.00  0.00    -0.263 NA
ATOM     22  C   LIG    1       16.685  37.452  57.569  0.00  0.00    +0.111 A 
ATOM     23  C   LIG    1       17.383  36.369  57.075  0.00  0.00    +0.031 A 
ENDBRANCH   9  18
TORSDOF 1
