REMARK VINA RESULT:      -5.7      3.681      5.270
REMARK  Name = ZINC00000883
REMARK                            x       y       z     vdW  Elec       q    Type
REMARK                         _______ _______ _______ _____ _____    ______ ____
ROOT
ATOM      1  C   LIG    1       24.295  29.258  55.746  0.00  0.00    +0.025 C 
ATOM      2  C   LIG    1       23.369  30.261  55.056  0.00  0.00    +0.068 C 
ATOM      3  C   LIG    1       23.684  30.338  53.560  0.00  0.00    +0.025 C 
ATOM      4  C   LIG    1       21.921  29.883  55.276  0.00  0.00    -0.010 A 
ATOM      5  C   LIG    1       21.190  28.772  54.933  0.00  0.00    +0.034 A 
ATOM      6  C   LIG    1       19.846  28.698  55.274  0.00  0.00    +0.067 A 
ATOM      7  C   LIG    1       19.240  29.761  55.970  0.00  0.00    +0.091 A 
ATOM      8  N   LIG    1       17.944  29.422  56.166  0.00  0.00    -0.228 NA
ATOM      9  C   LIG    1       17.713  28.241  55.647  0.00  0.00    +0.139 A 
ATOM     10  C   LIG    1       19.998  30.884  56.311  0.00  0.00    +0.053 A 
ATOM     11  N   LIG    1       18.859  27.750  55.084  0.00  0.00    -0.338 N 
ATOM     12  H   LIG    1       18.960  26.897  54.633  0.00  0.00    +0.167 HD
ATOM     13  C   LIG    1       21.340  30.947  55.965  0.00  0.00    +0.040 A 
ATOM     14  N   LIG    1       22.289  31.948  56.192  0.00  0.00    -0.284 N 
ATOM     15  H   LIG    1       22.099  32.778  56.655  0.00  0.00    +0.155 HD
ATOM     16  C   LIG    1       23.495  31.627  55.694  0.00  0.00    +0.227 C 
ATOM     17  O   LIG    1       24.499  32.307  55.747  0.00  0.00    -0.275 OA
ENDROOT
BRANCH   9  18
ATOM     18  C   LIG    1       16.409  27.542  55.669  0.00  0.00    +0.020 A 
ATOM     19  C   LIG    1       16.312  26.215  56.100  0.00  0.00    +0.031 A 
ATOM     20  C   LIG    1       15.075  25.601  56.104  0.00  0.00    +0.111 A 
ATOM     21  N   LIG    1       13.996  26.248  55.708  0.00  0.00    -0.263 NA
ATOM     22  C   LIG    1       14.044  27.500  55.294  0.00  0.00    +0.111 A 
ATOM     23  C   LIG    1       15.237  28.192  55.263  0.00  0.00    +0.031 A 
ENDBRANCH   9  18
TORSDOF 1
