REMARK VINA RESULT:      -6.2      3.571      7.686
REMARK  Name = ZINC00000883
REMARK                            x       y       z     vdW  Elec       q    Type
REMARK                         _______ _______ _______ _____ _____    ______ ____
ROOT
ATOM      1  C   LIG    1       18.908  29.503  58.024  0.00  0.00    +0.025 C 
ATOM      2  C   LIG    1       18.996  29.984  56.574  0.00  0.00    +0.068 C 
ATOM      3  C   LIG    1       18.088  31.197  56.358  0.00  0.00    +0.025 C 
ATOM      4  C   LIG    1       20.426  30.319  56.214  0.00  0.00    -0.010 A 
ATOM      5  C   LIG    1       21.318  31.238  56.710  0.00  0.00    +0.034 A 
ATOM      6  C   LIG    1       22.594  31.323  56.170  0.00  0.00    +0.067 A 
ATOM      7  C   LIG    1       22.968  30.467  55.118  0.00  0.00    +0.091 A 
ATOM      8  N   LIG    1       24.249  30.767  54.795  0.00  0.00    -0.228 NA
ATOM      9  C   LIG    1       24.682  31.735  55.564  0.00  0.00    +0.139 A 
ATOM     10  C   LIG    1       22.049  29.537  54.624  0.00  0.00    +0.053 A 
ATOM     11  N   LIG    1       23.697  32.113  56.434  0.00  0.00    -0.338 N 
ATOM     12  H   LIG    1       23.758  32.808  57.108  0.00  0.00    +0.167 HD
ATOM     13  C   LIG    1       20.776  29.461  55.170  0.00  0.00    +0.040 A 
ATOM     14  N   LIG    1       19.700  28.629  54.851  0.00  0.00    -0.284 N 
ATOM     15  H   LIG    1       19.726  27.955  54.154  0.00  0.00    +0.155 HD
ATOM     16  C   LIG    1       18.626  28.869  55.622  0.00  0.00    +0.227 C 
ATOM     17  O   LIG    1       17.557  28.297  55.563  0.00  0.00    -0.275 OA
ENDROOT
BRANCH   9  18
ATOM     18  C   LIG    1       26.037  32.328  55.504  0.00  0.00    +0.020 A 
ATOM     19  C   LIG    1       27.165  31.525  55.301  0.00  0.00    +0.031 A 
ATOM     20  C   LIG    1       28.409  32.120  55.252  0.00  0.00    +0.111 A 
ATOM     21  N   LIG    1       28.543  33.425  55.393  0.00  0.00    -0.263 NA
ATOM     22  C   LIG    1       27.506  34.217  55.587  0.00  0.00    +0.111 A 
ATOM     23  C   LIG    1       26.225  33.708  55.643  0.00  0.00    +0.031 A 
ENDBRANCH   9  18
TORSDOF 1
