MODEL 1
REMARK VINA RESULT:      -6.6      0.000      0.000
REMARK  Name = ZINC00001087
REMARK                            x       y       z     vdW  Elec       q    Type
REMARK                         _______ _______ _______ _____ _____    ______ ____
ROOT
ATOM      1  C   LIG    1       23.937  30.561  55.545  0.00  0.00    +0.188 C 
ATOM      2  C   LIG    1       22.480  30.923  55.683  0.00  0.00    +0.008 A 
ATOM      3  C   LIG    1       22.141  32.232  56.053  0.00  0.00    +0.035 A 
ATOM      4  C   LIG    1       20.818  32.596  56.180  0.00  0.00    +0.071 A 
ATOM      5  N   LIG    1       19.835  31.680  55.937  0.00  0.00    -0.302 N 
ATOM      6  C   LIG    1       18.531  32.325  56.139  0.00  0.00    +0.162 C 
ATOM      7  C   LIG    1       18.816  33.751  56.537  0.00  0.00    +0.000 A 
ATOM      8  C   LIG    1       18.008  34.801  56.844  0.00  0.00    +0.017 A 
ATOM      9  C   LIG    1       18.615  36.029  57.181  0.00  0.00    +0.001 A 
ATOM     10  C   LIG    1       17.846  37.155  57.509  0.00  0.00    +0.010 A 
ATOM     11  C   LIG    1       18.468  38.325  57.827  0.00  0.00    +0.001 A 
ATOM     12  C   LIG    1       19.858  38.419  57.831  0.00  0.00    +0.002 A 
ATOM     13  C   LIG    1       20.634  37.346  57.518  0.00  0.00    +0.028 A 
ATOM     14  C   LIG    1       20.030  36.119  57.184  0.00  0.00    +0.072 A 
ATOM     15  N   LIG    1       20.770  35.055  56.873  0.00  0.00    -0.245 NA
ATOM     16  C   LIG    1       20.147  30.420  55.577  0.00  0.00    +0.259 A 
ATOM     17  O   LIG    1       19.254  29.618  55.355  0.00  0.00    -0.267 OA
ATOM     18  C   LIG    1       20.214  33.896  56.556  0.00  0.00    +0.093 A 
ATOM     19  C   LIG    1       21.493  30.017  55.454  0.00  0.00    +0.061 A 
ATOM     20  C   LIG    1       21.783  28.585  55.088  0.00  0.00    +0.273 C 
ATOM     21  O   LIG    1       23.134  28.438  54.649  0.00  0.00    -0.457 OA
ATOM     22  C   LIG    1       24.056  29.058  55.421  0.00  0.00    +0.344 C 
ATOM     23  O   LIG    1       24.930  28.443  55.982  0.00  0.00    -0.247 OA
ENDROOT
BRANCH   1  25
ATOM     24  C   LIG    1       25.749  32.048  54.678  0.00  0.00    +0.007 C 
ATOM     25  C   LIG    1       24.516  31.226  54.295  0.00  0.00    +0.048 C 
ENDBRANCH   1  25
BRANCH   1  26
ATOM     26  O   LIG    1       24.654  31.004  56.699  0.00  0.00    -0.373 OA
ATOM     27  H   LIG    1       24.494  30.469  57.490  0.00  0.00    +0.211 HD
ENDBRANCH   1  26
TORSDOF 2
ENDMDL
MODEL 2
REMARK VINA RESULT:      -6.4      2.612      6.590
REMARK  Name = ZINC00001087
REMARK                            x       y       z     vdW  Elec       q    Type
REMARK                         _______ _______ _______ _____ _____    ______ ____
ROOT
ATOM      1  C   LIG    1       18.698  32.082  56.624  0.00  0.00    +0.188 C 
ATOM      2  C   LIG    1       19.897  31.196  56.396  0.00  0.00    +0.008 A 
ATOM      3  C   LIG    1       21.164  31.787  56.296  0.00  0.00    +0.035 A 
ATOM      4  C   LIG    1       22.280  31.004  56.095  0.00  0.00    +0.071 A 
ATOM      5  N   LIG    1       22.150  29.647  56.000  0.00  0.00    -0.302 N 
ATOM      6  C   LIG    1       23.481  29.061  55.792  0.00  0.00    +0.162 C 
ATOM      7  C   LIG    1       24.456  30.210  55.769  0.00  0.00    +0.000 A 
ATOM      8  C   LIG    1       25.805  30.271  55.613  0.00  0.00    +0.017 A 
ATOM      9  C   LIG    1       26.421  31.540  55.643  0.00  0.00    +0.001 A 
ATOM     10  C   LIG    1       27.808  31.680  55.490  0.00  0.00    +0.010 A 
ATOM     11  C   LIG    1       28.368  32.921  55.526  0.00  0.00    +0.001 A 
ATOM     12  C   LIG    1       27.580  34.055  55.714  0.00  0.00    +0.002 A 
ATOM     13  C   LIG    1       26.232  33.956  55.866  0.00  0.00    +0.028 A 
ATOM     14  C   LIG    1       25.616  32.691  55.834  0.00  0.00    +0.072 A 
ATOM     15  N   LIG    1       24.296  32.568  55.981  0.00  0.00    -0.245 NA
ATOM     16  C   LIG    1       20.938  29.067  56.098  0.00  0.00    +0.259 A 
ATOM     17  O   LIG    1       20.843  27.853  56.019  0.00  0.00    -0.267 OA
ATOM     18  C   LIG    1       23.706  31.384  55.955  0.00  0.00    +0.093 A 
ATOM     19  C   LIG    1       19.779  29.846  56.289  0.00  0.00    +0.061 A 
ATOM     20  C   LIG    1       18.446  29.148  56.351  0.00  0.00    +0.273 C 
ATOM     21  O   LIG    1       17.449  30.006  56.906  0.00  0.00    -0.457 OA
ATOM     22  C   LIG    1       17.443  31.266  56.416  0.00  0.00    +0.344 C 
ATOM     23  O   LIG    1       16.482  31.718  55.840  0.00  0.00    -0.247 OA
ENDROOT
BRANCH   1  25
ATOM     24  C   LIG    1       18.795  34.153  58.021  0.00  0.00    +0.007 C 
ATOM     25  C   LIG    1       18.726  32.624  58.055  0.00  0.00    +0.048 C 
ENDBRANCH   1  25
BRANCH   1  26
ATOM     26  O   LIG    1       18.721  33.171  55.699  0.00  0.00    -0.373 OA
ATOM     27  H   LIG    1       19.383  33.847  55.904  0.00  0.00    +0.211 HD
ENDBRANCH   1  26
TORSDOF 2
ENDMDL
MODEL 3
REMARK VINA RESULT:      -6.4      3.420      5.907
REMARK  Name = ZINC00001087
REMARK                            x       y       z     vdW  Elec       q    Type
REMARK                         _______ _______ _______ _____ _____    ______ ____
ROOT
ATOM      1  C   LIG    1       22.256  30.115  54.874  0.00  0.00    +0.188 C 
ATOM      2  C   LIG    1       21.082  30.746  55.580  0.00  0.00    +0.008 A 
ATOM      3  C   LIG    1       19.835  30.110  55.518  0.00  0.00    +0.035 A 
ATOM      4  C   LIG    1       18.745  30.658  56.159  0.00  0.00    +0.071 A 
ATOM      5  N   LIG    1       18.884  31.821  56.862  0.00  0.00    -0.302 N 
ATOM      6  C   LIG    1       17.582  32.178  57.442  0.00  0.00    +0.162 C 
ATOM      7  C   LIG    1       16.615  31.101  57.019  0.00  0.00    +0.000 A 
ATOM      8  C   LIG    1       15.291  30.907  57.256  0.00  0.00    +0.017 A 
ATOM      9  C   LIG    1       14.676  29.767  56.697  0.00  0.00    +0.001 A 
ATOM     10  C   LIG    1       13.314  29.502  56.899  0.00  0.00    +0.010 A 
ATOM     11  C   LIG    1       12.755  28.390  56.345  0.00  0.00    +0.001 A 
ATOM     12  C   LIG    1       13.519  27.511  55.580  0.00  0.00    +0.002 A 
ATOM     13  C   LIG    1       14.843  27.738  55.363  0.00  0.00    +0.028 A 
ATOM     14  C   LIG    1       15.457  28.877  55.918  0.00  0.00    +0.072 A 
ATOM     15  N   LIG    1       16.753  29.120  55.721  0.00  0.00    -0.245 NA
ATOM     16  C   LIG    1       20.078  32.440  56.932  0.00  0.00    +0.259 A 
ATOM     17  O   LIG    1       20.184  33.474  57.573  0.00  0.00    -0.267 OA
ATOM     18  C   LIG    1       17.343  30.185  56.239  0.00  0.00    +0.093 A 
ATOM     19  C   LIG    1       21.206  31.909  56.274  0.00  0.00    +0.061 A 
ATOM     20  C   LIG    1       22.506  32.665  56.353  0.00  0.00    +0.273 C 
ATOM     21  O   LIG    1       23.601  31.833  55.967  0.00  0.00    -0.457 OA
ATOM     22  C   LIG    1       23.397  31.107  54.844  0.00  0.00    +0.344 C 
ATOM     23  O   LIG    1       24.093  31.243  53.866  0.00  0.00    -0.247 OA
ENDROOT
BRANCH   1  25
ATOM     24  C   LIG    1       23.606  28.017  54.733  0.00  0.00    +0.007 C 
ATOM     25  C   LIG    1       22.691  28.856  55.627  0.00  0.00    +0.048 C 
ENDBRANCH   1  25
BRANCH   1  26
ATOM     26  O   LIG    1       21.885  29.771  53.538  0.00  0.00    -0.373 OA
ATOM     27  H   LIG    1       21.833  28.818  53.378  0.00  0.00    +0.211 HD
ENDBRANCH   1  26
TORSDOF 2
ENDMDL
MODEL 4
REMARK VINA RESULT:      -6.2      1.797      2.845
REMARK  Name = ZINC00001087
REMARK                            x       y       z     vdW  Elec       q    Type
REMARK                         _______ _______ _______ _____ _____    ______ ____
ROOT
ATOM      1  C   LIG    1       21.264  29.231  55.787  0.00  0.00    +0.188 C 
ATOM      2  C   LIG    1       20.407  30.447  56.035  0.00  0.00    +0.008 A 
ATOM      3  C   LIG    1       21.034  31.681  56.259  0.00  0.00    +0.035 A 
ATOM      4  C   LIG    1       20.278  32.812  56.481  0.00  0.00    +0.071 A 
ATOM      5  N   LIG    1       18.914  32.730  56.476  0.00  0.00    -0.302 N 
ATOM      6  C   LIG    1       18.362  34.066  56.732  0.00  0.00    +0.162 C 
ATOM      7  C   LIG    1       19.541  34.992  56.898  0.00  0.00    +0.000 A 
ATOM      8  C   LIG    1       19.638  36.325  57.147  0.00  0.00    +0.017 A 
ATOM      9  C   LIG    1       20.926  36.890  57.243  0.00  0.00    +0.001 A 
ATOM     10  C   LIG    1       21.104  38.258  57.498  0.00  0.00    +0.010 A 
ATOM     11  C   LIG    1       22.364  38.769  57.583  0.00  0.00    +0.001 A 
ATOM     12  C   LIG    1       23.480  37.951  57.420  0.00  0.00    +0.002 A 
ATOM     13  C   LIG    1       23.344  36.620  57.171  0.00  0.00    +0.028 A 
ATOM     14  C   LIG    1       22.059  36.054  57.077  0.00  0.00    +0.072 A 
ATOM     15  N   LIG    1       21.901  34.753  56.834  0.00  0.00    -0.245 NA
ATOM     16  C   LIG    1       18.301  31.551  56.259  0.00  0.00    +0.259 A 
ATOM     17  O   LIG    1       17.081  31.499  56.249  0.00  0.00    -0.267 OA
ATOM     18  C   LIG    1       20.698  34.209  56.741  0.00  0.00    +0.093 A 
ATOM     19  C   LIG    1       19.049  30.376  56.042  0.00  0.00    +0.061 A 
ATOM     20  C   LIG    1       18.311  29.078  55.845  0.00  0.00    +0.273 C 
ATOM     21  O   LIG    1       19.170  28.086  55.283  0.00  0.00    -0.457 OA
ATOM     22  C   LIG    1       20.392  27.998  55.856  0.00  0.00    +0.344 C 
ATOM     23  O   LIG    1       20.768  26.985  56.395  0.00  0.00    -0.247 OA
ENDROOT
BRANCH   1  25
ATOM     24  C   LIG    1       23.285  28.668  54.429  0.00  0.00    +0.007 C 
ATOM     25  C   LIG    1       21.905  29.329  54.401  0.00  0.00    +0.048 C 
ENDBRANCH   1  25
BRANCH   1  26
ATOM     26  O   LIG    1       22.286  29.151  56.783  0.00  0.00    -0.373 OA
ATOM     27  H   LIG    1       22.344  29.933  57.350  0.00  0.00    +0.211 HD
ENDBRANCH   1  26
TORSDOF 2
ENDMDL
MODEL 5
REMARK VINA RESULT:      -6.2      1.666      2.232
REMARK  Name = ZINC00001087
REMARK                            x       y       z     vdW  Elec       q    Type
REMARK                         _______ _______ _______ _____ _____    ______ ____
ROOT
ATOM      1  C   LIG    1       24.486  30.944  55.971  0.00  0.00    +0.188 C 
ATOM      2  C   LIG    1       23.233  31.781  56.000  0.00  0.00    +0.008 A 
ATOM      3  C   LIG    1       23.247  32.995  56.700  0.00  0.00    +0.035 A 
ATOM      4  C   LIG    1       22.119  33.786  56.739  0.00  0.00    +0.071 A 
ATOM      5  N   LIG    1       20.987  33.387  56.087  0.00  0.00    -0.302 N 
ATOM      6  C   LIG    1       19.947  34.405  56.286  0.00  0.00    +0.162 C 
ATOM      7  C   LIG    1       20.563  35.486  57.138  0.00  0.00    +0.000 A 
ATOM      8  C   LIG    1       20.081  36.658  57.631  0.00  0.00    +0.017 A 
ATOM      9  C   LIG    1       20.945  37.455  58.411  0.00  0.00    +0.001 A 
ATOM     10  C   LIG    1       20.517  38.676  58.953  0.00  0.00    +0.010 A 
ATOM     11  C   LIG    1       21.380  39.420  59.700  0.00  0.00    +0.001 A 
ATOM     12  C   LIG    1       22.683  38.984  59.934  0.00  0.00    +0.002 A 
ATOM     13  C   LIG    1       23.130  37.805  59.424  0.00  0.00    +0.028 A 
ATOM     14  C   LIG    1       22.269  37.007  58.647  0.00  0.00    +0.072 A 
ATOM     15  N   LIG    1       22.685  35.848  58.136  0.00  0.00    -0.245 NA
ATOM     16  C   LIG    1       20.961  32.224  55.409  0.00  0.00    +0.259 A 
ATOM     17  O   LIG    1       19.942  31.889  54.825  0.00  0.00    -0.267 OA
ATOM     18  C   LIG    1       21.886  35.091  57.402  0.00  0.00    +0.093 A 
ATOM     19  C   LIG    1       22.096  31.389  55.364  0.00  0.00    +0.061 A 
ATOM     20  C   LIG    1       21.998  30.081  54.625  0.00  0.00    +0.273 C 
ATOM     21  O   LIG    1       23.297  29.548  54.362  0.00  0.00    -0.457 OA
ATOM     22  C   LIG    1       24.149  29.580  55.411  0.00  0.00    +0.344 C 
ATOM     23  O   LIG    1       24.619  28.570  55.878  0.00  0.00    -0.247 OA
ENDROOT
BRANCH   1  25
ATOM     24  C   LIG    1       26.678  32.145  55.950  0.00  0.00    +0.007 C 
ATOM     25  C   LIG    1       25.533  31.618  55.082  0.00  0.00    +0.048 C 
ENDBRANCH   1  25
BRANCH   1  26
ATOM     26  O   LIG    1       25.002  30.803  57.296  0.00  0.00    -0.373 OA
ATOM     27  H   LIG    1       25.391  31.614  57.654  0.00  0.00    +0.211 HD
ENDBRANCH   1  26
TORSDOF 2
ENDMDL
