REMARK VINA RESULT:      -4.1      2.399      4.696
REMARK  Name = ZINC00001084
REMARK                            x       y       z     vdW  Elec       q    Type
REMARK                         _______ _______ _______ _____ _____    ______ ____
ROOT
ATOM      1  C   LIG    1       22.738  31.318  60.859  0.00  0.00    +0.150 C 
ATOM      2  N   LIG    1       22.059  31.655  59.605  0.00  0.00    -0.328 N 
ATOM      3  C   LIG    1       20.829  32.189  59.478  0.00  0.00    +0.202 A 
ATOM      4  N   LIG    1       20.549  32.355  58.211  0.00  0.00    -0.218 NA
ATOM      5  C   LIG    1       21.573  31.939  57.462  0.00  0.00    +0.168 A 
ATOM      6  N   LIG    1       21.807  31.887  56.098  0.00  0.00    -0.280 N 
ATOM      7  C   LIG    1       20.784  32.360  55.161  0.00  0.00    +0.155 C 
ATOM      8  C   LIG    1       22.978  31.415  55.631  0.00  0.00    +0.333 A 
ATOM      9  O   LIG    1       23.167  31.380  54.429  0.00  0.00    -0.246 OA
ATOM     10  N   LIG    1       23.941  30.973  56.458  0.00  0.00    -0.262 N 
ATOM     11  C   LIG    1       25.194  30.462  55.899  0.00  0.00    +0.157 C 
ATOM     12  C   LIG    1       23.771  30.995  57.797  0.00  0.00    +0.282 A 
ATOM     13  O   LIG    1       24.651  30.592  58.537  0.00  0.00    -0.265 OA
ATOM     14  C   LIG    1       22.561  31.490  58.330  0.00  0.00    +0.151 A 
ENDROOT
TORSDOF 0
