REMARK VINA RESULT:      -4.1      0.000      0.000
REMARK  Name = ZINC00001084
REMARK                            x       y       z     vdW  Elec       q    Type
REMARK                         _______ _______ _______ _____ _____    ______ ____
ROOT
ATOM      1  C   LIG    1       26.878  32.610  53.835  0.00  0.00    +0.150 C 
ATOM      2  N   LIG    1       26.290  32.229  55.122  0.00  0.00    -0.328 N 
ATOM      3  C   LIG    1       26.812  32.458  56.342  0.00  0.00    +0.202 A 
ATOM      4  N   LIG    1       26.015  31.979  57.262  0.00  0.00    -0.218 NA
ATOM      5  C   LIG    1       24.946  31.421  56.688  0.00  0.00    +0.168 A 
ATOM      6  N   LIG    1       23.817  30.783  57.175  0.00  0.00    -0.280 N 
ATOM      7  C   LIG    1       23.637  30.616  58.620  0.00  0.00    +0.155 C 
ATOM      8  C   LIG    1       22.879  30.326  56.324  0.00  0.00    +0.333 A 
ATOM      9  O   LIG    1       21.893  29.770  56.771  0.00  0.00    -0.246 OA
ATOM     10  N   LIG    1       23.008  30.461  54.993  0.00  0.00    -0.262 N 
ATOM     11  C   LIG    1       21.963  29.940  54.110  0.00  0.00    +0.157 C 
ATOM     12  C   LIG    1       24.087  31.071  54.458  0.00  0.00    +0.282 A 
ATOM     13  O   LIG    1       24.193  31.187  53.250  0.00  0.00    -0.265 OA
ATOM     14  C   LIG    1       25.091  31.571  55.314  0.00  0.00    +0.151 A 
ENDROOT
TORSDOF 0
