REMARK VINA RESULT:      -4.0      3.207      5.188
REMARK  Name = ZINC00001084
REMARK                            x       y       z     vdW  Elec       q    Type
REMARK                         _______ _______ _______ _____ _____    ______ ____
ROOT
ATOM      1  C   LIG    1       17.977  32.932  56.409  0.00  0.00    +0.150 C 
ATOM      2  N   LIG    1       19.336  32.676  55.924  0.00  0.00    -0.328 N 
ATOM      3  C   LIG    1       20.277  33.601  55.650  0.00  0.00    +0.202 A 
ATOM      4  N   LIG    1       21.369  33.010  55.239  0.00  0.00    -0.218 NA
ATOM      5  C   LIG    1       21.192  31.687  55.226  0.00  0.00    +0.168 A 
ATOM      6  N   LIG    1       21.998  30.613  54.888  0.00  0.00    -0.280 N 
ATOM      7  C   LIG    1       23.368  30.843  54.425  0.00  0.00    +0.155 C 
ATOM      8  C   LIG    1       21.528  29.355  54.995  0.00  0.00    +0.333 A 
ATOM      9  O   LIG    1       22.252  28.424  54.697  0.00  0.00    -0.246 OA
ATOM     10  N   LIG    1       20.277  29.103  55.417  0.00  0.00    -0.262 N 
ATOM     11  C   LIG    1       19.812  27.718  55.509  0.00  0.00    +0.157 C 
ATOM     12  C   LIG    1       19.443  30.108  55.758  0.00  0.00    +0.282 A 
ATOM     13  O   LIG    1       18.311  29.867  56.138  0.00  0.00    -0.265 OA
ATOM     14  C   LIG    1       19.897  31.442  55.667  0.00  0.00    +0.151 A 
ENDROOT
TORSDOF 0
