REMARK VINA RESULT:      -4.1      1.645      4.168
REMARK  Name = ZINC00001084
REMARK                            x       y       z     vdW  Elec       q    Type
REMARK                         _______ _______ _______ _____ _____    ______ ____
ROOT
ATOM      1  C   LIG    1       20.974  29.521  59.838  0.00  0.00    +0.150 C 
ATOM      2  N   LIG    1       22.226  29.945  59.207  0.00  0.00    -0.328 N 
ATOM      3  C   LIG    1       23.431  30.043  59.801  0.00  0.00    +0.202 A 
ATOM      4  N   LIG    1       24.320  30.451  58.933  0.00  0.00    -0.218 NA
ATOM      5  C   LIG    1       23.741  30.637  57.745  0.00  0.00    +0.168 A 
ATOM      6  N   LIG    1       24.201  31.051  56.505  0.00  0.00    -0.280 N 
ATOM      7  C   LIG    1       25.614  31.393  56.327  0.00  0.00    +0.155 C 
ATOM      8  C   LIG    1       23.354  31.128  55.462  0.00  0.00    +0.333 A 
ATOM      9  O   LIG    1       23.777  31.490  54.380  0.00  0.00    -0.246 OA
ATOM     10  N   LIG    1       22.051  30.821  55.586  0.00  0.00    -0.262 N 
ATOM     11  C   LIG    1       21.170  30.929  54.421  0.00  0.00    +0.157 C 
ATOM     12  C   LIG    1       21.542  30.415  56.768  0.00  0.00    +0.282 A 
ATOM     13  O   LIG    1       20.360  30.141  56.869  0.00  0.00    -0.265 OA
ATOM     14  C   LIG    1       22.397  30.313  57.887  0.00  0.00    +0.151 A 
ENDROOT
TORSDOF 0
