REMARK VINA RESULT:      -4.1      1.919      4.729
REMARK  Name = ZINC00001084
REMARK                            x       y       z     vdW  Elec       q    Type
REMARK                         _______ _______ _______ _____ _____    ______ ____
ROOT
ATOM      1  C   LIG    1       23.050  29.099  60.005  0.00  0.00    +0.150 C 
ATOM      2  N   LIG    1       22.543  29.103  58.630  0.00  0.00    -0.328 N 
ATOM      3  C   LIG    1       21.446  28.465  58.178  0.00  0.00    +0.202 A 
ATOM      4  N   LIG    1       21.298  28.692  56.898  0.00  0.00    -0.218 NA
ATOM      5  C   LIG    1       22.283  29.481  56.462  0.00  0.00    +0.168 A 
ATOM      6  N   LIG    1       22.607  30.022  55.228  0.00  0.00    -0.280 N 
ATOM      7  C   LIG    1       21.765  29.741  54.063  0.00  0.00    +0.155 C 
ATOM      8  C   LIG    1       23.687  30.815  55.101  0.00  0.00    +0.333 A 
ATOM      9  O   LIG    1       23.953  31.283  54.010  0.00  0.00    -0.246 OA
ATOM     10  N   LIG    1       24.483  31.097  56.147  0.00  0.00    -0.262 N 
ATOM     11  C   LIG    1       25.650  31.960  55.953  0.00  0.00    +0.157 C 
ATOM     12  C   LIG    1       24.222  30.598  57.373  0.00  0.00    +0.282 A 
ATOM     13  O   LIG    1       24.951  30.860  58.313  0.00  0.00    -0.265 OA
ATOM     14  C   LIG    1       23.095  29.767  57.553  0.00  0.00    +0.151 A 
ENDROOT
TORSDOF 0
