MODEL 1
REMARK VINA RESULT:      -5.5      0.000      0.000
REMARK  Name = ZINC00000848
REMARK                            x       y       z     vdW  Elec       q    Type
REMARK                         _______ _______ _______ _____ _____    ______ ____
ROOT
ATOM      1  C   LIG    1       23.631  32.425  56.666  0.00  0.00    +0.248 C 
ATOM      2  N   LIG    1       24.629  33.007  55.972  0.00  0.00    -0.310 N 
ATOM      3  H   LIG    1       24.453  33.800  55.441  0.00  0.00    +0.149 HD
ATOM      4  O   LIG    1       23.853  31.431  57.331  0.00  0.00    -0.270 OA
ENDROOT
BRANCH   2   5
ATOM      5  C   LIG    1       25.980  32.443  56.018  0.00  0.00    +0.060 C 
ATOM      6  C   LIG    1       26.383  31.960  54.622  0.00  0.00    -0.056 C 
ATOM      7  N   LIG    1       27.590  32.676  54.156  0.00  0.00    +0.381 N 
ATOM      8  H   LIG    1       27.839  32.335  53.220  0.00  0.00    -0.082 HD
ATOM      9  C   LIG    1       27.320  34.128  54.082  0.00  0.00    -0.078 C 
ATOM     10  C   LIG    1       26.943  34.672  55.463  0.00  0.00    -0.014 C 
ATOM     11  C   LIG    1       28.718  32.419  55.076  0.00  0.00    -0.078 C 
ATOM     12  C   LIG    1       28.382  32.914  56.485  0.00  0.00    -0.014 C 
ATOM     13  C   LIG    1       26.973  33.520  56.475  0.00  0.00    +0.004 C 
ENDBRANCH   2   5
BRANCH   1  20
ATOM     14  C   LIG    1       21.436  32.726  55.526  0.00  0.00    +0.134 A 
ATOM     15  C   LIG    1       20.160  33.259  55.494  0.00  0.00    +0.070 A 
ATOM     16  C   LIG    1       19.720  34.064  56.537  0.00  0.00    +0.047 A 
ATOM     17  C   LIG    1       20.555  34.326  57.622  0.00  0.00    +0.062 A 
ATOM     18 CL   LIG    1       19.992  35.327  58.924  0.00  0.00    -0.082 Cl
ATOM     19  C   LIG    1       21.815  33.800  57.666  0.00  0.00    +0.038 A 
ATOM     20  C   LIG    1       22.274  32.992  56.619  0.00  0.00    +0.080 A 
BRANCH  16  21
ATOM     21  N   LIG    1       18.438  34.604  56.502  0.00  0.00    -0.357 N 
ATOM     22  H   LIG    1       18.173  35.264  57.161  0.00  0.00    +0.142 HD
ATOM     23  H   LIG    1       17.810  34.321  55.818  0.00  0.00    +0.142 HD
ENDBRANCH  16  21
BRANCH  14  25
ATOM     24  C   LIG    1       21.390  30.599  54.467  0.00  0.00    +0.277 C 
ATOM     25  O   LIG    1       21.874  31.943  54.507  0.00  0.00    -0.494 OA
ENDBRANCH  14  25
ENDBRANCH   1  20
TORSDOF 4
ENDMDL
MODEL 2
REMARK VINA RESULT:      -5.0      4.144      5.193
REMARK  Name = ZINC00000848
REMARK                            x       y       z     vdW  Elec       q    Type
REMARK                         _______ _______ _______ _____ _____    ______ ____
ROOT
ATOM      1  C   LIG    1       19.955  32.482  55.493  0.00  0.00    +0.248 C 
ATOM      2  N   LIG    1       20.552  31.416  56.062  0.00  0.00    -0.310 N 
ATOM      3  H   LIG    1       20.117  30.949  56.792  0.00  0.00    +0.149 HD
ATOM      4  O   LIG    1       20.502  33.067  54.577  0.00  0.00    -0.270 OA
ENDROOT
BRANCH   2   5
ATOM      5  C   LIG    1       21.857  30.961  55.577  0.00  0.00    +0.060 C 
ATOM      6  C   LIG    1       22.657  30.364  56.738  0.00  0.00    -0.056 C 
ATOM      7  N   LIG    1       22.986  28.949  56.465  0.00  0.00    +0.381 N 
ATOM      8  H   LIG    1       23.521  28.573  57.257  0.00  0.00    -0.082 HD
ATOM      9  C   LIG    1       21.744  28.162  56.308  0.00  0.00    -0.078 C 
ATOM     10  C   LIG    1       20.918  28.697  55.135  0.00  0.00    -0.014 C 
ATOM     11  C   LIG    1       23.807  28.847  55.240  0.00  0.00    -0.078 C 
ATOM     12  C   LIG    1       23.040  29.401  54.036  0.00  0.00    -0.014 C 
ATOM     13  C   LIG    1       21.661  29.881  54.505  0.00  0.00    +0.004 C 
ENDBRANCH   2   5
BRANCH   1  20
ATOM     14  C   LIG    1       17.616  32.012  56.211  0.00  0.00    +0.134 A 
ATOM     15  C   LIG    1       16.389  32.450  56.674  0.00  0.00    +0.070 A 
ATOM     16  C   LIG    1       16.176  33.804  56.897  0.00  0.00    +0.047 A 
ATOM     17  C   LIG    1       17.200  34.723  56.666  0.00  0.00    +0.062 A 
ATOM     18 CL   LIG    1       16.926  36.413  56.954  0.00  0.00    -0.082 Cl
ATOM     19  C   LIG    1       18.417  34.300  56.215  0.00  0.00    +0.038 A 
ATOM     20  C   LIG    1       18.644  32.939  55.980  0.00  0.00    +0.080 A 
BRANCH  16  21
ATOM     21  N   LIG    1       14.940  34.245  57.358  0.00  0.00    -0.357 N 
ATOM     22  H   LIG    1       14.554  35.062  57.004  0.00  0.00    +0.142 HD
ATOM     23  H   LIG    1       14.463  33.736  58.033  0.00  0.00    +0.142 HD
ENDBRANCH  16  21
BRANCH  14  25
ATOM     24  C   LIG    1       16.679  29.839  55.989  0.00  0.00    +0.277 C 
ATOM     25  O   LIG    1       17.828  30.689  55.987  0.00  0.00    -0.494 OA
ENDBRANCH  14  25
ENDBRANCH   1  20
TORSDOF 4
ENDMDL
MODEL 3
REMARK VINA RESULT:      -5.0      3.772      6.139
REMARK  Name = ZINC00000848
REMARK                            x       y       z     vdW  Elec       q    Type
REMARK                         _______ _______ _______ _____ _____    ______ ____
ROOT
ATOM      1  C   LIG    1       23.238  35.962  57.375  0.00  0.00    +0.248 C 
ATOM      2  N   LIG    1       23.043  34.817  56.693  0.00  0.00    -0.310 N 
ATOM      3  H   LIG    1       23.483  34.679  55.839  0.00  0.00    +0.149 HD
ATOM      4  O   LIG    1       22.686  36.134  58.445  0.00  0.00    -0.270 OA
ENDROOT
BRANCH   2   5
ATOM      5  C   LIG    1       22.165  33.779  57.239  0.00  0.00    +0.060 C 
ATOM      6  C   LIG    1       21.038  33.484  56.246  0.00  0.00    -0.056 C 
ATOM      7  N   LIG    1       21.077  32.068  55.824  0.00  0.00    +0.381 N 
ATOM      8  H   LIG    1       20.314  31.896  55.159  0.00  0.00    -0.082 HD
ATOM      9  C   LIG    1       22.366  31.773  55.161  0.00  0.00    -0.078 C 
ATOM     10  C   LIG    1       23.531  32.020  56.123  0.00  0.00    -0.014 C 
ATOM     11  C   LIG    1       20.900  31.185  56.997  0.00  0.00    -0.078 C 
ATOM     12  C   LIG    1       22.023  31.415  58.012  0.00  0.00    -0.014 C 
ATOM     13  C   LIG    1       22.970  32.493  57.470  0.00  0.00    +0.004 C 
ENDBRANCH   2   5
BRANCH   1  20
ATOM     14  C   LIG    1       25.426  36.684  56.426  0.00  0.00    +0.134 A 
ATOM     15  C   LIG    1       26.246  37.670  55.906  0.00  0.00    +0.070 A 
ATOM     16  C   LIG    1       25.777  38.972  55.794  0.00  0.00    +0.047 A 
ATOM     17  C   LIG    1       24.478  39.288  56.192  0.00  0.00    +0.062 A 
ATOM     18 CL   LIG    1       23.899  40.917  56.042  0.00  0.00    -0.082 Cl
ATOM     19  C   LIG    1       23.659  38.320  56.702  0.00  0.00    +0.038 A 
ATOM     20  C   LIG    1       24.120  37.005  56.826  0.00  0.00    +0.080 A 
BRANCH  16  21
ATOM     21  N   LIG    1       26.603  39.964  55.275  0.00  0.00    -0.357 N 
ATOM     22  H   LIG    1       26.624  40.127  54.320  0.00  0.00    +0.142 HD
ATOM     23  H   LIG    1       27.157  40.494  55.870  0.00  0.00    +0.142 HD
ENDBRANCH  16  21
BRANCH  14  25
ATOM     24  C   LIG    1       26.827  34.967  55.566  0.00  0.00    +0.277 C 
ATOM     25  O   LIG    1       25.881  35.410  56.543  0.00  0.00    -0.494 OA
ENDBRANCH  14  25
ENDBRANCH   1  20
TORSDOF 4
ENDMDL
MODEL 4
REMARK VINA RESULT:      -5.0      2.945      4.337
REMARK  Name = ZINC00000848
REMARK                            x       y       z     vdW  Elec       q    Type
REMARK                         _______ _______ _______ _____ _____    ______ ____
ROOT
ATOM      1  C   LIG    1       20.811  33.247  55.558  0.00  0.00    +0.248 C 
ATOM      2  N   LIG    1       21.869  32.821  56.276  0.00  0.00    -0.310 N 
ATOM      3  H   LIG    1       21.989  33.123  57.189  0.00  0.00    +0.149 HD
ATOM      4  O   LIG    1       20.662  32.868  54.412  0.00  0.00    -0.270 OA
ENDROOT
BRANCH   2   5
ATOM      5  C   LIG    1       22.838  31.900  55.677  0.00  0.00    +0.060 C 
ATOM      6  C   LIG    1       24.242  32.221  56.199  0.00  0.00    -0.056 C 
ATOM      7  N   LIG    1       24.810  31.052  56.904  0.00  0.00    +0.381 N 
ATOM      8  H   LIG    1       25.749  31.292  57.244  0.00  0.00    -0.082 HD
ATOM      9  C   LIG    1       23.959  30.694  58.059  0.00  0.00    -0.078 C 
ATOM     10  C   LIG    1       22.547  30.331  57.589  0.00  0.00    -0.014 C 
ATOM     11  C   LIG    1       24.914  29.904  55.978  0.00  0.00    -0.078 C 
ATOM     12  C   LIG    1       23.530  29.518  55.449  0.00  0.00    -0.014 C 
ATOM     13  C   LIG    1       22.485  30.458  56.062  0.00  0.00    +0.004 C 
ENDBRANCH   2   5
BRANCH   1  20
ATOM     14  C   LIG    1       20.263  35.406  56.675  0.00  0.00    +0.134 A 
ATOM     15  C   LIG    1       19.339  36.271  57.234  0.00  0.00    +0.070 A 
ATOM     16  C   LIG    1       17.999  35.909  57.293  0.00  0.00    +0.047 A 
ATOM     17  C   LIG    1       17.580  34.682  56.780  0.00  0.00    +0.062 A 
ATOM     18 CL   LIG    1       15.903  34.241  56.854  0.00  0.00    -0.082 Cl
ATOM     19  C   LIG    1       18.484  33.823  56.221  0.00  0.00    +0.038 A 
ATOM     20  C   LIG    1       19.837  34.172  56.160  0.00  0.00    +0.080 A 
BRANCH  16  21
ATOM     21  N   LIG    1       17.071  36.776  57.860  0.00  0.00    -0.357 N 
ATOM     22  H   LIG    1       16.480  36.463  58.562  0.00  0.00    +0.142 HD
ATOM     23  H   LIG    1       17.015  37.696  57.554  0.00  0.00    +0.142 HD
ENDBRANCH  16  21
BRANCH  14  25
ATOM     24  C   LIG    1       22.201  36.122  57.849  0.00  0.00    +0.277 C 
ATOM     25  O   LIG    1       21.574  35.752  56.618  0.00  0.00    -0.494 OA
ENDBRANCH  14  25
ENDBRANCH   1  20
TORSDOF 4
ENDMDL
MODEL 5
REMARK VINA RESULT:      -5.0      3.845      7.491
REMARK  Name = ZINC00000848
REMARK                            x       y       z     vdW  Elec       q    Type
REMARK                         _______ _______ _______ _____ _____    ______ ____
ROOT
ATOM      1  C   LIG    1       20.476  32.104  55.068  0.00  0.00    +0.248 C 
ATOM      2  N   LIG    1       19.451  32.108  55.943  0.00  0.00    -0.310 N 
ATOM      3  H   LIG    1       19.424  31.459  56.662  0.00  0.00    +0.149 HD
ATOM      4  O   LIG    1       20.508  32.919  54.166  0.00  0.00    -0.270 OA
ENDROOT
BRANCH   2   5
ATOM      5  C   LIG    1       18.375  33.093  55.806  0.00  0.00    +0.060 C 
ATOM      6  C   LIG    1       17.045  32.463  56.228  0.00  0.00    -0.056 C 
ATOM      7  N   LIG    1       16.459  33.204  57.365  0.00  0.00    +0.381 N 
ATOM      8  H   LIG    1       15.570  32.762  57.629  0.00  0.00    -0.082 HD
ATOM      9  C   LIG    1       17.378  33.161  58.524  0.00  0.00    -0.078 C 
ATOM     10  C   LIG    1       18.718  33.811  58.167  0.00  0.00    -0.014 C 
ATOM     11  C   LIG    1       16.202  34.607  56.977  0.00  0.00    -0.078 C 
ATOM     12  C   LIG    1       17.508  35.299  56.577  0.00  0.00    -0.014 C 
ATOM     13  C   LIG    1       18.662  34.297  56.714  0.00  0.00    +0.004 C 
ENDBRANCH   2   5
BRANCH   1  20
ATOM     14  C   LIG    1       21.262  29.743  55.187  0.00  0.00    +0.134 A 
ATOM     15  C   LIG    1       22.285  28.820  55.311  0.00  0.00    +0.070 A 
ATOM     16  C   LIG    1       23.595  29.255  55.465  0.00  0.00    +0.047 A 
ATOM     17  C   LIG    1       23.884  30.619  55.483  0.00  0.00    +0.062 A 
ATOM     18 CL   LIG    1       25.526  31.153  55.669  0.00  0.00    -0.082 Cl
ATOM     19  C   LIG    1       22.882  31.538  55.355  0.00  0.00    +0.038 A 
ATOM     20  C   LIG    1       21.557  31.114  55.205  0.00  0.00    +0.080 A 
BRANCH  16  21
ATOM     21  N   LIG    1       24.623  28.327  55.595  0.00  0.00    -0.357 N 
ATOM     22  H   LIG    1       24.846  27.970  56.468  0.00  0.00    +0.142 HD
ATOM     23  H   LIG    1       25.118  28.037  54.811  0.00  0.00    +0.142 HD
ENDBRANCH  16  21
BRANCH  14  25
ATOM     24  C   LIG    1       19.702  27.959  55.365  0.00  0.00    +0.277 C 
ATOM     25  O   LIG    1       19.979  29.323  55.041  0.00  0.00    -0.494 OA
ENDBRANCH  14  25
ENDBRANCH   1  20
TORSDOF 4
ENDMDL
