MODEL 1
REMARK VINA RESULT:      -5.4      0.000      0.000
REMARK  Name = ZINC00000934
REMARK                            x       y       z     vdW  Elec       q    Type
REMARK                         _______ _______ _______ _____ _____    ______ ____
ROOT
ATOM      1  C   LIG    1       25.821  32.058  55.053  0.00  0.00    +0.123 C 
ATOM      2  N   LIG    1       26.057  31.684  56.294  0.00  0.00    -0.301 NA
ATOM      3  H   LIG    1       26.951  31.771  56.657  0.00  0.00    +0.123 HD
ATOM      4  C   LIG    1       25.089  31.192  57.055  0.00  0.00    +0.090 C 
ATOM      5  C   LIG    1       23.816  31.072  56.531  0.00  0.00    +0.048 C 
ATOM      6  C   LIG    1       23.600  31.478  55.213  0.00  0.00    +0.125 C 
ATOM      7  N   LIG    1       24.622  31.966  54.515  0.00  0.00    -0.286 NA
ATOM      8  H   LIG    1       24.718  31.377  53.688  0.00  0.00    +0.125 HD
ENDROOT
BRANCH   6   9
ATOM      9  N   LIG    1       22.342  31.377  54.643  0.00  0.00    -0.315 NA
ATOM     10  H   LIG    1       21.754  30.645  54.890  0.00  0.00    +0.120 HD
ATOM     11  H   LIG    1       22.047  32.037  53.996  0.00  0.00    +0.120 HD
ENDBRANCH   6   9
BRANCH   1  12
ATOM     12  C   LIG    1       26.953  32.612  54.227  0.00  0.00    +0.034 C 
BRANCH  12  14
ATOM     13  C   LIG    1       27.127  34.926  55.152  0.00  0.00    +0.004 C 
ATOM     14  C   LIG    1       27.799  33.553  55.087  0.00  0.00    -0.001 C 
ENDBRANCH  12  14
ENDBRANCH   1  12
BRANCH   5  15
ATOM     15  C   LIG    1       22.689  30.516  57.364  0.00  0.00    +0.092 C 
BRANCH  15  16
ATOM     16  N   LIG    1       22.403  31.431  58.471  0.00  0.00    -0.299 NA
ATOM     17  C   LIG    1       21.872  32.611  58.210  0.00  0.00    +0.084 C 
ATOM     18  C   LIG    1       21.589  33.500  59.229  0.00  0.00    +0.015 C 
ATOM     19  C   LIG    1       21.870  33.139  60.539  0.00  0.00    +0.003 C 
ATOM     20  C   LIG    1       22.428  31.891  60.774  0.00  0.00    +0.018 C 
ATOM     21  C   LIG    1       22.679  31.053  59.704  0.00  0.00    +0.054 C 
ATOM     22  C   LIG    1       23.281  29.693  59.948  0.00  0.00    +0.024 C 
ENDBRANCH  15  16
ENDBRANCH   5  15
TORSDOF 5
ENDMDL
MODEL 2
REMARK VINA RESULT:      -5.2      2.267      3.892
REMARK  Name = ZINC00000934
REMARK                            x       y       z     vdW  Elec       q    Type
REMARK                         _______ _______ _______ _____ _____    ______ ____
ROOT
ATOM      1  C   LIG    1       25.315  31.881  55.719  0.00  0.00    +0.123 C 
ATOM      2  N   LIG    1       24.178  32.159  55.114  0.00  0.00    -0.301 NA
ATOM      3  H   LIG    1       24.192  32.568  54.235  0.00  0.00    +0.123 HD
ATOM      4  C   LIG    1       23.015  31.888  55.689  0.00  0.00    +0.090 C 
ATOM      5  C   LIG    1       23.002  31.305  56.941  0.00  0.00    +0.048 C 
ATOM      6  C   LIG    1       24.224  31.023  57.554  0.00  0.00    +0.125 C 
ATOM      7  N   LIG    1       25.350  31.321  56.911  0.00  0.00    -0.286 NA
ATOM      8  H   LIG    1       25.872  31.954  57.515  0.00  0.00    +0.125 HD
ENDROOT
BRANCH   6   9
ATOM      9  N   LIG    1       24.264  30.439  58.809  0.00  0.00    -0.315 NA
ATOM     10  H   LIG    1       23.456  30.383  59.344  0.00  0.00    +0.120 HD
ATOM     11  H   LIG    1       25.099  30.086  59.154  0.00  0.00    +0.120 HD
ENDBRANCH   6   9
BRANCH   1  12
ATOM     12  C   LIG    1       26.613  32.207  55.025  0.00  0.00    +0.034 C 
BRANCH  12  14
ATOM     13  C   LIG    1       27.300  34.609  54.987  0.00  0.00    +0.004 C 
ATOM     14  C   LIG    1       27.340  33.311  55.796  0.00  0.00    -0.001 C 
ENDBRANCH  12  14
ENDBRANCH   1  12
BRANCH   5  15
ATOM     15  C   LIG    1       21.700  30.982  57.629  0.00  0.00    +0.092 C 
BRANCH  15  16
ATOM     16  N   LIG    1       21.022  29.902  56.907  0.00  0.00    -0.299 NA
ATOM     17  C   LIG    1       21.554  28.695  56.908  0.00  0.00    +0.084 C 
ATOM     18  C   LIG    1       20.943  27.652  56.239  0.00  0.00    +0.015 C 
ATOM     19  C   LIG    1       19.755  27.888  55.560  0.00  0.00    +0.003 C 
ATOM     20  C   LIG    1       19.227  29.170  55.582  0.00  0.00    +0.018 C 
ATOM     21  C   LIG    1       19.893  30.161  56.277  0.00  0.00    +0.054 C 
ATOM     22  C   LIG    1       19.324  31.557  56.311  0.00  0.00    +0.024 C 
ENDBRANCH  15  16
ENDBRANCH   5  15
TORSDOF 5
ENDMDL
MODEL 3
REMARK VINA RESULT:      -5.2      1.953      2.693
REMARK  Name = ZINC00000934
REMARK                            x       y       z     vdW  Elec       q    Type
REMARK                         _______ _______ _______ _____ _____    ______ ____
ROOT
ATOM      1  C   LIG    1       26.113  31.801  55.531  0.00  0.00    +0.123 C 
ATOM      2  N   LIG    1       25.872  31.618  56.814  0.00  0.00    -0.301 NA
ATOM      3  H   LIG    1       26.587  31.745  57.457  0.00  0.00    +0.123 HD
ATOM      4  C   LIG    1       24.667  31.265  57.239  0.00  0.00    +0.090 C 
ATOM      5  C   LIG    1       23.654  31.087  56.317  0.00  0.00    +0.048 C 
ATOM      6  C   LIG    1       23.943  31.289  54.967  0.00  0.00    +0.125 C 
ATOM      7  N   LIG    1       25.176  31.646  54.619  0.00  0.00    -0.286 NA
ATOM      8  H   LIG    1       25.514  30.936  53.971  0.00  0.00    +0.125 HD
ENDROOT
BRANCH   6   9
ATOM      9  N   LIG    1       22.961  31.122  54.004  0.00  0.00    -0.315 NA
ATOM     10  H   LIG    1       23.207  30.909  53.091  0.00  0.00    +0.120 HD
ATOM     11  H   LIG    1       22.025  31.218  54.243  0.00  0.00    +0.120 HD
ENDBRANCH   6   9
BRANCH   1  12
ATOM     12  C   LIG    1       27.499  32.203  55.096  0.00  0.00    +0.034 C 
BRANCH  12  14
ATOM     13  C   LIG    1       27.226  34.686  55.109  0.00  0.00    +0.004 C 
ATOM     14  C   LIG    1       27.416  33.455  54.221  0.00  0.00    -0.001 C 
ENDBRANCH  12  14
ENDBRANCH   1  12
BRANCH   5  15
ATOM     15  C   LIG    1       22.270  30.685  56.760  0.00  0.00    +0.092 C 
BRANCH  15  16
ATOM     16  N   LIG    1       21.345  31.801  56.547  0.00  0.00    -0.299 NA
ATOM     17  C   LIG    1       21.722  33.020  56.882  0.00  0.00    +0.084 C 
ATOM     18  C   LIG    1       20.877  34.097  56.695  0.00  0.00    +0.015 C 
ATOM     19  C   LIG    1       19.619  33.883  56.149  0.00  0.00    +0.003 C 
ATOM     20  C   LIG    1       19.260  32.588  55.810  0.00  0.00    +0.018 C 
ATOM     21  C   LIG    1       20.160  31.561  56.022  0.00  0.00    +0.054 C 
ATOM     22  C   LIG    1       19.780  30.149  55.653  0.00  0.00    +0.024 C 
ENDBRANCH  15  16
ENDBRANCH   5  15
TORSDOF 5
ENDMDL
MODEL 4
REMARK VINA RESULT:      -5.2      1.846      2.996
REMARK  Name = ZINC00000934
REMARK                            x       y       z     vdW  Elec       q    Type
REMARK                         _______ _______ _______ _____ _____    ______ ____
ROOT
ATOM      1  C   LIG    1       25.953  31.924  55.179  0.00  0.00    +0.123 C 
ATOM      2  N   LIG    1       24.884  31.838  54.412  0.00  0.00    -0.301 NA
ATOM      3  H   LIG    1       24.942  32.100  53.481  0.00  0.00    +0.123 HD
ATOM      4  C   LIG    1       23.732  31.395  54.895  0.00  0.00    +0.090 C 
ATOM      5  C   LIG    1       23.656  31.020  56.222  0.00  0.00    +0.048 C 
ATOM      6  C   LIG    1       24.807  31.124  57.007  0.00  0.00    +0.125 C 
ATOM      7  N   LIG    1       25.927  31.574  56.449  0.00  0.00    -0.286 NA
ATOM      8  H   LIG    1       26.210  32.394  56.983  0.00  0.00    +0.125 HD
ENDROOT
BRANCH   6   9
ATOM      9  N   LIG    1       24.782  30.762  58.343  0.00  0.00    -0.315 NA
ATOM     10  H   LIG    1       25.266  31.289  58.998  0.00  0.00    +0.120 HD
ATOM     11  H   LIG    1       24.280  29.981  58.625  0.00  0.00    +0.120 HD
ENDBRANCH   6   9
BRANCH   1  12
ATOM     12  C   LIG    1       27.241  32.433  54.585  0.00  0.00    +0.034 C 
BRANCH  12  14
ATOM     13  C   LIG    1       27.051  34.832  55.256  0.00  0.00    +0.004 C 
ATOM     14  C   LIG    1       27.819  33.529  55.483  0.00  0.00    -0.001 C 
ENDBRANCH  12  14
ENDBRANCH   1  12
BRANCH   5  15
ATOM     15  C   LIG    1       22.364  30.513  56.809  0.00  0.00    +0.092 C 
BRANCH  15  16
ATOM     16  N   LIG    1       21.334  31.548  56.690  0.00  0.00    -0.299 NA
ATOM     17  C   LIG    1       21.530  32.718  57.266  0.00  0.00    +0.084 C 
ATOM     18  C   LIG    1       20.581  33.718  57.175  0.00  0.00    +0.015 C 
ATOM     19  C   LIG    1       19.412  33.479  56.469  0.00  0.00    +0.003 C 
ATOM     20  C   LIG    1       19.242  32.236  55.878  0.00  0.00    +0.018 C 
ATOM     21  C   LIG    1       20.237  31.286  56.008  0.00  0.00    +0.054 C 
ATOM     22  C   LIG    1       20.064  29.933  55.364  0.00  0.00    +0.024 C 
ENDBRANCH  15  16
ENDBRANCH   5  15
TORSDOF 5
ENDMDL
MODEL 5
REMARK VINA RESULT:      -5.0      2.109      2.932
REMARK  Name = ZINC00000934
REMARK                            x       y       z     vdW  Elec       q    Type
REMARK                         _______ _______ _______ _____ _____    ______ ____
ROOT
ATOM      1  C   LIG    1       25.393  32.166  55.717  0.00  0.00    +0.123 C 
ATOM      2  N   LIG    1       25.350  31.550  56.882  0.00  0.00    -0.301 NA
ATOM      3  H   LIG    1       26.035  31.729  57.543  0.00  0.00    +0.123 HD
ATOM      4  C   LIG    1       24.381  30.690  57.163  0.00  0.00    +0.090 C 
ATOM      5  C   LIG    1       23.406  30.441  56.217  0.00  0.00    +0.048 C 
ATOM      6  C   LIG    1       23.481  31.110  54.994  0.00  0.00    +0.125 C 
ATOM      7  N   LIG    1       24.483  31.962  54.788  0.00  0.00    -0.286 NA
ATOM      8  H   LIG    1       24.979  31.633  53.961  0.00  0.00    +0.125 HD
ENDROOT
BRANCH   6   9
ATOM      9  N   LIG    1       22.528  30.893  54.013  0.00  0.00    -0.315 NA
ATOM     10  H   LIG    1       21.785  30.293  54.182  0.00  0.00    +0.120 HD
ATOM     11  H   LIG    1       22.603  31.342  53.156  0.00  0.00    +0.120 HD
ENDBRANCH   6   9
BRANCH   1  12
ATOM     12  C   LIG    1       26.515  33.135  55.443  0.00  0.00    +0.034 C 
BRANCH  12  14
ATOM     13  C   LIG    1       28.667  31.891  55.197  0.00  0.00    +0.004 C 
ATOM     14  C   LIG    1       27.492  32.515  54.443  0.00  0.00    -0.001 C 
ENDBRANCH  12  14
ENDBRANCH   1  12
BRANCH   5  15
ATOM     15  C   LIG    1       22.288  29.470  56.499  0.00  0.00    +0.092 C 
BRANCH  15  16
ATOM     16  N   LIG    1       21.039  30.208  56.702  0.00  0.00    -0.299 NA
ATOM     17  C   LIG    1       21.043  31.278  57.474  0.00  0.00    +0.084 C 
ATOM     18  C   LIG    1       19.885  32.000  57.688  0.00  0.00    +0.015 C 
ATOM     19  C   LIG    1       18.708  31.586  57.080  0.00  0.00    +0.003 C 
ATOM     20  C   LIG    1       18.743  30.457  56.276  0.00  0.00    +0.018 C 
ATOM     21  C   LIG    1       19.941  29.789  56.105  0.00  0.00    +0.054 C 
ATOM     22  C   LIG    1       19.991  28.563  55.229  0.00  0.00    +0.024 C 
ENDBRANCH  15  16
ENDBRANCH   5  15
TORSDOF 5
ENDMDL
