REMARK VINA RESULT:      -5.6      2.340      3.362
REMARK  Name = ZINC00000071
REMARK                            x       y       z     vdW  Elec       q    Type
REMARK                         _______ _______ _______ _____ _____    ______ ____
ROOT
ATOM      1  C   LIG    1       23.595  28.920  56.200  0.00  0.00    +0.117 A 
ATOM      2  C   LIG    1       23.592  30.241  56.533  0.00  0.00    +0.071 A 
ATOM      3  C   LIG    1       23.216  30.292  57.961  0.00  0.00    +0.031 A 
ATOM      4  C   LIG    1       23.037  31.319  58.882  0.00  0.00    +0.012 A 
ATOM      5  C   LIG    1       22.671  31.018  60.176  0.00  0.00    +0.001 A 
ATOM      6  C   LIG    1       22.487  29.698  60.560  0.00  0.00    +0.004 A 
ATOM      7  C   LIG    1       22.657  28.673  59.654  0.00  0.00    +0.047 A 
ATOM      8  C   LIG    1       23.025  28.957  58.345  0.00  0.00    +0.136 A 
ATOM      9  O   LIG    1       23.262  28.182  57.265  0.00  0.00    -0.459 OA
ENDROOT
BRANCH   1  11
ATOM     10  C   LIG    1       24.629  27.023  54.984  0.00  0.00    +0.012 C 
ATOM     11  C   LIG    1       23.923  28.372  54.835  0.00  0.00    +0.072 C 
ENDBRANCH   1  11
BRANCH   2  12
ATOM     12  C   LIG    1       23.902  31.379  55.656  0.00  0.00    +0.197 C 
ATOM     13  O   LIG    1       23.024  31.886  54.984  0.00  0.00    -0.287 OA
BRANCH  12  14
ATOM     14  C   LIG    1       25.279  31.905  55.589  0.00  0.00    +0.023 A 
ATOM     15  C   LIG    1       25.940  32.290  56.759  0.00  0.00    +0.015 A 
ATOM     16  C   LIG    1       27.227  32.777  56.693  0.00  0.00    +0.046 A 
ATOM     17  C   LIG    1       27.864  32.896  55.464  0.00  0.00    +0.117 A 
ATOM     18  C   LIG    1       27.209  32.521  54.297  0.00  0.00    +0.046 A 
ATOM     19  C   LIG    1       25.924  32.028  54.355  0.00  0.00    +0.015 A 
BRANCH  17  20
ATOM     20  O   LIG    1       29.131  33.380  55.402  0.00  0.00    -0.507 OA
ATOM     21  H   LIG    1       29.675  33.158  56.169  0.00  0.00    +0.292 HD
ENDBRANCH  17  20
ENDBRANCH  12  14
ENDBRANCH   2  12
TORSDOF 4
