REMARK VINA RESULT:      -6.0      0.000      0.000
REMARK  Name = ZINC00000071
REMARK                            x       y       z     vdW  Elec       q    Type
REMARK                         _______ _______ _______ _____ _____    ______ ____
ROOT
ATOM      1  C   LIG    1       22.692  30.989  54.662  0.00  0.00    +0.117 A 
ATOM      2  C   LIG    1       23.190  31.559  55.795  0.00  0.00    +0.071 A 
ATOM      3  C   LIG    1       22.197  32.575  56.200  0.00  0.00    +0.031 A 
ATOM      4  C   LIG    1       22.111  33.483  57.250  0.00  0.00    +0.012 A 
ATOM      5  C   LIG    1       21.017  34.318  57.341  0.00  0.00    +0.001 A 
ATOM      6  C   LIG    1       20.007  34.249  56.394  0.00  0.00    +0.004 A 
ATOM      7  C   LIG    1       20.084  33.356  55.347  0.00  0.00    +0.047 A 
ATOM      8  C   LIG    1       21.179  32.508  55.237  0.00  0.00    +0.136 A 
ATOM      9  O   LIG    1       21.520  31.553  54.347  0.00  0.00    -0.459 OA
ENDROOT
BRANCH   1  11
ATOM     10  C   LIG    1       23.070  28.542  54.538  0.00  0.00    +0.012 C 
ATOM     11  C   LIG    1       23.364  29.891  53.878  0.00  0.00    +0.072 C 
ENDBRANCH   1  11
BRANCH   2  12
ATOM     12  C   LIG    1       24.450  31.230  56.475  0.00  0.00    +0.197 C 
ATOM     13  O   LIG    1       24.462  30.408  57.372  0.00  0.00    -0.287 OA
BRANCH  12  14
ATOM     14  C   LIG    1       25.703  31.898  56.069  0.00  0.00    +0.023 A 
ATOM     15  C   LIG    1       26.758  31.147  55.543  0.00  0.00    +0.015 A 
ATOM     16  C   LIG    1       27.924  31.775  55.162  0.00  0.00    +0.046 A 
ATOM     17  C   LIG    1       28.055  33.150  55.311  0.00  0.00    +0.117 A 
ATOM     18  C   LIG    1       27.011  33.900  55.840  0.00  0.00    +0.046 A 
ATOM     19  C   LIG    1       25.840  33.281  56.218  0.00  0.00    +0.015 A 
BRANCH  17  20
ATOM     20  O   LIG    1       29.207  33.764  54.939  0.00  0.00    -0.507 OA
ATOM     21  H   LIG    1       29.856  33.850  55.651  0.00  0.00    +0.292 HD
ENDBRANCH  17  20
ENDBRANCH  12  14
ENDBRANCH   2  12
TORSDOF 4
