REMARK VINA RESULT:      -5.5      2.233      3.751
REMARK  Name = ZINC00000071
REMARK                            x       y       z     vdW  Elec       q    Type
REMARK                         _______ _______ _______ _____ _____    ______ ____
ROOT
ATOM      1  C   LIG    1       21.909  33.281  57.327  0.00  0.00    +0.117 A 
ATOM      2  C   LIG    1       22.848  32.320  57.098  0.00  0.00    +0.071 A 
ATOM      3  C   LIG    1       22.935  31.542  58.351  0.00  0.00    +0.031 A 
ATOM      4  C   LIG    1       23.690  30.448  58.763  0.00  0.00    +0.012 A 
ATOM      5  C   LIG    1       23.527  29.950  60.038  0.00  0.00    +0.001 A 
ATOM      6  C   LIG    1       22.612  30.532  60.903  0.00  0.00    +0.004 A 
ATOM      7  C   LIG    1       21.863  31.618  60.506  0.00  0.00    +0.047 A 
ATOM      8  C   LIG    1       22.014  32.136  59.225  0.00  0.00    +0.136 A 
ATOM      9  O   LIG    1       21.431  33.162  58.571  0.00  0.00    -0.459 OA
ENDROOT
BRANCH   1  11
ATOM     10  C   LIG    1       21.881  35.710  56.830  0.00  0.00    +0.012 C 
ATOM     11  C   LIG    1       21.475  34.322  56.328  0.00  0.00    +0.072 C 
ENDBRANCH   1  11
BRANCH   2  12
ATOM     12  C   LIG    1       23.612  32.102  55.863  0.00  0.00    +0.197 C 
ATOM     13  O   LIG    1       23.059  31.659  54.874  0.00  0.00    -0.287 OA
BRANCH  12  14
ATOM     14  C   LIG    1       25.054  32.420  55.822  0.00  0.00    +0.023 A 
ATOM     15  C   LIG    1       25.979  31.431  55.474  0.00  0.00    +0.015 A 
ATOM     16  C   LIG    1       27.322  31.733  55.432  0.00  0.00    +0.046 A 
ATOM     17  C   LIG    1       27.759  33.014  55.746  0.00  0.00    +0.117 A 
ATOM     18  C   LIG    1       26.844  33.998  56.099  0.00  0.00    +0.046 A 
ATOM     19  C   LIG    1       25.498  33.707  56.138  0.00  0.00    +0.015 A 
BRANCH  17  20
ATOM     20  O   LIG    1       29.084  33.305  55.709  0.00  0.00    -0.507 OA
ATOM     21  H   LIG    1       29.304  34.182  56.052  0.00  0.00    +0.292 HD
ENDBRANCH  17  20
ENDBRANCH  12  14
ENDBRANCH   2  12
TORSDOF 4
