REMARK VINA RESULT:      -5.8      2.044      5.357
REMARK  Name = ZINC00000071
REMARK                            x       y       z     vdW  Elec       q    Type
REMARK                         _______ _______ _______ _____ _____    ______ ____
ROOT
ATOM      1  C   LIG    1       24.240  31.183  54.699  0.00  0.00    +0.117 A 
ATOM      2  C   LIG    1       24.637  31.406  55.984  0.00  0.00    +0.071 A 
ATOM      3  C   LIG    1       25.923  32.126  55.885  0.00  0.00    +0.031 A 
ATOM      4  C   LIG    1       26.826  32.631  56.815  0.00  0.00    +0.012 A 
ATOM      5  C   LIG    1       27.968  33.268  56.380  0.00  0.00    +0.001 A 
ATOM      6  C   LIG    1       28.213  33.409  55.022  0.00  0.00    +0.004 A 
ATOM      7  C   LIG    1       27.328  32.908  54.092  0.00  0.00    +0.047 A 
ATOM      8  C   LIG    1       26.171  32.261  54.512  0.00  0.00    +0.136 A 
ATOM      9  O   LIG    1       25.145  31.686  53.851  0.00  0.00    -0.459 OA
ENDROOT
BRANCH   1  11
ATOM     10  C   LIG    1       23.243  28.970  54.194  0.00  0.00    +0.012 C 
ATOM     11  C   LIG    1       22.974  30.474  54.295  0.00  0.00    +0.072 C 
ENDBRANCH   1  11
BRANCH   2  12
ATOM     12  C   LIG    1       23.931  31.014  57.211  0.00  0.00    +0.197 C 
ATOM     13  O   LIG    1       24.178  29.948  57.742  0.00  0.00    -0.287 OA
BRANCH  12  14
ATOM     14  C   LIG    1       22.919  31.914  57.800  0.00  0.00    +0.023 A 
ATOM     15  C   LIG    1       22.354  31.615  59.043  0.00  0.00    +0.015 A 
ATOM     16  C   LIG    1       21.414  32.460  59.590  0.00  0.00    +0.046 A 
ATOM     17  C   LIG    1       21.019  33.602  58.904  0.00  0.00    +0.117 A 
ATOM     18  C   LIG    1       21.573  33.900  57.664  0.00  0.00    +0.046 A 
ATOM     19  C   LIG    1       22.517  33.064  57.112  0.00  0.00    +0.015 A 
BRANCH  17  20
ATOM     20  O   LIG    1       20.088  34.429  59.445  0.00  0.00    -0.507 OA
ATOM     21  H   LIG    1       19.642  34.995  58.800  0.00  0.00    +0.292 HD
ENDBRANCH  17  20
ENDBRANCH  12  14
ENDBRANCH   2  12
TORSDOF 4
