REMARK VINA RESULT:      -5.7      2.103      5.498
REMARK  Name = ZINC00000071
REMARK                            x       y       z     vdW  Elec       q    Type
REMARK                         _______ _______ _______ _____ _____    ______ ____
ROOT
ATOM      1  C   LIG    1       24.877  30.357  55.836  0.00  0.00    +0.117 A 
ATOM      2  C   LIG    1       24.460  31.638  56.044  0.00  0.00    +0.071 A 
ATOM      3  C   LIG    1       25.655  32.483  55.843  0.00  0.00    +0.031 A 
ATOM      4  C   LIG    1       25.897  33.852  55.907  0.00  0.00    +0.012 A 
ATOM      5  C   LIG    1       27.166  34.332  55.659  0.00  0.00    +0.001 A 
ATOM      6  C   LIG    1       28.193  33.455  55.341  0.00  0.00    +0.004 A 
ATOM      7  C   LIG    1       27.964  32.097  55.280  0.00  0.00    +0.047 A 
ATOM      8  C   LIG    1       26.693  31.595  55.528  0.00  0.00    +0.136 A 
ATOM      9  O   LIG    1       26.181  30.347  55.537  0.00  0.00    -0.459 OA
ENDROOT
BRANCH   1  11
ATOM     10  C   LIG    1       23.426  28.811  54.550  0.00  0.00    +0.012 C 
ATOM     11  C   LIG    1       24.000  29.136  55.932  0.00  0.00    +0.072 C 
ENDBRANCH   1  11
BRANCH   2  12
ATOM     12  C   LIG    1       23.105  32.085  56.394  0.00  0.00    +0.197 C 
ATOM     13  O   LIG    1       22.305  32.350  55.515  0.00  0.00    -0.287 OA
BRANCH  12  14
ATOM     14  C   LIG    1       22.714  32.215  57.811  0.00  0.00    +0.023 A 
ATOM     15  C   LIG    1       23.064  31.220  58.728  0.00  0.00    +0.015 A 
ATOM     16  C   LIG    1       22.700  31.347  60.051  0.00  0.00    +0.046 A 
ATOM     17  C   LIG    1       21.978  32.457  60.471  0.00  0.00    +0.117 A 
ATOM     18  C   LIG    1       21.621  33.445  59.562  0.00  0.00    +0.046 A 
ATOM     19  C   LIG    1       21.985  33.329  58.239  0.00  0.00    +0.015 A 
BRANCH  17  20
ATOM     20  O   LIG    1       21.617  32.576  61.775  0.00  0.00    -0.507 OA
ATOM     21  H   LIG    1       20.889  31.996  62.036  0.00  0.00    +0.292 HD
ENDBRANCH  17  20
ENDBRANCH  12  14
ENDBRANCH   2  12
TORSDOF 4
