MODEL 1
REMARK VINA RESULT:      -5.6      0.000      0.000
REMARK  Name = ZINC00000860
REMARK                            x       y       z     vdW  Elec       q    Type
REMARK                         _______ _______ _______ _____ _____    ______ ____
ROOT
ATOM      1  C   LIG    1       23.309  32.661  56.701  0.00  0.00    +0.017 C 
ATOM      2  C   LIG    1       23.511  31.373  56.358  0.00  0.00    -0.021 C 
ATOM      3  C   LIG    1       22.369  30.375  56.332  0.00  0.00    +0.039 C 
ATOM      4  C   LIG    1       22.910  29.060  56.913  0.00  0.00    +0.028 C 
ATOM      5  C   LIG    1       24.067  28.573  56.043  0.00  0.00    +0.142 C 
ATOM      6  N   LIG    1       25.077  29.607  55.868  0.00  0.00    -0.283 NA
ATOM      7  C   LIG    1       24.848  30.881  55.989  0.00  0.00    +0.070 C 
ENDROOT
BRANCH   1  11
ATOM      8  C   LIG    1       19.362  34.108  57.285  0.00  0.00    +0.124 A 
ATOM      9  C   LIG    1       19.920  34.103  56.011  0.00  0.00    +0.046 A 
ATOM     10  C   LIG    1       21.200  33.635  55.817  0.00  0.00    +0.015 A 
ATOM     11  C   LIG    1       21.942  33.162  56.903  0.00  0.00    +0.017 A 
ATOM     12  C   LIG    1       21.376  33.167  58.189  0.00  0.00    +0.131 A 
ATOM     13  C   LIG    1       20.088  33.635  58.369  0.00  0.00    +0.091 A 
BRANCH   8  15
ATOM     14  C   LIG    1       17.244  34.594  56.323  0.00  0.00    +0.277 C 
ATOM     15  O   LIG    1       18.099  34.572  57.468  0.00  0.00    -0.495 OA
ENDBRANCH   8  15
BRANCH  12  16
ATOM     16  O   LIG    1       22.090  32.709  59.249  0.00  0.00    -0.494 OA
ATOM     17  C   LIG    1       21.652  31.485  59.845  0.00  0.00    +0.277 C 
ENDBRANCH  12  16
ENDBRANCH   1  11
BRANCH   7  18
ATOM     18  C   LIG    1       25.946  31.850  55.757  0.00  0.00    +0.018 A 
ATOM     19  C   LIG    1       26.238  32.298  54.465  0.00  0.00    +0.013 A 
ATOM     20  C   LIG    1       27.269  33.208  54.304  0.00  0.00    +0.020 A 
ATOM     21  C   LIG    1       27.978  33.630  55.412  0.00  0.00    +0.111 A 
ATOM     22  N   LIG    1       27.683  33.185  56.619  0.00  0.00    -0.263 NA
ATOM     23  C   LIG    1       26.708  32.325  56.824  0.00  0.00    +0.120 A 
ENDBRANCH   7  18
TORSDOF 4
ENDMDL
MODEL 2
REMARK VINA RESULT:      -5.4      1.804      2.409
REMARK  Name = ZINC00000860
REMARK                            x       y       z     vdW  Elec       q    Type
REMARK                         _______ _______ _______ _____ _____    ______ ____
ROOT
ATOM      1  C   LIG    1       22.601  33.039  56.549  0.00  0.00    +0.017 C 
ATOM      2  C   LIG    1       22.925  31.998  57.344  0.00  0.00    -0.021 C 
ATOM      3  C   LIG    1       21.889  31.327  58.225  0.00  0.00    +0.039 C 
ATOM      4  C   LIG    1       22.572  31.022  59.567  0.00  0.00    +0.028 C 
ATOM      5  C   LIG    1       23.754  30.086  59.319  0.00  0.00    +0.142 C 
ATOM      6  N   LIG    1       24.651  30.614  58.300  0.00  0.00    -0.283 NA
ATOM      7  C   LIG    1       24.296  31.467  57.386  0.00  0.00    +0.070 C 
ENDROOT
BRANCH   1  11
ATOM      8  C   LIG    1       18.540  34.199  56.127  0.00  0.00    +0.124 A 
ATOM      9  C   LIG    1       19.315  34.737  57.149  0.00  0.00    +0.046 A 
ATOM     10  C   LIG    1       20.632  34.364  57.291  0.00  0.00    +0.015 A 
ATOM     11  C   LIG    1       21.195  33.441  56.403  0.00  0.00    +0.017 A 
ATOM     12  C   LIG    1       20.411  32.900  55.371  0.00  0.00    +0.131 A 
ATOM     13  C   LIG    1       19.090  33.287  55.237  0.00  0.00    +0.091 A 
BRANCH   8  15
ATOM     14  C   LIG    1       16.383  34.343  57.115  0.00  0.00    +0.277 C 
ATOM     15  O   LIG    1       17.242  34.572  55.995  0.00  0.00    -0.495 OA
ENDBRANCH   8  15
BRANCH  12  16
ATOM     16  O   LIG    1       20.949  32.004  54.505  0.00  0.00    -0.494 OA
ATOM     17  C   LIG    1       20.724  30.620  54.780  0.00  0.00    +0.277 C 
ENDBRANCH  12  16
ENDBRANCH   1  11
BRANCH   7  18
ATOM     18  C   LIG    1       25.285  31.914  56.376  0.00  0.00    +0.018 A 
ATOM     19  C   LIG    1       25.111  31.604  55.024  0.00  0.00    +0.013 A 
ATOM     20  C   LIG    1       26.060  32.051  54.120  0.00  0.00    +0.020 A 
ATOM     21  C   LIG    1       27.146  32.771  54.581  0.00  0.00    +0.111 A 
ATOM     22  N   LIG    1       27.287  33.044  55.864  0.00  0.00    -0.263 NA
ATOM     23  C   LIG    1       26.408  32.646  56.760  0.00  0.00    +0.120 A 
ENDBRANCH   7  18
TORSDOF 4
ENDMDL
MODEL 3
REMARK VINA RESULT:      -5.3      1.757      2.408
REMARK  Name = ZINC00000860
REMARK                            x       y       z     vdW  Elec       q    Type
REMARK                         _______ _______ _______ _____ _____    ______ ____
ROOT
ATOM      1  C   LIG    1       22.432  33.096  56.491  0.00  0.00    +0.017 C 
ATOM      2  C   LIG    1       22.763  32.056  57.284  0.00  0.00    -0.021 C 
ATOM      3  C   LIG    1       21.747  31.420  58.213  0.00  0.00    +0.039 C 
ATOM      4  C   LIG    1       22.476  31.114  59.531  0.00  0.00    +0.028 C 
ATOM      5  C   LIG    1       23.625  30.148  59.248  0.00  0.00    +0.142 C 
ATOM      6  N   LIG    1       24.493  30.642  58.189  0.00  0.00    -0.283 NA
ATOM      7  C   LIG    1       24.122  31.493  57.279  0.00  0.00    +0.070 C 
ENDROOT
BRANCH   1  11
ATOM      8  C   LIG    1       18.386  34.349  56.212  0.00  0.00    +0.124 A 
ATOM      9  C   LIG    1       18.827  33.251  55.481  0.00  0.00    +0.046 A 
ATOM     10  C   LIG    1       20.137  32.840  55.568  0.00  0.00    +0.015 A 
ATOM     11  C   LIG    1       21.031  33.529  56.395  0.00  0.00    +0.017 A 
ATOM     12  C   LIG    1       20.584  34.638  57.131  0.00  0.00    +0.131 A 
ATOM     13  C   LIG    1       19.263  35.037  57.039  0.00  0.00    +0.091 A 
BRANCH   8  15
ATOM     14  C   LIG    1       16.134  34.027  56.899  0.00  0.00    +0.277 C 
ATOM     15  O   LIG    1       17.092  34.747  56.120  0.00  0.00    -0.495 OA
ENDBRANCH   8  15
BRANCH  12  16
ATOM     16  O   LIG    1       21.444  35.313  57.936  0.00  0.00    -0.494 OA
ATOM     17  C   LIG    1       21.922  36.574  57.462  0.00  0.00    +0.277 C 
ENDBRANCH  12  16
ENDBRANCH   1  11
BRANCH   7  18
ATOM     18  C   LIG    1       25.081  31.906  56.226  0.00  0.00    +0.018 A 
ATOM     19  C   LIG    1       26.166  32.731  56.536  0.00  0.00    +0.013 A 
ATOM     20  C   LIG    1       27.036  33.081  55.518  0.00  0.00    +0.020 A 
ATOM     21  C   LIG    1       26.799  32.619  54.237  0.00  0.00    +0.111 A 
ATOM     22  N   LIG    1       25.763  31.847  53.973  0.00  0.00    -0.263 NA
ATOM     23  C   LIG    1       24.912  31.481  54.909  0.00  0.00    +0.120 A 
ENDBRANCH   7  18
TORSDOF 4
ENDMDL
MODEL 4
REMARK VINA RESULT:      -5.1      2.530      4.152
REMARK  Name = ZINC00000860
REMARK                            x       y       z     vdW  Elec       q    Type
REMARK                         _______ _______ _______ _____ _____    ______ ____
ROOT
ATOM      1  C   LIG    1       20.863  33.504  56.533  0.00  0.00    +0.017 C 
ATOM      2  C   LIG    1       21.244  32.779  57.605  0.00  0.00    -0.021 C 
ATOM      3  C   LIG    1       20.697  33.072  58.989  0.00  0.00    +0.039 C 
ATOM      4  C   LIG    1       21.868  32.929  59.972  0.00  0.00    +0.028 C 
ATOM      5  C   LIG    1       22.405  31.501  59.898  0.00  0.00    +0.142 C 
ATOM      6  N   LIG    1       22.726  31.119  58.531  0.00  0.00    -0.283 NA
ATOM      7  C   LIG    1       22.202  31.671  57.476  0.00  0.00    +0.070 C 
ENDROOT
BRANCH   1  11
ATOM      8  C   LIG    1       17.745  36.360  56.905  0.00  0.00    +0.124 A 
ATOM      9  C   LIG    1       19.059  36.723  57.180  0.00  0.00    +0.046 A 
ATOM     10  C   LIG    1       20.073  35.801  57.061  0.00  0.00    +0.015 A 
ATOM     11  C   LIG    1       19.784  34.493  56.661  0.00  0.00    +0.017 A 
ATOM     12  C   LIG    1       18.456  34.128  56.382  0.00  0.00    +0.131 A 
ATOM     13  C   LIG    1       17.447  35.066  56.501  0.00  0.00    +0.091 A 
BRANCH   8  15
ATOM     14  C   LIG    1       16.939  38.316  57.986  0.00  0.00    +0.277 C 
ATOM     15  O   LIG    1       16.750  37.275  57.025  0.00  0.00    -0.495 OA
ENDBRANCH   8  15
BRANCH  12  16
ATOM     16  O   LIG    1       18.166  32.860  55.993  0.00  0.00    -0.494 OA
ATOM     17  C   LIG    1       16.874  32.355  56.339  0.00  0.00    +0.277 C 
ENDBRANCH  12  16
ENDBRANCH   1  11
BRANCH   7  18
ATOM     18  C   LIG    1       22.579  31.181  56.128  0.00  0.00    +0.018 A 
ATOM     19  C   LIG    1       21.821  30.193  55.493  0.00  0.00    +0.013 A 
ATOM     20  C   LIG    1       22.211  29.776  54.232  0.00  0.00    +0.020 A 
ATOM     21  C   LIG    1       23.334  30.335  53.652  0.00  0.00    +0.111 A 
ATOM     22  N   LIG    1       24.033  31.262  54.278  0.00  0.00    -0.263 NA
ATOM     23  C   LIG    1       23.698  31.696  55.475  0.00  0.00    +0.120 A 
ENDBRANCH   7  18
TORSDOF 4
ENDMDL
MODEL 5
REMARK VINA RESULT:      -5.0      3.861      5.356
REMARK  Name = ZINC00000860
REMARK                            x       y       z     vdW  Elec       q    Type
REMARK                         _______ _______ _______ _____ _____    ______ ____
ROOT
ATOM      1  C   LIG    1       21.833  36.585  57.294  0.00  0.00    +0.017 C 
ATOM      2  C   LIG    1       22.381  36.521  58.525  0.00  0.00    -0.021 C 
ATOM      3  C   LIG    1       21.659  35.845  59.675  0.00  0.00    +0.039 C 
ATOM      4  C   LIG    1       21.891  36.713  60.921  0.00  0.00    +0.028 C 
ATOM      5  C   LIG    1       23.391  36.789  61.200  0.00  0.00    +0.142 C 
ATOM      6  N   LIG    1       24.133  37.223  60.025  0.00  0.00    -0.283 NA
ATOM      7  C   LIG    1       23.705  37.098  58.803  0.00  0.00    +0.070 C 
ENDROOT
BRANCH   1  11
ATOM      8  C   LIG    1       18.240  34.485  56.461  0.00  0.00    +0.124 A 
ATOM      9  C   LIG    1       18.189  35.794  56.929  0.00  0.00    +0.046 A 
ATOM     10  C   LIG    1       19.351  36.479  57.200  0.00  0.00    +0.015 A 
ATOM     11  C   LIG    1       20.589  35.858  57.005  0.00  0.00    +0.017 A 
ATOM     12  C   LIG    1       20.638  34.537  56.533  0.00  0.00    +0.131 A 
ATOM     13  C   LIG    1       19.463  33.862  56.259  0.00  0.00    +0.091 A 
BRANCH   8  15
ATOM     14  C   LIG    1       15.950  34.143  56.995  0.00  0.00    +0.277 C 
ATOM     15  O   LIG    1       17.089  33.816  56.196  0.00  0.00    -0.495 OA
ENDBRANCH   8  15
BRANCH  12  16
ATOM     16  O   LIG    1       21.836  33.926  56.340  0.00  0.00    -0.494 OA
ATOM     17  C   LIG    1       21.807  32.567  55.899  0.00  0.00    +0.277 C 
ENDBRANCH  12  16
ENDBRANCH   1  11
BRANCH   7  18
ATOM     18  C   LIG    1       24.559  37.547  57.678  0.00  0.00    +0.018 A 
ATOM     19  C   LIG    1       25.271  36.620  56.911  0.00  0.00    +0.013 A 
ATOM     20  C   LIG    1       26.048  37.090  55.866  0.00  0.00    +0.020 A 
ATOM     21  C   LIG    1       26.106  38.450  55.625  0.00  0.00    +0.111 A 
ATOM     22  N   LIG    1       25.428  39.302  56.370  0.00  0.00    -0.263 NA
ATOM     23  C   LIG    1       24.670  38.902  57.370  0.00  0.00    +0.120 A 
ENDBRANCH   7  18
TORSDOF 4
ENDMDL
