REMARK VINA RESULT:      -5.5      1.271      3.024
REMARK  Name = ZINC00000640
REMARK                            x       y       z     vdW  Elec       q    Type
REMARK                         _______ _______ _______ _____ _____    ______ ____
ROOT
ATOM      1  C   LIG    1       21.737  30.147  58.867  0.00  0.00    +0.008 C 
ATOM      2  C   LIG    1       21.721  30.694  57.462  0.00  0.00    -0.001 C 
ATOM      3  C   LIG    1       20.543  30.859  56.783  0.00  0.00    +0.011 C 
ATOM      4  C   LIG    1       20.555  31.361  55.488  0.00  0.00    +0.086 C 
ATOM      5  N   LIG    1       21.675  31.699  54.887  0.00  0.00    -0.301 NA
ATOM      6  H   LIG    1       21.587  32.686  54.645  0.00  0.00    +0.123 HD
ATOM      7  C   LIG    1       22.853  31.562  55.495  0.00  0.00    +0.130 C 
ATOM      8  N   LIG    1       24.001  31.926  54.823  0.00  0.00    -0.274 NA
ATOM      9  H   LIG    1       24.024  32.293  53.893  0.00  0.00    +0.126 HD
ATOM     10  C   LIG    1       25.156  31.755  55.515  0.00  0.00    +0.194 C 
ATOM     11  N   LIG    1       25.251  31.279  56.752  0.00  0.00    -0.274 NA
ATOM     12  H   LIG    1       25.850  30.455  56.698  0.00  0.00    +0.126 HD
ATOM     13  C   LIG    1       24.176  30.918  57.436  0.00  0.00    +0.127 C 
ATOM     14  C   LIG    1       22.910  31.051  56.815  0.00  0.00    +0.055 C 
ENDROOT
BRANCH  10  15
ATOM     15  N   LIG    1       26.314  32.116  54.853  0.00  0.00    -0.303 NA
ATOM     16  H   LIG    1       26.876  32.822  55.210  0.00  0.00    +0.121 HD
ATOM     17  H   LIG    1       26.566  31.664  54.033  0.00  0.00    +0.121 HD
ENDBRANCH  10  15
BRANCH  13  18
ATOM     18  N   LIG    1       24.286  30.426  58.718  0.00  0.00    -0.315 NA
ATOM     19  H   LIG    1       24.360  29.470  58.866  0.00  0.00    +0.120 HD
ATOM     20  H   LIG    1       24.290  31.035  59.473  0.00  0.00    +0.120 HD
ENDBRANCH  13  18
BRANCH   3  21
ATOM     21  C   LIG    1       19.236  30.490  57.437  0.00  0.00    +0.044 C 
BRANCH  21  22
ATOM     22  C   LIG    1       18.554  29.419  56.626  0.00  0.00    -0.002 A 
ATOM     23  C   LIG    1       19.101  28.152  56.556  0.00  0.00    +0.052 A 
ATOM     24  C   LIG    1       18.472  27.165  55.810  0.00  0.00    +0.121 A 
ATOM     25  C   LIG    1       17.299  27.453  55.128  0.00  0.00    +0.049 A 
ATOM     26  C   LIG    1       16.749  28.718  55.203  0.00  0.00    +0.049 A 
ATOM     27  C   LIG    1       17.377  29.704  55.951  0.00  0.00    +0.123 A 
BRANCH  24  28
ATOM     28  O   LIG    1       19.011  25.919  55.740  0.00  0.00    -0.495 OA
ATOM     29  C   LIG    1       18.185  24.885  55.200  0.00  0.00    +0.277 C 
ENDBRANCH  24  28
BRANCH  27  30
ATOM     30  O   LIG    1       16.838  30.951  56.020  0.00  0.00    -0.495 OA
ATOM     31  C   LIG    1       15.587  31.079  56.699  0.00  0.00    +0.277 C 
ENDBRANCH  27  30
ENDBRANCH  21  22
ENDBRANCH   3  21
TORSDOF 6
