REMARK VINA RESULT:      -5.9      0.000      0.000
REMARK  Name = ZINC00000640
REMARK                            x       y       z     vdW  Elec       q    Type
REMARK                         _______ _______ _______ _____ _____    ______ ____
ROOT
ATOM      1  C   LIG    1       22.491  28.878  58.074  0.00  0.00    +0.008 C 
ATOM      2  C   LIG    1       22.550  29.353  56.644  0.00  0.00    -0.001 C 
ATOM      3  C   LIG    1       21.677  28.872  55.705  0.00  0.00    +0.011 C 
ATOM      4  C   LIG    1       21.756  29.322  54.393  0.00  0.00    +0.086 C 
ATOM      5  N   LIG    1       22.645  30.216  54.019  0.00  0.00    -0.301 NA
ATOM      6  H   LIG    1       22.122  31.006  53.643  0.00  0.00    +0.123 HD
ATOM      7  C   LIG    1       23.522  30.721  54.886  0.00  0.00    +0.130 C 
ATOM      8  N   LIG    1       24.440  31.651  54.447  0.00  0.00    -0.274 NA
ATOM      9  H   LIG    1       24.505  31.987  53.508  0.00  0.00    +0.126 HD
ATOM     10  C   LIG    1       25.294  32.114  55.395  0.00  0.00    +0.194 C 
ATOM     11  N   LIG    1       25.304  31.745  56.672  0.00  0.00    -0.274 NA
ATOM     12  H   LIG    1       26.235  31.369  56.855  0.00  0.00    +0.126 HD
ATOM     13  C   LIG    1       24.442  30.854  57.138  0.00  0.00    +0.127 C 
ATOM     14  C   LIG    1       23.499  30.299  56.239  0.00  0.00    +0.055 C 
ENDROOT
BRANCH  10  15
ATOM     15  N   LIG    1       26.219  33.048  54.968  0.00  0.00    -0.303 NA
ATOM     16  H   LIG    1       26.529  33.736  55.578  0.00  0.00    +0.121 HD
ATOM     17  H   LIG    1       26.559  33.015  54.061  0.00  0.00    +0.121 HD
ENDBRANCH  10  15
BRANCH  13  18
ATOM     18  N   LIG    1       24.461  30.478  58.463  0.00  0.00    -0.315 NA
ATOM     19  H   LIG    1       25.019  29.737  58.749  0.00  0.00    +0.120 HD
ATOM     20  H   LIG    1       23.918  30.955  59.111  0.00  0.00    +0.120 HD
ENDBRANCH  13  18
BRANCH   3  21
ATOM     21  C   LIG    1       20.637  27.852  56.092  0.00  0.00    +0.044 C 
BRANCH  21  22
ATOM     22  C   LIG    1       19.265  28.462  55.970  0.00  0.00    -0.002 A 
ATOM     23  C   LIG    1       19.000  29.688  56.549  0.00  0.00    +0.052 A 
ATOM     24  C   LIG    1       17.736  30.250  56.436  0.00  0.00    +0.121 A 
ATOM     25  C   LIG    1       16.737  29.578  55.748  0.00  0.00    +0.049 A 
ATOM     26  C   LIG    1       17.004  28.355  55.163  0.00  0.00    +0.049 A 
ATOM     27  C   LIG    1       18.268  27.793  55.276  0.00  0.00    +0.123 A 
BRANCH  24  28
ATOM     28  O   LIG    1       17.476  31.456  57.006  0.00  0.00    -0.495 OA
ATOM     29  C   LIG    1       16.377  32.200  56.477  0.00  0.00    +0.277 C 
ENDBRANCH  24  28
BRANCH  27  30
ATOM     30  O   LIG    1       18.528  26.587  54.705  0.00  0.00    -0.495 OA
ATOM     31  C   LIG    1       17.968  25.435  55.339  0.00  0.00    +0.277 C 
ENDBRANCH  27  30
ENDBRANCH  21  22
ENDBRANCH   3  21
TORSDOF 6
