REMARK VINA RESULT:      -5.4      1.860      3.495
REMARK  Name = ZINC00000640
REMARK                            x       y       z     vdW  Elec       q    Type
REMARK                         _______ _______ _______ _____ _____    ______ ____
ROOT
ATOM      1  C   LIG    1       21.593  30.859  59.291  0.00  0.00    +0.008 C 
ATOM      2  C   LIG    1       21.712  31.514  57.939  0.00  0.00    -0.001 C 
ATOM      3  C   LIG    1       20.625  32.090  57.336  0.00  0.00    +0.011 C 
ATOM      4  C   LIG    1       20.760  32.683  56.087  0.00  0.00    +0.086 C 
ATOM      5  N   LIG    1       21.916  32.723  55.461  0.00  0.00    -0.301 NA
ATOM      6  H   LIG    1       22.127  33.708  55.306  0.00  0.00    +0.123 HD
ATOM      7  C   LIG    1       23.010  32.180  55.996  0.00  0.00    +0.130 C 
ATOM      8  N   LIG    1       24.198  32.242  55.299  0.00  0.00    -0.274 NA
ATOM      9  H   LIG    1       24.311  32.670  54.402  0.00  0.00    +0.126 HD
ATOM     10  C   LIG    1       25.261  31.667  55.916  0.00  0.00    +0.194 C 
ATOM     11  N   LIG    1       25.235  31.071  57.104  0.00  0.00    -0.274 NA
ATOM     12  H   LIG    1       25.552  30.113  56.952  0.00  0.00    +0.126 HD
ATOM     13  C   LIG    1       24.117  30.988  57.808  0.00  0.00    +0.127 C 
ATOM     14  C   LIG    1       22.938  31.554  57.265  0.00  0.00    +0.055 C 
ENDROOT
BRANCH  10  15
ATOM     15  N   LIG    1       26.459  31.722  55.228  0.00  0.00    -0.303 NA
ATOM     16  H   LIG    1       27.292  31.543  55.692  0.00  0.00    +0.121 HD
ATOM     17  H   LIG    1       26.466  31.936  54.283  0.00  0.00    +0.121 HD
ENDBRANCH  10  15
BRANCH  13  18
ATOM     18  N   LIG    1       24.100  30.368  59.038  0.00  0.00    -0.315 NA
ATOM     19  H   LIG    1       23.261  30.058  59.414  0.00  0.00    +0.120 HD
ATOM     20  H   LIG    1       24.928  30.240  59.529  0.00  0.00    +0.120 HD
ENDBRANCH  13  18
BRANCH   3  21
ATOM     21  C   LIG    1       19.283  32.072  58.022  0.00  0.00    +0.044 C 
BRANCH  21  22
ATOM     22  C   LIG    1       18.324  31.222  57.229  0.00  0.00    -0.002 A 
ATOM     23  C   LIG    1       18.589  29.880  57.036  0.00  0.00    +0.052 A 
ATOM     24  C   LIG    1       17.706  29.097  56.306  0.00  0.00    +0.121 A 
ATOM     25  C   LIG    1       16.562  29.664  55.764  0.00  0.00    +0.049 A 
ATOM     26  C   LIG    1       16.294  31.004  55.963  0.00  0.00    +0.049 A 
ATOM     27  C   LIG    1       17.177  31.787  56.693  0.00  0.00    +0.123 A 
BRANCH  24  28
ATOM     28  O   LIG    1       17.967  27.776  56.115  0.00  0.00    -0.495 OA
ATOM     29  C   LIG    1       17.982  27.307  54.766  0.00  0.00    +0.277 C 
ENDBRANCH  24  28
BRANCH  27  30
ATOM     30  O   LIG    1       16.916  33.107  56.884  0.00  0.00    -0.495 OA
ATOM     31  C   LIG    1       15.543  33.488  56.997  0.00  0.00    +0.277 C 
ENDBRANCH  27  30
ENDBRANCH  21  22
ENDBRANCH   3  21
TORSDOF 6
