REMARK VINA RESULT:      -5.5      1.347      1.743
REMARK  Name = ZINC00000640
REMARK                            x       y       z     vdW  Elec       q    Type
REMARK                         _______ _______ _______ _____ _____    ______ ____
ROOT
ATOM      1  C   LIG    1       22.116  29.657  58.317  0.00  0.00    +0.008 C 
ATOM      2  C   LIG    1       22.144  30.130  56.887  0.00  0.00    -0.001 C 
ATOM      3  C   LIG    1       21.054  29.972  56.071  0.00  0.00    +0.011 C 
ATOM      4  C   LIG    1       21.106  30.413  54.754  0.00  0.00    +0.086 C 
ATOM      5  N   LIG    1       22.177  30.996  54.261  0.00  0.00    -0.301 NA
ATOM      6  H   LIG    1       21.884  31.920  53.945  0.00  0.00    +0.123 HD
ATOM      7  C   LIG    1       23.268  31.178  55.004  0.00  0.00    +0.130 C 
ATOM      8  N   LIG    1       24.368  31.789  54.441  0.00  0.00    -0.274 NA
ATOM      9  H   LIG    1       24.418  32.115  53.498  0.00  0.00    +0.126 HD
ATOM     10  C   LIG    1       25.435  31.936  55.268  0.00  0.00    +0.194 C 
ATOM     11  N   LIG    1       25.488  31.545  56.537  0.00  0.00    -0.274 NA
ATOM     12  H   LIG    1       26.270  30.894  56.606  0.00  0.00    +0.126 HD
ATOM     13  C   LIG    1       24.455  30.954  57.120  0.00  0.00    +0.127 C 
ATOM     14  C   LIG    1       23.282  30.746  56.353  0.00  0.00    +0.055 C 
ENDROOT
BRANCH  10  15
ATOM     15  N   LIG    1       26.545  32.548  54.717  0.00  0.00    -0.303 NA
ATOM     16  H   LIG    1       27.404  32.485  55.163  0.00  0.00    +0.121 HD
ATOM     17  H   LIG    1       26.465  33.038  53.884  0.00  0.00    +0.121 HD
ENDBRANCH  10  15
BRANCH  13  18
ATOM     18  N   LIG    1       24.520  30.553  58.436  0.00  0.00    -0.315 NA
ATOM     19  H   LIG    1       24.744  29.634  58.652  0.00  0.00    +0.120 HD
ATOM     20  H   LIG    1       24.342  31.190  59.147  0.00  0.00    +0.120 HD
ENDBRANCH  13  18
BRANCH   3  21
ATOM     21  C   LIG    1       19.805  29.315  56.598  0.00  0.00    +0.044 C 
BRANCH  21  22
ATOM     22  C   LIG    1       18.655  30.287  56.521  0.00  0.00    -0.002 A 
ATOM     23  C   LIG    1       18.814  31.582  56.976  0.00  0.00    +0.052 A 
ATOM     24  C   LIG    1       17.756  32.477  56.903  0.00  0.00    +0.121 A 
ATOM     25  C   LIG    1       16.537  32.069  56.381  0.00  0.00    +0.049 A 
ATOM     26  C   LIG    1       16.380  30.776  55.921  0.00  0.00    +0.049 A 
ATOM     27  C   LIG    1       17.439  29.882  55.992  0.00  0.00    +0.123 A 
BRANCH  24  28
ATOM     28  O   LIG    1       17.911  33.751  57.352  0.00  0.00    -0.495 OA
ATOM     29  C   LIG    1       17.005  34.732  56.845  0.00  0.00    +0.277 C 
ENDBRANCH  24  28
BRANCH  27  30
ATOM     30  O   LIG    1       17.283  28.608  55.544  0.00  0.00    -0.495 OA
ATOM     31  C   LIG    1       15.974  28.225  55.119  0.00  0.00    +0.277 C 
ENDBRANCH  27  30
ENDBRANCH  21  22
ENDBRANCH   3  21
TORSDOF 6
