REMARK VINA RESULT:      -5.4      5.241      7.992
REMARK  Name = ZINC00000640
REMARK                            x       y       z     vdW  Elec       q    Type
REMARK                         _______ _______ _______ _____ _____    ______ ____
ROOT
ATOM      1  C   LIG    1       22.189  32.803  59.281  0.00  0.00    +0.008 C 
ATOM      2  C   LIG    1       21.830  33.222  57.878  0.00  0.00    -0.001 C 
ATOM      3  C   LIG    1       21.593  34.536  57.573  0.00  0.00    +0.011 C 
ATOM      4  C   LIG    1       21.260  34.896  56.273  0.00  0.00    +0.086 C 
ATOM      5  N   LIG    1       21.175  34.005  55.309  0.00  0.00    -0.301 NA
ATOM      6  H   LIG    1       21.845  34.288  54.594  0.00  0.00    +0.123 HD
ATOM      7  C   LIG    1       21.394  32.712  55.542  0.00  0.00    +0.130 C 
ATOM      8  N   LIG    1       21.287  31.815  54.501  0.00  0.00    -0.274 NA
ATOM      9  H   LIG    1       21.053  32.060  53.560  0.00  0.00    +0.126 HD
ATOM     10  C   LIG    1       21.528  30.519  54.825  0.00  0.00    +0.194 C 
ATOM     11  N   LIG    1       21.848  30.073  56.036  0.00  0.00    -0.274 NA
ATOM     12  H   LIG    1       21.132  29.391  56.289  0.00  0.00    +0.126 HD
ATOM     13  C   LIG    1       21.961  30.897  57.066  0.00  0.00    +0.127 C 
ATOM     14  C   LIG    1       21.732  32.279  56.848  0.00  0.00    +0.055 C 
ENDROOT
BRANCH  10  15
ATOM     15  N   LIG    1       21.425  29.610  53.790  0.00  0.00    -0.303 NA
ATOM     16  H   LIG    1       22.048  29.649  53.046  0.00  0.00    +0.121 HD
ATOM     17  H   LIG    1       20.733  28.931  53.807  0.00  0.00    +0.121 HD
ENDBRANCH  10  15
BRANCH  13  18
ATOM     18  N   LIG    1       22.292  30.425  58.317  0.00  0.00    -0.315 NA
ATOM     19  H   LIG    1       22.419  29.474  58.458  0.00  0.00    +0.120 HD
ATOM     20  H   LIG    1       22.400  31.044  59.057  0.00  0.00    +0.120 HD
ENDBRANCH  13  18
BRANCH   3  21
ATOM     21  C   LIG    1       21.687  35.589  58.647  0.00  0.00    +0.044 C 
BRANCH  21  22
ATOM     22  C   LIG    1       22.544  36.729  58.160  0.00  0.00    -0.002 A 
ATOM     23  C   LIG    1       23.850  36.495  57.774  0.00  0.00    +0.052 A 
ATOM     24  C   LIG    1       24.639  37.544  57.325  0.00  0.00    +0.121 A 
ATOM     25  C   LIG    1       24.119  38.829  57.271  0.00  0.00    +0.049 A 
ATOM     26  C   LIG    1       22.811  39.062  57.651  0.00  0.00    +0.049 A 
ATOM     27  C   LIG    1       22.022  38.012  58.099  0.00  0.00    +0.123 A 
BRANCH  24  28
ATOM     28  O   LIG    1       25.924  37.314  56.946  0.00  0.00    -0.495 OA
ATOM     29  C   LIG    1       26.163  37.114  55.551  0.00  0.00    +0.277 C 
ENDBRANCH  24  28
BRANCH  27  30
ATOM     30  O   LIG    1       20.737  38.242  58.478  0.00  0.00    -0.495 OA
ATOM     31  C   LIG    1       19.769  38.386  57.437  0.00  0.00    +0.277 C 
ENDBRANCH  27  30
ENDBRANCH  21  22
ENDBRANCH   3  21
TORSDOF 6
