MODEL 1
REMARK VINA RESULT:      -6.1      0.000      0.000
REMARK  Name = ZINC00000751
REMARK                            x       y       z     vdW  Elec       q    Type
REMARK                         _______ _______ _______ _____ _____    ______ ____
ROOT
ATOM      1  C   LIG    1       24.925  31.637  55.452  0.00  0.00    +0.039 C 
ATOM      2  C   LIG    1       24.264  32.739  56.288  0.00  0.00    -0.067 C 
ATOM      3  N   LIG    1       22.809  32.740  56.017  0.00  0.00    +0.385 N 
ATOM      4  H   LIG    1       22.660  32.796  55.002  0.00  0.00    -0.081 HD
ATOM      5  C   LIG    1       22.191  31.498  56.524  0.00  0.00    -0.030 C 
ATOM      6  C   LIG    1       22.712  30.308  55.707  0.00  0.00    +0.064 C 
ATOM      7  C   LIG    1       20.692  31.565  56.396  0.00  0.00    -0.054 A 
ATOM      8  C   LIG    1       19.971  30.383  56.489  0.00  0.00    +0.051 A 
ATOM      9  C   LIG    1       18.592  30.392  56.379  0.00  0.00    +0.162 A 
ATOM     10  C   LIG    1       17.924  31.595  56.175  0.00  0.00    +0.162 A 
ATOM     11  C   LIG    1       18.646  32.772  56.082  0.00  0.00    +0.053 A 
ATOM     12  C   LIG    1       20.029  32.756  56.193  0.00  0.00    -0.044 A 
ATOM     13  C   LIG    1       20.773  34.063  56.082  0.00  0.00    +0.017 C 
ATOM     14  C   LIG    1       22.180  33.908  56.659  0.00  0.00    -0.073 C 
ATOM     15  C   LIG    1       24.225  30.328  55.756  0.00  0.00    +0.133 C 
ATOM     16  O   LIG    1       24.854  29.333  56.028  0.00  0.00    -0.297 OA
ENDROOT
BRANCH   9  17
ATOM     17  O   LIG    1       17.892  29.229  56.470  0.00  0.00    -0.491 OA
ATOM     18  C   LIG    1       18.082  28.274  55.425  0.00  0.00    +0.277 C 
ENDBRANCH   9  17
BRANCH  10  19
ATOM     19  O   LIG    1       16.569  31.615  56.065  0.00  0.00    -0.491 OA
ATOM     20  C   LIG    1       15.873  32.619  56.807  0.00  0.00    +0.277 C 
ENDBRANCH  10  19
BRANCH   1  21
ATOM     21  C   LIG    1       26.406  31.528  55.819  0.00  0.00    +0.012 C 
BRANCH  21  23
ATOM     22  C   LIG    1       28.616  32.688  55.727  0.00  0.00    +0.007 C 
ATOM     23  C   LIG    1       27.161  32.734  55.258  0.00  0.00    -0.017 C 
ATOM     24  C   LIG    1       27.117  32.698  53.730  0.00  0.00    +0.007 C 
ENDBRANCH  21  23
ENDBRANCH   1  21
TORSDOF 4
ENDMDL
MODEL 2
REMARK VINA RESULT:      -5.9      1.507      2.148
REMARK  Name = ZINC00000751
REMARK                            x       y       z     vdW  Elec       q    Type
REMARK                         _______ _______ _______ _____ _____    ______ ____
ROOT
ATOM      1  C   LIG    1       24.728  31.840  55.546  0.00  0.00    +0.039 C 
ATOM      2  C   LIG    1       23.609  32.456  56.394  0.00  0.00    -0.067 C 
ATOM      3  N   LIG    1       22.318  31.850  56.000  0.00  0.00    +0.385 N 
ATOM      4  H   LIG    1       22.208  31.934  54.982  0.00  0.00    -0.081 HD
ATOM      5  C   LIG    1       22.289  30.419  56.369  0.00  0.00    -0.030 C 
ATOM      6  C   LIG    1       23.320  29.662  55.522  0.00  0.00    +0.064 C 
ATOM      7  C   LIG    1       20.922  29.839  56.117  0.00  0.00    -0.054 A 
ATOM      8  C   LIG    1       20.794  28.457  56.069  0.00  0.00    +0.051 A 
ATOM      9  C   LIG    1       19.560  27.876  55.842  0.00  0.00    +0.162 A 
ATOM     10  C   LIG    1       18.439  28.681  55.663  0.00  0.00    +0.162 A 
ATOM     11  C   LIG    1       18.571  30.057  55.711  0.00  0.00    +0.053 A 
ATOM     12  C   LIG    1       19.812  30.635  55.938  0.00  0.00    -0.044 A 
ATOM     13  C   LIG    1       19.906  32.139  55.979  0.00  0.00    +0.017 C 
ATOM     14  C   LIG    1       21.208  32.558  56.663  0.00  0.00    -0.073 C 
ATOM     15  C   LIG    1       24.665  30.335  55.701  0.00  0.00    +0.133 C 
ATOM     16  O   LIG    1       25.654  29.692  55.958  0.00  0.00    -0.297 OA
ENDROOT
BRANCH   9  17
ATOM     17  O   LIG    1       19.442  26.521  55.796  0.00  0.00    -0.491 OA
ATOM     18  C   LIG    1       19.512  25.821  57.038  0.00  0.00    +0.277 C 
ENDBRANCH   9  17
BRANCH  10  19
ATOM     19  O   LIG    1       17.222  28.119  55.439  0.00  0.00    -0.491 OA
ATOM     20  C   LIG    1       16.079  28.961  55.602  0.00  0.00    +0.277 C 
ENDBRANCH  10  19
BRANCH   1  21
ATOM     21  C   LIG    1       26.085  32.352  56.031  0.00  0.00    +0.012 C 
BRANCH  21  23
ATOM     22  C   LIG    1       27.246  34.247  54.888  0.00  0.00    +0.007 C 
ATOM     23  C   LIG    1       26.941  32.749  54.826  0.00  0.00    -0.017 C 
ATOM     24  C   LIG    1       28.252  31.961  54.849  0.00  0.00    +0.007 C 
ENDBRANCH  21  23
ENDBRANCH   1  21
TORSDOF 4
ENDMDL
MODEL 3
REMARK VINA RESULT:      -5.7      2.198      2.512
REMARK  Name = ZINC00000751
REMARK                            x       y       z     vdW  Elec       q    Type
REMARK                         _______ _______ _______ _____ _____    ______ ____
ROOT
ATOM      1  C   LIG    1       24.915  32.007  55.693  0.00  0.00    +0.039 C 
ATOM      2  C   LIG    1       24.871  31.108  56.933  0.00  0.00    -0.067 C 
ATOM      3  N   LIG    1       23.463  30.944  57.359  0.00  0.00    +0.385 N 
ATOM      4  H   LIG    1       23.036  31.873  57.462  0.00  0.00    -0.081 HD
ATOM      5  C   LIG    1       22.707  30.179  56.346  0.00  0.00    -0.030 C 
ATOM      6  C   LIG    1       22.604  31.012  55.062  0.00  0.00    +0.064 C 
ATOM      7  C   LIG    1       21.320  29.870  56.846  0.00  0.00    -0.054 A 
ATOM      8  C   LIG    1       20.362  29.475  55.924  0.00  0.00    +0.051 A 
ATOM      9  C   LIG    1       19.074  29.180  56.333  0.00  0.00    +0.162 A 
ATOM     10  C   LIG    1       18.739  29.278  57.680  0.00  0.00    +0.162 A 
ATOM     11  C   LIG    1       19.697  29.673  58.597  0.00  0.00    +0.053 A 
ATOM     12  C   LIG    1       20.986  29.969  58.180  0.00  0.00    -0.044 A 
ATOM     13  C   LIG    1       21.995  30.398  59.215  0.00  0.00    +0.017 C 
ATOM     14  C   LIG    1       23.409  30.245  58.655  0.00  0.00    -0.073 C 
ATOM     15  C   LIG    1       24.004  31.407  54.641  0.00  0.00    +0.133 C 
ATOM     16  O   LIG    1       24.382  31.250  53.505  0.00  0.00    -0.297 OA
ENDROOT
BRANCH   9  17
ATOM     17  O   LIG    1       18.140  28.793  55.423  0.00  0.00    -0.491 OA
ATOM     18  C   LIG    1       18.261  27.474  54.890  0.00  0.00    +0.277 C 
ENDBRANCH   9  17
BRANCH  10  19
ATOM     19  O   LIG    1       17.476  28.990  58.093  0.00  0.00    -0.491 OA
ATOM     20  C   LIG    1       16.614  30.097  58.365  0.00  0.00    +0.277 C 
ENDBRANCH  10  19
BRANCH   1  21
ATOM     21  C   LIG    1       26.345  32.079  55.156  0.00  0.00    +0.012 C 
BRANCH  21  23
ATOM     22  C   LIG    1       28.663  32.803  55.743  0.00  0.00    +0.007 C 
ATOM     23  C   LIG    1       27.178  33.006  56.044  0.00  0.00    -0.017 C 
ATOM     24  C   LIG    1       26.796  34.461  55.763  0.00  0.00    +0.007 C 
ENDBRANCH  21  23
ENDBRANCH   1  21
TORSDOF 4
ENDMDL
MODEL 4
REMARK VINA RESULT:      -5.5      1.725      3.289
REMARK  Name = ZINC00000751
REMARK                            x       y       z     vdW  Elec       q    Type
REMARK                         _______ _______ _______ _____ _____    ______ ____
ROOT
ATOM      1  C   LIG    1       24.983  32.309  56.234  0.00  0.00    +0.039 C 
ATOM      2  C   LIG    1       24.730  31.499  54.957  0.00  0.00    -0.067 C 
ATOM      3  N   LIG    1       23.579  30.595  55.182  0.00  0.00    +0.385 N 
ATOM      4  H   LIG    1       23.746  30.049  56.036  0.00  0.00    -0.081 HD
ATOM      5  C   LIG    1       22.337  31.379  55.351  0.00  0.00    -0.030 C 
ATOM      6  C   LIG    1       22.426  32.185  56.653  0.00  0.00    +0.064 C 
ATOM      7  C   LIG    1       21.143  30.464  55.418  0.00  0.00    -0.054 A 
ATOM      8  C   LIG    1       19.952  30.974  55.916  0.00  0.00    +0.051 A 
ATOM      9  C   LIG    1       18.827  30.174  55.998  0.00  0.00    +0.162 A 
ATOM     10  C   LIG    1       18.889  28.849  55.575  0.00  0.00    +0.162 A 
ATOM     11  C   LIG    1       20.078  28.345  55.079  0.00  0.00    +0.053 A 
ATOM     12  C   LIG    1       21.203  29.151  55.001  0.00  0.00    -0.044 A 
ATOM     13  C   LIG    1       22.477  28.556  54.456  0.00  0.00    +0.017 C 
ATOM     14  C   LIG    1       23.435  29.672  54.042  0.00  0.00    -0.073 C 
ATOM     15  C   LIG    1       23.695  33.011  56.612  0.00  0.00    +0.133 C 
ATOM     16  O   LIG    1       23.680  34.190  56.872  0.00  0.00    -0.297 OA
ENDROOT
BRANCH   9  17
ATOM     17  O   LIG    1       17.663  30.680  56.488  0.00  0.00    -0.491 OA
ATOM     18  C   LIG    1       17.569  32.101  56.598  0.00  0.00    +0.277 C 
ENDBRANCH   9  17
BRANCH  10  19
ATOM     19  O   LIG    1       17.788  28.055  55.650  0.00  0.00    -0.491 OA
ATOM     20  C   LIG    1       17.956  26.769  56.250  0.00  0.00    +0.277 C 
ENDBRANCH  10  19
BRANCH   1  21
ATOM     21  C   LIG    1       26.079  33.345  55.979  0.00  0.00    +0.012 C 
BRANCH  21  23
ATOM     22  C   LIG    1       27.560  33.994  54.075  0.00  0.00    +0.007 C 
ATOM     23  C   LIG    1       27.036  32.822  54.906  0.00  0.00    -0.017 C 
ATOM     24  C   LIG    1       28.212  32.107  55.575  0.00  0.00    +0.007 C 
ENDBRANCH  21  23
ENDBRANCH   1  21
TORSDOF 4
ENDMDL
MODEL 5
REMARK VINA RESULT:      -5.4      2.280      7.296
REMARK  Name = ZINC00000751
REMARK                            x       y       z     vdW  Elec       q    Type
REMARK                         _______ _______ _______ _____ _____    ______ ____
ROOT
ATOM      1  C   LIG    1       18.436  33.607  55.772  0.00  0.00    +0.039 C 
ATOM      2  C   LIG    1       18.176  32.173  56.247  0.00  0.00    -0.067 C 
ATOM      3  N   LIG    1       19.337  31.329  55.886  0.00  0.00    +0.385 N 
ATOM      4  H   LIG    1       19.531  31.441  54.884  0.00  0.00    -0.081 HD
ATOM      5  C   LIG    1       20.530  31.742  56.655  0.00  0.00    -0.030 C 
ATOM      6  C   LIG    1       20.951  33.148  56.210  0.00  0.00    +0.064 C 
ATOM      7  C   LIG    1       21.669  30.787  56.411  0.00  0.00    -0.054 A 
ATOM      8  C   LIG    1       22.951  31.191  56.758  0.00  0.00    +0.051 A 
ATOM      9  C   LIG    1       24.030  30.350  56.555  0.00  0.00    +0.162 A 
ATOM     10  C   LIG    1       23.828  29.089  56.002  0.00  0.00    +0.162 A 
ATOM     11  C   LIG    1       22.549  28.689  55.658  0.00  0.00    +0.053 A 
ATOM     12  C   LIG    1       21.471  29.538  55.863  0.00  0.00    -0.044 A 
ATOM     13  C   LIG    1       20.096  29.060  55.469  0.00  0.00    +0.017 C 
ATOM     14  C   LIG    1       19.033  29.913  56.161  0.00  0.00    -0.073 C 
ATOM     15  C   LIG    1       19.756  34.067  56.355  0.00  0.00    +0.133 C 
ATOM     16  O   LIG    1       19.852  35.132  56.916  0.00  0.00    -0.297 OA
ENDROOT
BRANCH   9  17
ATOM     17  O   LIG    1       25.284  30.753  56.896  0.00  0.00    -0.491 OA
ATOM     18  C   LIG    1       25.891  31.750  56.073  0.00  0.00    +0.277 C 
ENDBRANCH   9  17
BRANCH  10  19
ATOM     19  O   LIG    1       24.882  28.254  55.799  0.00  0.00    -0.491 OA
ATOM     20  C   LIG    1       24.656  27.114  54.968  0.00  0.00    +0.277 C 
ENDBRANCH  10  19
BRANCH   1  21
ATOM     21  C   LIG    1       17.311  34.523  56.254  0.00  0.00    +0.012 C 
BRANCH  21  23
ATOM     22  C   LIG    1       16.866  34.679  58.708  0.00  0.00    +0.007 C 
ATOM     23  C   LIG    1       16.593  33.872  57.438  0.00  0.00    -0.017 C 
ATOM     24  C   LIG    1       15.087  33.841  57.167  0.00  0.00    +0.007 C 
ENDBRANCH  21  23
ENDBRANCH   1  21
TORSDOF 4
ENDMDL
