REMARK VINA RESULT:      -5.3      1.767      2.654
REMARK  Name = ZINC00001021
REMARK                            x       y       z     vdW  Elec       q    Type
REMARK                         _______ _______ _______ _____ _____    ______ ____
ROOT
ATOM      1  O   LIG    1       23.844  31.338  54.201  0.00  0.00    -0.456 OA
ENDROOT
BRANCH   1   2
ATOM      2  C   LIG    1       22.873  30.407  54.129  0.00  0.00    +0.339 C 
ATOM      3  O   LIG    1       23.055  29.387  53.494  0.00  0.00    -0.245 OA
BRANCH   2   4
ATOM      4  C   LIG    1       21.586  30.626  54.822  0.00  0.00    +0.059 A 
ATOM      5  C   LIG    1       21.180  31.920  55.153  0.00  0.00    +0.015 A 
ATOM      6  C   LIG    1       19.978  32.117  55.800  0.00  0.00    +0.001 A 
ATOM      7  C   LIG    1       19.176  31.036  56.121  0.00  0.00    +0.000 A 
ATOM      8  C   LIG    1       19.573  29.750  55.797  0.00  0.00    +0.001 A 
ATOM      9  C   LIG    1       20.770  29.540  55.144  0.00  0.00    +0.015 A 
ENDBRANCH   2   4
ENDBRANCH   1   2
BRANCH   1  10
ATOM     10  C   LIG    1       24.805  31.193  55.249  0.00  0.00    +0.268 C 
BRANCH  10  14
ATOM     11  C   LIG    1       27.582  34.435  55.092  0.00  0.00    +0.000 A 
ATOM     12  C   LIG    1       26.648  34.374  56.110  0.00  0.00    +0.000 A 
ATOM     13  C   LIG    1       25.749  33.325  56.160  0.00  0.00    +0.007 A 
ATOM     14  C   LIG    1       25.784  32.338  55.194  0.00  0.00    -0.010 A 
ATOM     15  C   LIG    1       26.718  32.399  54.176  0.00  0.00    +0.007 A 
ATOM     16  C   LIG    1       27.617  33.448  54.126  0.00  0.00    +0.000 A 
ENDBRANCH  10  14
ENDBRANCH   1  10
TORSDOF 4
