REMARK VINA RESULT:      -5.2      1.670      2.213
REMARK  Name = ZINC00001021
REMARK                            x       y       z     vdW  Elec       q    Type
REMARK                         _______ _______ _______ _____ _____    ______ ____
ROOT
ATOM      1  O   LIG    1       24.638  30.391  55.460  0.00  0.00    -0.456 OA
ENDROOT
BRANCH   1   2
ATOM      2  C   LIG    1       23.638  30.590  54.579  0.00  0.00    +0.339 C 
ATOM      3  O   LIG    1       23.873  31.085  53.495  0.00  0.00    -0.245 OA
BRANCH   2   4
ATOM      4  C   LIG    1       22.255  30.206  54.931  0.00  0.00    +0.059 A 
ATOM      5  C   LIG    1       21.860  28.868  54.861  0.00  0.00    +0.015 A 
ATOM      6  C   LIG    1       20.567  28.518  55.190  0.00  0.00    +0.001 A 
ATOM      7  C   LIG    1       19.664  29.487  55.590  0.00  0.00    +0.000 A 
ATOM      8  C   LIG    1       20.049  30.814  55.660  0.00  0.00    +0.001 A 
ATOM      9  C   LIG    1       21.340  31.178  55.340  0.00  0.00    +0.015 A 
ENDBRANCH   2   4
ENDBRANCH   1   2
BRANCH   1  10
ATOM     10  C   LIG    1       24.902  31.444  56.389  0.00  0.00    +0.268 C 
BRANCH  10  14
ATOM     11  C   LIG    1       28.109  33.857  54.927  0.00  0.00    +0.000 A 
ATOM     12  C   LIG    1       28.172  32.481  54.812  0.00  0.00    +0.000 A 
ATOM     13  C   LIG    1       27.134  31.700  55.285  0.00  0.00    +0.007 A 
ATOM     14  C   LIG    1       26.034  32.295  55.874  0.00  0.00    -0.010 A 
ATOM     15  C   LIG    1       25.972  33.671  55.990  0.00  0.00    +0.007 A 
ATOM     16  C   LIG    1       27.009  34.452  55.516  0.00  0.00    +0.000 A 
ENDBRANCH  10  14
ENDBRANCH   1  10
TORSDOF 4
