REMARK VINA RESULT:      -5.2      1.040      5.068
REMARK  Name = ZINC00001021
REMARK                            x       y       z     vdW  Elec       q    Type
REMARK                         _______ _______ _______ _____ _____    ______ ____
ROOT
ATOM      1  O   LIG    1       24.366  31.238  57.422  0.00  0.00    -0.456 OA
ENDROOT
BRANCH   1   2
ATOM      2  C   LIG    1       25.242  30.916  56.451  0.00  0.00    +0.339 C 
ATOM      3  O   LIG    1       25.254  29.792  55.991  0.00  0.00    -0.245 OA
BRANCH   2   4
ATOM      4  C   LIG    1       26.190  31.931  55.945  0.00  0.00    +0.059 A 
ATOM      5  C   LIG    1       27.403  31.536  55.377  0.00  0.00    +0.015 A 
ATOM      6  C   LIG    1       28.282  32.488  54.907  0.00  0.00    +0.001 A 
ATOM      7  C   LIG    1       27.966  33.832  54.998  0.00  0.00    +0.000 A 
ATOM      8  C   LIG    1       26.766  34.231  55.561  0.00  0.00    +0.001 A 
ATOM      9  C   LIG    1       25.874  33.289  56.029  0.00  0.00    +0.015 A 
ENDBRANCH   2   4
ENDBRANCH   1   2
BRANCH   1  10
ATOM     10  C   LIG    1       22.998  30.886  57.204  0.00  0.00    +0.268 C 
BRANCH  10  14
ATOM     11  C   LIG    1       20.836  34.324  55.882  0.00  0.00    +0.000 A 
ATOM     12  C   LIG    1       21.762  34.440  56.902  0.00  0.00    +0.000 A 
ATOM     13  C   LIG    1       22.461  33.327  57.330  0.00  0.00    +0.007 A 
ATOM     14  C   LIG    1       22.235  32.099  56.739  0.00  0.00    -0.010 A 
ATOM     15  C   LIG    1       21.309  31.983  55.718  0.00  0.00    +0.007 A 
ATOM     16  C   LIG    1       20.611  33.096  55.290  0.00  0.00    +0.000 A 
ENDBRANCH  10  14
ENDBRANCH   1  10
TORSDOF 4
