REMARK VINA RESULT:      -5.2      3.671      5.227
REMARK  Name = ZINC00001021
REMARK                            x       y       z     vdW  Elec       q    Type
REMARK                         _______ _______ _______ _____ _____    ______ ____
ROOT
ATOM      1  O   LIG    1       26.184  35.776  56.685  0.00  0.00    -0.456 OA
ENDROOT
BRANCH   1   2
ATOM      2  C   LIG    1       25.728  37.039  56.785  0.00  0.00    +0.339 C 
ATOM      3  O   LIG    1       26.495  37.974  56.669  0.00  0.00    -0.245 OA
BRANCH   2   4
ATOM      4  C   LIG    1       24.293  37.288  57.037  0.00  0.00    +0.059 A 
ATOM      5  C   LIG    1       23.409  36.217  57.177  0.00  0.00    +0.015 A 
ATOM      6  C   LIG    1       22.071  36.457  57.411  0.00  0.00    +0.001 A 
ATOM      7  C   LIG    1       21.605  37.756  57.507  0.00  0.00    +0.000 A 
ATOM      8  C   LIG    1       22.475  38.823  57.368  0.00  0.00    +0.001 A 
ATOM      9  C   LIG    1       23.816  38.597  57.139  0.00  0.00    +0.015 A 
ENDBRANCH   2   4
ENDBRANCH   1   2
BRANCH   1  10
ATOM     10  C   LIG    1       26.817  35.410  55.457  0.00  0.00    +0.268 C 
BRANCH  10  14
ATOM     11  C   LIG    1       27.496  31.193  55.403  0.00  0.00    +0.000 A 
ATOM     12  C   LIG    1       26.226  31.686  55.640  0.00  0.00    +0.000 A 
ATOM     13  C   LIG    1       26.007  33.051  55.658  0.00  0.00    +0.007 A 
ATOM     14  C   LIG    1       27.057  33.922  55.439  0.00  0.00    -0.010 A 
ATOM     15  C   LIG    1       28.327  33.429  55.202  0.00  0.00    +0.007 A 
ATOM     16  C   LIG    1       28.545  32.065  55.183  0.00  0.00    +0.000 A 
ENDBRANCH  10  14
ENDBRANCH   1  10
TORSDOF 4
