MODEL 1
REMARK VINA RESULT:      -5.9      0.000      0.000
REMARK  Name = ZINC00000640
REMARK                            x       y       z     vdW  Elec       q    Type
REMARK                         _______ _______ _______ _____ _____    ______ ____
ROOT
ATOM      1  C   LIG    1       22.505  28.869  58.072  0.00  0.00    +0.008 C 
ATOM      2  C   LIG    1       22.565  29.334  56.639  0.00  0.00    -0.001 C 
ATOM      3  C   LIG    1       21.696  28.841  55.701  0.00  0.00    +0.011 C 
ATOM      4  C   LIG    1       21.775  29.281  54.386  0.00  0.00    +0.086 C 
ATOM      5  N   LIG    1       22.666  30.171  54.006  0.00  0.00    -0.301 NA
ATOM      6  H   LIG    1       22.142  30.954  53.615  0.00  0.00    +0.123 HD
ATOM      7  C   LIG    1       23.534  30.693  54.873  0.00  0.00    +0.130 C 
ATOM      8  N   LIG    1       24.445  31.628  54.429  0.00  0.00    -0.274 NA
ATOM      9  H   LIG    1       23.924  32.418  54.047  0.00  0.00    +0.126 HD
ATOM     10  C   LIG    1       25.294  32.102  55.374  0.00  0.00    +0.194 C 
ATOM     11  N   LIG    1       25.308  31.738  56.654  0.00  0.00    -0.274 NA
ATOM     12  H   LIG    1       25.982  32.155  57.264  0.00  0.00    +0.126 HD
ATOM     13  C   LIG    1       24.453  30.842  57.123  0.00  0.00    +0.127 C 
ATOM     14  C   LIG    1       23.509  30.281  56.228  0.00  0.00    +0.055 C 
ENDROOT
BRANCH  10  15
ATOM     15  N   LIG    1       26.212  33.041  54.943  0.00  0.00    -0.303 NA
ATOM     16  H   LIG    1       25.958  33.697  54.275  0.00  0.00    +0.121 HD
ATOM     17  H   LIG    1       27.111  33.043  55.308  0.00  0.00    +0.121 HD
ENDBRANCH  10  15
BRANCH  13  18
ATOM     18  N   LIG    1       24.475  30.472  58.450  0.00  0.00    -0.315 NA
ATOM     19  H   LIG    1       23.758  30.747  59.043  0.00  0.00    +0.120 HD
ATOM     20  H   LIG    1       25.208  29.937  58.792  0.00  0.00    +0.120 HD
ENDBRANCH  13  18
BRANCH   3  21
ATOM     21  C   LIG    1       20.656  27.824  56.096  0.00  0.00    +0.044 C 
BRANCH  21  22
ATOM     22  C   LIG    1       19.283  28.431  55.955  0.00  0.00    -0.002 A 
ATOM     23  C   LIG    1       19.016  29.669  56.506  0.00  0.00    +0.052 A 
ATOM     24  C   LIG    1       17.754  30.228  56.377  0.00  0.00    +0.121 A 
ATOM     25  C   LIG    1       16.757  29.539  55.701  0.00  0.00    +0.049 A 
ATOM     26  C   LIG    1       17.025  28.304  55.146  0.00  0.00    +0.049 A 
ATOM     27  C   LIG    1       18.288  27.746  55.275  0.00  0.00    +0.123 A 
BRANCH  24  28
ATOM     28  O   LIG    1       17.490  31.447  56.919  0.00  0.00    -0.495 OA
ATOM     29  C   LIG    1       16.314  32.119  56.465  0.00  0.00    +0.277 C 
ENDBRANCH  24  28
BRANCH  27  30
ATOM     30  O   LIG    1       18.551  26.526  54.733  0.00  0.00    -0.495 OA
ATOM     31  C   LIG    1       17.959  25.392  55.369  0.00  0.00    +0.277 C 
ENDBRANCH  27  30
ENDBRANCH  21  22
ENDBRANCH   3  21
TORSDOF 6
ENDMDL
MODEL 2
REMARK VINA RESULT:      -5.5      1.309      3.041
REMARK  Name = ZINC00000640
REMARK                            x       y       z     vdW  Elec       q    Type
REMARK                         _______ _______ _______ _____ _____    ______ ____
ROOT
ATOM      1  C   LIG    1       21.657  30.247  58.884  0.00  0.00    +0.008 C 
ATOM      2  C   LIG    1       21.677  30.782  57.475  0.00  0.00    -0.001 C 
ATOM      3  C   LIG    1       20.515  30.956  56.771  0.00  0.00    +0.011 C 
ATOM      4  C   LIG    1       20.560  31.445  55.471  0.00  0.00    +0.086 C 
ATOM      5  N   LIG    1       21.697  31.756  54.888  0.00  0.00    -0.301 NA
ATOM      6  H   LIG    1       21.628  32.739  54.626  0.00  0.00    +0.123 HD
ATOM      7  C   LIG    1       22.861  31.615  55.523  0.00  0.00    +0.130 C 
ATOM      8  N   LIG    1       24.026  31.960  54.873  0.00  0.00    -0.274 NA
ATOM      9  H   LIG    1       23.965  32.946  54.620  0.00  0.00    +0.126 HD
ATOM     10  C   LIG    1       25.164  31.780  55.589  0.00  0.00    +0.194 C 
ATOM     11  N   LIG    1       25.229  31.309  56.831  0.00  0.00    -0.274 NA
ATOM     12  H   LIG    1       26.126  31.217  57.263  0.00  0.00    +0.126 HD
ATOM     13  C   LIG    1       24.136  30.962  57.494  0.00  0.00    +0.127 C 
ATOM     14  C   LIG    1       22.883  31.115  56.848  0.00  0.00    +0.055 C 
ENDROOT
BRANCH  10  15
ATOM     15  N   LIG    1       26.340  32.123  54.949  0.00  0.00    -0.303 NA
ATOM     16  H   LIG    1       26.453  33.016  54.586  0.00  0.00    +0.121 HD
ATOM     17  H   LIG    1       27.052  31.471  54.861  0.00  0.00    +0.121 HD
ENDBRANCH  10  15
BRANCH  13  18
ATOM     18  N   LIG    1       24.213  30.476  58.780  0.00  0.00    -0.315 NA
ATOM     19  H   LIG    1       23.987  29.550  58.963  0.00  0.00    +0.120 HD
ATOM     20  H   LIG    1       24.491  31.059  59.503  0.00  0.00    +0.120 HD
ENDBRANCH  13  18
BRANCH   3  21
ATOM     21  C   LIG    1       19.190  30.618  57.404  0.00  0.00    +0.044 C 
BRANCH  21  22
ATOM     22  C   LIG    1       18.529  29.510  56.625  0.00  0.00    -0.002 A 
ATOM     23  C   LIG    1       19.127  28.266  56.553  0.00  0.00    +0.052 A 
ATOM     24  C   LIG    1       18.520  27.246  55.835  0.00  0.00    +0.121 A 
ATOM     25  C   LIG    1       17.317  27.477  55.185  0.00  0.00    +0.049 A 
ATOM     26  C   LIG    1       16.717  28.718  55.262  0.00  0.00    +0.049 A 
ATOM     27  C   LIG    1       17.324  29.738  55.979  0.00  0.00    +0.123 A 
BRANCH  24  28
ATOM     28  O   LIG    1       19.108  26.022  55.764  0.00  0.00    -0.495 OA
ATOM     29  C   LIG    1       18.279  24.925  55.373  0.00  0.00    +0.277 C 
ENDBRANCH  24  28
BRANCH  27  30
ATOM     30  O   LIG    1       16.736  30.963  56.051  0.00  0.00    -0.495 OA
ATOM     31  C   LIG    1       15.539  31.063  56.825  0.00  0.00    +0.277 C 
ENDBRANCH  27  30
ENDBRANCH  21  22
ENDBRANCH   3  21
TORSDOF 6
ENDMDL
MODEL 3
REMARK VINA RESULT:      -5.5      3.903      7.478
REMARK  Name = ZINC00000640
REMARK                            x       y       z     vdW  Elec       q    Type
REMARK                         _______ _______ _______ _____ _____    ______ ____
ROOT
ATOM      1  C   LIG    1       24.181  30.773  58.298  0.00  0.00    +0.008 C 
ATOM      2  C   LIG    1       23.588  30.890  56.918  0.00  0.00    -0.001 C 
ATOM      3  C   LIG    1       24.386  31.080  55.821  0.00  0.00    +0.011 C 
ATOM      4  C   LIG    1       23.814  31.191  54.560  0.00  0.00    +0.086 C 
ATOM      5  N   LIG    1       22.513  31.113  54.380  0.00  0.00    -0.301 NA
ATOM      6  H   LIG    1       22.357  30.339  53.735  0.00  0.00    +0.123 HD
ATOM      7  C   LIG    1       21.685  30.924  55.407  0.00  0.00    +0.130 C 
ATOM      8  N   LIG    1       20.329  30.842  55.168  0.00  0.00    -0.274 NA
ATOM      9  H   LIG    1       20.168  30.062  54.532  0.00  0.00    +0.126 HD
ATOM     10  C   LIG    1       19.558  30.654  56.268  0.00  0.00    +0.194 C 
ATOM     11  N   LIG    1       20.005  30.548  57.517  0.00  0.00    -0.274 NA
ATOM     12  H   LIG    1       19.343  30.410  58.254  0.00  0.00    +0.126 HD
ATOM     13  C   LIG    1       21.298  30.621  57.793  0.00  0.00    +0.127 C 
ATOM     14  C   LIG    1       22.205  30.808  56.719  0.00  0.00    +0.055 C 
ENDROOT
BRANCH  10  15
ATOM     15  N   LIG    1       18.197  30.571  56.044  0.00  0.00    -0.303 NA
ATOM     16  H   LIG    1       17.717  31.336  55.688  0.00  0.00    +0.121 HD
ATOM     17  H   LIG    1       17.722  29.750  56.242  0.00  0.00    +0.121 HD
ENDBRANCH  10  15
BRANCH  13  18
ATOM     18  N   LIG    1       21.752  30.509  59.089  0.00  0.00    -0.315 NA
ATOM     19  H   LIG    1       21.886  31.305  59.627  0.00  0.00    +0.120 HD
ATOM     20  H   LIG    1       21.940  29.634  59.463  0.00  0.00    +0.120 HD
ENDBRANCH  13  18
BRANCH   3  21
ATOM     21  C   LIG    1       25.882  31.167  55.981  0.00  0.00    +0.044 C 
BRANCH  21  22
ATOM     22  C   LIG    1       26.334  32.580  55.709  0.00  0.00    -0.002 A 
ATOM     23  C   LIG    1       25.688  33.640  56.316  0.00  0.00    +0.052 A 
ATOM     24  C   LIG    1       26.103  34.939  56.065  0.00  0.00    +0.121 A 
ATOM     25  C   LIG    1       27.161  35.174  55.200  0.00  0.00    +0.049 A 
ATOM     26  C   LIG    1       27.810  34.114  54.598  0.00  0.00    +0.049 A 
ATOM     27  C   LIG    1       27.395  32.815  54.849  0.00  0.00    +0.123 A 
BRANCH  24  28
ATOM     28  O   LIG    1       25.467  35.983  56.662  0.00  0.00    -0.495 OA
ATOM     29  C   LIG    1       25.781  37.293  56.185  0.00  0.00    +0.277 C 
ENDBRANCH  24  28
BRANCH  27  30
ATOM     30  O   LIG    1       28.031  31.771  54.251  0.00  0.00    -0.495 OA
ATOM     31  C   LIG    1       29.036  31.102  55.015  0.00  0.00    +0.277 C 
ENDBRANCH  27  30
ENDBRANCH  21  22
ENDBRANCH   3  21
TORSDOF 6
ENDMDL
MODEL 4
REMARK VINA RESULT:      -5.4      5.268      7.780
REMARK  Name = ZINC00000640
REMARK                            x       y       z     vdW  Elec       q    Type
REMARK                         _______ _______ _______ _____ _____    ______ ____
ROOT
ATOM      1  C   LIG    1       19.363  36.187  57.699  0.00  0.00    +0.008 C 
ATOM      2  C   LIG    1       18.678  35.024  57.029  0.00  0.00    -0.001 C 
ATOM      3  C   LIG    1       19.392  34.110  56.299  0.00  0.00    +0.011 C 
ATOM      4  C   LIG    1       18.736  33.050  55.687  0.00  0.00    +0.086 C 
ATOM      5  N   LIG    1       17.435  32.888  55.790  0.00  0.00    -0.301 NA
ATOM      6  H   LIG    1       17.291  31.967  56.204  0.00  0.00    +0.123 HD
ATOM      7  C   LIG    1       16.686  33.739  56.491  0.00  0.00    +0.130 C 
ATOM      8  N   LIG    1       15.327  33.524  56.576  0.00  0.00    -0.274 NA
ATOM      9  H   LIG    1       15.179  32.608  57.000  0.00  0.00    +0.126 HD
ATOM     10  C   LIG    1       14.641  34.440  57.304  0.00  0.00    +0.194 C 
ATOM     11  N   LIG    1       15.171  35.494  57.918  0.00  0.00    -0.274 NA
ATOM     12  H   LIG    1       14.567  36.106  58.429  0.00  0.00    +0.126 HD
ATOM     13  C   LIG    1       16.471  35.741  57.862  0.00  0.00    +0.127 C 
ATOM     14  C   LIG    1       17.294  34.844  57.135  0.00  0.00    +0.055 C 
ENDROOT
BRANCH  10  15
ATOM     15  N   LIG    1       13.277  34.237  57.398  0.00  0.00    -0.303 NA
ATOM     16  H   LIG    1       12.747  34.122  56.592  0.00  0.00    +0.121 HD
ATOM     17  H   LIG    1       12.849  34.209  58.267  0.00  0.00    +0.121 HD
ENDBRANCH  10  15
BRANCH  13  18
ATOM     18  N   LIG    1       17.011  36.835  58.502  0.00  0.00    -0.315 NA
ATOM     19  H   LIG    1       16.533  37.254  59.235  0.00  0.00    +0.120 HD
ATOM     20  H   LIG    1       17.870  37.187  58.219  0.00  0.00    +0.120 HD
ENDBRANCH  13  18
BRANCH   3  21
ATOM     21  C   LIG    1       20.886  34.255  56.161  0.00  0.00    +0.044 C 
BRANCH  21  22
ATOM     22  C   LIG    1       21.568  33.135  56.905  0.00  0.00    -0.002 A 
ATOM     23  C   LIG    1       21.633  33.162  58.285  0.00  0.00    +0.052 A 
ATOM     24  C   LIG    1       22.261  32.133  58.969  0.00  0.00    +0.121 A 
ATOM     25  C   LIG    1       22.831  31.080  58.268  0.00  0.00    +0.049 A 
ATOM     26  C   LIG    1       22.762  31.052  56.890  0.00  0.00    +0.049 A 
ATOM     27  C   LIG    1       22.134  32.081  56.205  0.00  0.00    +0.123 A 
BRANCH  24  28
ATOM     28  O   LIG    1       22.324  32.158  60.327  0.00  0.00    -0.495 OA
ATOM     29  C   LIG    1       22.933  31.036  60.970  0.00  0.00    +0.277 C 
ENDBRANCH  24  28
BRANCH  27  30
ATOM     30  O   LIG    1       22.071  32.055  54.846  0.00  0.00    -0.495 OA
ATOM     31  C   LIG    1       21.503  30.890  54.246  0.00  0.00    +0.277 C 
ENDBRANCH  27  30
ENDBRANCH  21  22
ENDBRANCH   3  21
TORSDOF 6
ENDMDL
MODEL 5
REMARK VINA RESULT:      -5.4      4.880      7.359
REMARK  Name = ZINC00000640
REMARK                            x       y       z     vdW  Elec       q    Type
REMARK                         _______ _______ _______ _____ _____    ______ ____
ROOT
ATOM      1  C   LIG    1       22.990  32.247  56.356  0.00  0.00    +0.008 C 
ATOM      2  C   LIG    1       22.291  32.473  57.672  0.00  0.00    -0.001 C 
ATOM      3  C   LIG    1       21.303  33.415  57.793  0.00  0.00    +0.011 C 
ATOM      4  C   LIG    1       20.678  33.608  59.018  0.00  0.00    +0.086 C 
ATOM      5  N   LIG    1       21.003  32.904  60.081  0.00  0.00    -0.301 NA
ATOM      6  H   LIG    1       20.151  32.435  60.387  0.00  0.00    +0.123 HD
ATOM      7  C   LIG    1       21.951  31.969  60.025  0.00  0.00    +0.130 C 
ATOM      8  N   LIG    1       22.253  31.251  61.163  0.00  0.00    -0.274 NA
ATOM      9  H   LIG    1       21.406  30.771  61.466  0.00  0.00    +0.126 HD
ATOM     10  C   LIG    1       23.233  30.324  61.020  0.00  0.00    +0.194 C 
ATOM     11  N   LIG    1       23.899  30.071  59.897  0.00  0.00    -0.274 NA
ATOM     12  H   LIG    1       24.605  29.362  59.907  0.00  0.00    +0.126 HD
ATOM     13  C   LIG    1       23.645  30.736  58.781  0.00  0.00    +0.127 C 
ATOM     14  C   LIG    1       22.631  31.727  58.806  0.00  0.00    +0.055 C 
ENDROOT
BRANCH  10  15
ATOM     15  N   LIG    1       23.546  29.598  62.153  0.00  0.00    -0.303 NA
ATOM     16  H   LIG    1       22.937  29.593  62.910  0.00  0.00    +0.121 HD
ATOM     17  H   LIG    1       24.372  29.093  62.193  0.00  0.00    +0.121 HD
ENDBRANCH  10  15
BRANCH  13  18
ATOM     18  N   LIG    1       24.340  30.467  57.622  0.00  0.00    -0.315 NA
ATOM     19  H   LIG    1       25.299  30.605  57.589  0.00  0.00    +0.120 HD
ATOM     20  H   LIG    1       23.869  30.140  56.840  0.00  0.00    +0.120 HD
ENDBRANCH  13  18
BRANCH   3  21
ATOM     21  C   LIG    1       20.896  34.239  56.599  0.00  0.00    +0.044 C 
BRANCH  21  22
ATOM     22  C   LIG    1       21.137  35.698  56.891  0.00  0.00    -0.002 A 
ATOM     23  C   LIG    1       22.430  36.181  56.969  0.00  0.00    +0.052 A 
ATOM     24  C   LIG    1       22.653  37.523  57.237  0.00  0.00    +0.121 A 
ATOM     25  C   LIG    1       21.579  38.379  57.435  0.00  0.00    +0.049 A 
ATOM     26  C   LIG    1       20.288  37.897  57.352  0.00  0.00    +0.049 A 
ATOM     27  C   LIG    1       20.065  36.555  57.083  0.00  0.00    +0.123 A 
BRANCH  24  28
ATOM     28  O   LIG    1       23.924  37.999  57.315  0.00  0.00    -0.495 OA
ATOM     29  C   LIG    1       24.680  38.033  56.102  0.00  0.00    +0.277 C 
ENDBRANCH  24  28
BRANCH  27  30
ATOM     30  O   LIG    1       18.792  36.079  57.006  0.00  0.00    -0.495 OA
ATOM     31  C   LIG    1       17.939  36.327  58.125  0.00  0.00    +0.277 C 
ENDBRANCH  27  30
ENDBRANCH  21  22
ENDBRANCH   3  21
TORSDOF 6
ENDMDL
