MODEL 1
REMARK VINA RESULT:      -5.7      0.000      0.000
REMARK  Name = ZINC00000941
REMARK                            x       y       z     vdW  Elec       q    Type
REMARK                         _______ _______ _______ _____ _____    ______ ____
ROOT
ATOM      1  C   LIG    1       25.786  32.499  55.695  0.00  0.00    -0.027 A 
ATOM      2  C   LIG    1       25.732  31.120  55.617  0.00  0.00    +0.010 A 
ATOM      3  C   LIG    1       24.571  30.454  55.963  0.00  0.00    -0.025 A 
ATOM      4  C   LIG    1       23.465  31.167  56.386  0.00  0.00    +0.010 A 
ATOM      5  C   LIG    1       23.519  32.545  56.464  0.00  0.00    -0.027 A 
ATOM      6  C   LIG    1       24.682  33.211  56.123  0.00  0.00    +0.010 A 
ENDROOT
BRANCH   1   8
ATOM      7  C   LIG    1       27.392  32.934  53.855  0.00  0.00    +0.032 C 
ATOM      8  C   LIG    1       27.052  33.225  55.319  0.00  0.00    +0.077 C 
ATOM      9  C   LIG    1       28.199  32.749  56.213  0.00  0.00    +0.032 C 
BRANCH   8  10
ATOM     10  C   LIG    1       26.859  34.673  55.499  0.00  0.00    +0.073 C 
ATOM     11  N   LIG    1       26.709  35.791  55.637  0.00  0.00    -0.196 NA
ENDBRANCH   8  10
ENDBRANCH   1   8
BRANCH   5  12
ATOM     12  C   LIG    1       22.314  33.322  56.925  0.00  0.00    +0.077 C 
ATOM     13  C   LIG    1       22.731  34.753  57.274  0.00  0.00    +0.032 C 
ATOM     14  C   LIG    1       21.715  32.650  58.162  0.00  0.00    +0.032 C 
BRANCH  12  15
ATOM     15  C   LIG    1       21.309  33.353  55.849  0.00  0.00    +0.073 C 
ATOM     16  N   LIG    1       20.534  33.377  55.020  0.00  0.00    -0.196 NA
ENDBRANCH  12  15
ENDBRANCH   5  12
BRANCH   3  17
ATOM     17  C   LIG    1       24.511  28.950  55.876  0.00  0.00    +0.180 C 
BRANCH  17  18
ATOM     18  N   LIG    1       23.116  28.511  55.969  0.00  0.00    -0.248 N 
ATOM     19  C   LIG    1       22.544  27.853  56.992  0.00  0.00    +0.219 A 
ATOM     20  N   LIG    1       21.288  27.645  56.690  0.00  0.00    -0.223 NA
ATOM     21  C   LIG    1       21.022  28.153  55.487  0.00  0.00    +0.245 A 
ATOM     22  N   LIG    1       22.109  28.699  55.008  0.00  0.00    -0.158 NA
ENDBRANCH  17  18
ENDBRANCH   3  17
TORSDOF 6
ENDMDL
MODEL 2
REMARK VINA RESULT:      -5.5      2.495      5.455
REMARK  Name = ZINC00000941
REMARK                            x       y       z     vdW  Elec       q    Type
REMARK                         _______ _______ _______ _____ _____    ______ ____
ROOT
ATOM      1  C   LIG    1       22.911  30.675  58.679  0.00  0.00    -0.027 A 
ATOM      2  C   LIG    1       24.042  30.437  57.921  0.00  0.00    +0.010 A 
ATOM      3  C   LIG    1       24.340  31.255  56.848  0.00  0.00    -0.025 A 
ATOM      4  C   LIG    1       23.507  32.313  56.533  0.00  0.00    +0.010 A 
ATOM      5  C   LIG    1       22.376  32.551  57.291  0.00  0.00    -0.027 A 
ATOM      6  C   LIG    1       22.075  31.729  58.361  0.00  0.00    +0.010 A 
ENDROOT
BRANCH   1   8
ATOM      7  C   LIG    1       22.797  28.321  59.449  0.00  0.00    +0.032 C 
ATOM      8  C   LIG    1       22.586  29.783  59.849  0.00  0.00    +0.077 C 
ATOM      9  C   LIG    1       21.127  29.993  60.262  0.00  0.00    +0.032 C 
BRANCH   8  10
ATOM     10  C   LIG    1       23.468  30.114  60.980  0.00  0.00    +0.073 C 
ATOM     11  N   LIG    1       24.148  30.371  61.853  0.00  0.00    -0.196 NA
ENDBRANCH   8  10
ENDBRANCH   1   8
BRANCH   5  12
ATOM     12  C   LIG    1       21.469  33.704  56.947  0.00  0.00    +0.077 C 
ATOM     13  C   LIG    1       22.271  35.008  56.966  0.00  0.00    +0.032 C 
ATOM     14  C   LIG    1       20.337  33.787  57.974  0.00  0.00    +0.032 C 
BRANCH  12  15
ATOM     15  C   LIG    1       20.899  33.498  55.605  0.00  0.00    +0.073 C 
ATOM     16  N   LIG    1       20.460  33.339  54.571  0.00  0.00    -0.196 NA
ENDBRANCH  12  15
ENDBRANCH   5  12
BRANCH   3  17
ATOM     17  C   LIG    1       25.574  30.996  56.022  0.00  0.00    +0.180 C 
BRANCH  17  18
ATOM     18  N   LIG    1       26.325  32.244  55.861  0.00  0.00    -0.248 N 
ATOM     19  C   LIG    1       26.981  32.919  56.820  0.00  0.00    +0.219 A 
ATOM     20  N   LIG    1       27.521  33.979  56.273  0.00  0.00    -0.223 NA
ATOM     21  C   LIG    1       27.232  34.013  54.972  0.00  0.00    +0.245 A 
ATOM     22  N   LIG    1       26.506  32.969  54.672  0.00  0.00    -0.158 NA
ENDBRANCH  17  18
ENDBRANCH   3  17
TORSDOF 6
ENDMDL
MODEL 3
REMARK VINA RESULT:      -5.5      2.535      5.742
REMARK  Name = ZINC00000941
REMARK                            x       y       z     vdW  Elec       q    Type
REMARK                         _______ _______ _______ _____ _____    ______ ____
ROOT
ATOM      1  C   LIG    1       22.372  32.501  57.365  0.00  0.00    -0.027 A 
ATOM      2  C   LIG    1       23.447  32.184  56.557  0.00  0.00    +0.010 A 
ATOM      3  C   LIG    1       24.254  31.107  56.871  0.00  0.00    -0.025 A 
ATOM      4  C   LIG    1       23.986  30.347  57.994  0.00  0.00    +0.010 A 
ATOM      5  C   LIG    1       22.911  30.664  58.803  0.00  0.00    -0.027 A 
ATOM      6  C   LIG    1       22.107  31.745  58.491  0.00  0.00    +0.010 A 
ENDROOT
BRANCH   1   8
ATOM      7  C   LIG    1       22.323  34.961  57.052  0.00  0.00    +0.032 C 
ATOM      8  C   LIG    1       21.492  33.676  57.022  0.00  0.00    +0.077 C 
ATOM      9  C   LIG    1       20.357  33.779  58.043  0.00  0.00    +0.032 C 
BRANCH   8  10
ATOM     10  C   LIG    1       20.925  33.489  55.677  0.00  0.00    +0.073 C 
ATOM     11  N   LIG    1       20.489  33.344  54.638  0.00  0.00    -0.196 NA
ENDBRANCH   8  10
ENDBRANCH   1   8
BRANCH   5  12
ATOM     12  C   LIG    1       22.619  29.835  60.027  0.00  0.00    +0.077 C 
ATOM     13  C   LIG    1       22.745  28.350  59.679  0.00  0.00    +0.032 C 
ATOM     14  C   LIG    1       21.197  30.126  60.512  0.00  0.00    +0.032 C 
BRANCH  12  15
ATOM     15  C   LIG    1       23.579  30.174  61.090  0.00  0.00    +0.073 C 
ATOM     16  N   LIG    1       24.320  30.434  61.910  0.00  0.00    -0.196 NA
ENDBRANCH  12  15
ENDBRANCH   5  12
BRANCH   3  17
ATOM     17  C   LIG    1       25.426  30.760  55.988  0.00  0.00    +0.180 C 
BRANCH  17  18
ATOM     18  N   LIG    1       26.231  31.961  55.751  0.00  0.00    -0.248 N 
ATOM     19  C   LIG    1       26.467  32.552  54.567  0.00  0.00    +0.219 A 
ATOM     20  N   LIG    1       27.228  33.596  54.779  0.00  0.00    -0.223 NA
ATOM     21  C   LIG    1       27.497  33.702  56.080  0.00  0.00    +0.245 A 
ATOM     22  N   LIG    1       26.904  32.727  56.716  0.00  0.00    -0.158 NA
ENDBRANCH  17  18
ENDBRANCH   3  17
TORSDOF 6
ENDMDL
MODEL 4
REMARK VINA RESULT:      -5.4      2.767      6.555
REMARK  Name = ZINC00000941
REMARK                            x       y       z     vdW  Elec       q    Type
REMARK                         _______ _______ _______ _____ _____    ______ ____
ROOT
ATOM      1  C   LIG    1       19.387  29.310  55.741  0.00  0.00    -0.027 A 
ATOM      2  C   LIG    1       20.559  29.084  55.044  0.00  0.00    +0.010 A 
ATOM      3  C   LIG    1       21.393  30.141  54.734  0.00  0.00    -0.025 A 
ATOM      4  C   LIG    1       21.055  31.425  55.119  0.00  0.00    +0.010 A 
ATOM      5  C   LIG    1       19.883  31.651  55.815  0.00  0.00    -0.027 A 
ATOM      6  C   LIG    1       19.046  30.594  56.122  0.00  0.00    +0.010 A 
ENDROOT
BRANCH   1   8
ATOM      7  C   LIG    1       18.143  28.192  57.572  0.00  0.00    +0.032 C 
ATOM      8  C   LIG    1       18.476  28.158  56.079  0.00  0.00    +0.077 C 
ATOM      9  C   LIG    1       19.176  26.839  55.743  0.00  0.00    +0.032 C 
BRANCH   8  10
ATOM     10  C   LIG    1       17.235  28.267  55.295  0.00  0.00    +0.073 C 
ATOM     11  N   LIG    1       16.276  28.352  54.691  0.00  0.00    -0.196 NA
ENDBRANCH   8  10
ENDBRANCH   1   8
BRANCH   5  12
ATOM     12  C   LIG    1       19.515  33.050  56.236  0.00  0.00    +0.077 C 
ATOM     13  C   LIG    1       18.204  33.458  55.561  0.00  0.00    +0.032 C 
ATOM     14  C   LIG    1       20.625  34.017  55.820  0.00  0.00    +0.032 C 
BRANCH  12  15
ATOM     15  C   LIG    1       19.349  33.095  57.699  0.00  0.00    +0.073 C 
ATOM     16  N   LIG    1       19.220  33.130  58.826  0.00  0.00    -0.196 NA
ENDBRANCH  12  15
ENDBRANCH   5  12
BRANCH   3  17
ATOM     17  C   LIG    1       22.673  29.894  53.975  0.00  0.00    +0.180 C 
BRANCH  17  18
ATOM     18  N   LIG    1       23.816  30.275  54.809  0.00  0.00    -0.248 N 
ATOM     19  C   LIG    1       24.324  29.584  55.844  0.00  0.00    +0.219 A 
ATOM     20  N   LIG    1       25.338  30.258  56.323  0.00  0.00    -0.223 NA
ATOM     21  C   LIG    1       25.506  31.380  55.624  0.00  0.00    +0.245 A 
ATOM     22  N   LIG    1       24.601  31.433  54.683  0.00  0.00    -0.158 NA
ENDBRANCH  17  18
ENDBRANCH   3  17
TORSDOF 6
ENDMDL
MODEL 5
REMARK VINA RESULT:      -5.4      1.249      4.145
REMARK  Name = ZINC00000941
REMARK                            x       y       z     vdW  Elec       q    Type
REMARK                         _______ _______ _______ _____ _____    ______ ____
ROOT
ATOM      1  C   LIG    1       25.508  32.148  55.532  0.00  0.00    -0.027 A 
ATOM      2  C   LIG    1       24.620  33.022  56.130  0.00  0.00    +0.010 A 
ATOM      3  C   LIG    1       23.404  32.561  56.597  0.00  0.00    -0.025 A 
ATOM      4  C   LIG    1       23.075  31.225  56.465  0.00  0.00    +0.010 A 
ATOM      5  C   LIG    1       23.962  30.350  55.867  0.00  0.00    -0.027 A 
ATOM      6  C   LIG    1       25.177  30.813  55.395  0.00  0.00    +0.010 A 
ENDROOT
BRANCH   1   8
ATOM      7  C   LIG    1       26.928  32.406  53.516  0.00  0.00    +0.032 C 
ATOM      8  C   LIG    1       26.834  32.651  55.023  0.00  0.00    +0.077 C 
ATOM      9  C   LIG    1       27.969  31.907  55.732  0.00  0.00    +0.032 C 
BRANCH   8  10
ATOM     10  C   LIG    1       26.949  34.093  55.294  0.00  0.00    +0.073 C 
ATOM     11  N   LIG    1       27.037  35.206  55.504  0.00  0.00    -0.196 NA
ENDBRANCH   8  10
ENDBRANCH   1   8
BRANCH   5  12
ATOM     12  C   LIG    1       23.603  28.894  55.724  0.00  0.00    +0.077 C 
ATOM     13  C   LIG    1       24.849  28.098  55.328  0.00  0.00    +0.032 C 
ATOM     14  C   LIG    1       22.532  28.736  54.642  0.00  0.00    +0.032 C 
BRANCH  12  15
ATOM     15  C   LIG    1       23.084  28.388  57.005  0.00  0.00    +0.073 C 
ATOM     16  N   LIG    1       22.684  27.997  57.993  0.00  0.00    -0.196 NA
ENDBRANCH  12  15
ENDBRANCH   5  12
BRANCH   3  17
ATOM     17  C   LIG    1       22.437  33.515  57.251  0.00  0.00    +0.180 C 
BRANCH  17  18
ATOM     18  N   LIG    1       21.112  33.358  56.645  0.00  0.00    -0.248 N 
ATOM     19  C   LIG    1       19.973  33.021  57.274  0.00  0.00    +0.219 A 
ATOM     20  N   LIG    1       19.013  32.987  56.385  0.00  0.00    -0.223 NA
ATOM     21  C   LIG    1       19.499  33.295  55.183  0.00  0.00    +0.245 A 
ATOM     22  N   LIG    1       20.778  33.535  55.292  0.00  0.00    -0.158 NA
ENDBRANCH  17  18
ENDBRANCH   3  17
TORSDOF 6
ENDMDL
