REMARK VINA RESULT:      -4.5      2.011      3.411
REMARK  Name = ZINC00000681
REMARK                            x       y       z     vdW  Elec       q    Type
REMARK                         _______ _______ _______ _____ _____    ______ ____
ROOT
ATOM      1  C   LIG    1       24.319  31.286  55.321  0.00  0.00    +0.004 C 
ENDROOT
BRANCH   1   2
ATOM      2  N   LIG    1       25.348  32.365  55.225  0.00  0.00    +0.386 N 
ATOM      3  H   LIG    1       24.876  33.273  55.143  0.00  0.00    -0.081 HD
ATOM      4  C   LIG    1       26.207  32.148  54.060  0.00  0.00    -0.078 C 
ATOM      5  C   LIG    1       27.604  32.658  54.459  0.00  0.00    -0.020 C 
ATOM      6  C   LIG    1       27.459  33.132  55.923  0.00  0.00    -0.020 C 
ATOM      7  C   LIG    1       26.211  32.358  56.415  0.00  0.00    -0.078 C 
ENDBRANCH   1   2
BRANCH   1   8
ATOM      8  C   LIG    1       23.126  31.811  56.077  0.00  0.00    +0.150 C 
ATOM      9  O   LIG    1       22.404  32.642  55.569  0.00  0.00    -0.294 OA
BRANCH   8  10
ATOM     10  C   LIG    1       22.835  31.315  57.432  0.00  0.00    +0.016 A 
ATOM     11  C   LIG    1       22.054  32.076  58.307  0.00  0.00    +0.011 A 
ATOM     12  C   LIG    1       21.780  31.602  59.571  0.00  0.00    +0.004 A 
ATOM     13  C   LIG    1       22.287  30.381  59.981  0.00  0.00    -0.050 A 
ATOM     14  C   LIG    1       21.989  29.874  61.369  0.00  0.00    +0.044 C 
ATOM     15  C   LIG    1       23.067  29.624  59.123  0.00  0.00    +0.004 A 
ATOM     16  C   LIG    1       23.343  30.082  57.853  0.00  0.00    +0.011 A 
ENDBRANCH   8  10
ENDBRANCH   1   8
BRANCH   1  17
ATOM     17  C   LIG    1       23.886  30.860  53.918  0.00  0.00    -0.008 C 
BRANCH  17  19
ATOM     18  C   LIG    1       23.651  28.441  54.501  0.00  0.00    +0.004 C 
ATOM     19  C   LIG    1       22.906  29.688  54.020  0.00  0.00    -0.005 C 
ENDBRANCH  17  19
ENDBRANCH   1  17
TORSDOF 5
