REMARK VINA RESULT:      -5.2      0.000      0.000
REMARK  Name = ZINC00000681
REMARK                            x       y       z     vdW  Elec       q    Type
REMARK                         _______ _______ _______ _____ _____    ______ ____
ROOT
ATOM      1  C   LIG    1       24.626  31.877  55.652  0.00  0.00    +0.004 C 
ENDROOT
BRANCH   1   2
ATOM      2  N   LIG    1       25.872  32.485  55.095  0.00  0.00    +0.386 N 
ATOM      3  H   LIG    1       25.757  32.619  54.083  0.00  0.00    -0.081 HD
ATOM      4  C   LIG    1       27.022  31.618  55.351  0.00  0.00    -0.078 C 
ATOM      5  C   LIG    1       28.225  32.555  55.566  0.00  0.00    -0.020 C 
ATOM      6  C   LIG    1       27.650  33.985  55.444  0.00  0.00    -0.020 C 
ATOM      7  C   LIG    1       26.144  33.778  55.740  0.00  0.00    -0.078 C 
ENDBRANCH   1   2
BRANCH   1   8
ATOM      8  C   LIG    1       23.837  31.257  54.528  0.00  0.00    +0.150 C 
ATOM      9  O   LIG    1       24.275  31.276  53.397  0.00  0.00    -0.294 OA
BRANCH   8  10
ATOM     10  C   LIG    1       22.535  30.627  54.801  0.00  0.00    +0.016 A 
ATOM     11  C   LIG    1       21.469  31.396  55.280  0.00  0.00    +0.011 A 
ATOM     12  C   LIG    1       20.251  30.801  55.527  0.00  0.00    +0.004 A 
ATOM     13  C   LIG    1       20.085  29.443  55.314  0.00  0.00    -0.050 A 
ATOM     14  C   LIG    1       18.751  28.799  55.595  0.00  0.00    +0.044 C 
ATOM     15  C   LIG    1       21.136  28.674  54.847  0.00  0.00    +0.004 A 
ATOM     16  C   LIG    1       22.358  29.256  54.589  0.00  0.00    +0.011 A 
ENDBRANCH   8  10
ENDBRANCH   1   8
BRANCH   1  17
ATOM     17  C   LIG    1       24.991  30.799  56.673  0.00  0.00    -0.008 C 
BRANCH  17  19
ATOM     18  C   LIG    1       23.275  29.789  58.184  0.00  0.00    +0.004 C 
ATOM     19  C   LIG    1       24.172  31.006  57.949  0.00  0.00    -0.005 C 
ENDBRANCH  17  19
ENDBRANCH   1  17
TORSDOF 5
