REMARK VINA RESULT:      -4.6      2.101      2.947
REMARK  Name = ZINC00000681
REMARK                            x       y       z     vdW  Elec       q    Type
REMARK                         _______ _______ _______ _____ _____    ______ ____
ROOT
ATOM      1  C   LIG    1       25.300  30.946  56.406  0.00  0.00    +0.004 C 
ENDROOT
BRANCH   1   2
ATOM      2  N   LIG    1       25.794  32.291  55.982  0.00  0.00    +0.386 N 
ATOM      3  H   LIG    1       25.063  32.989  56.161  0.00  0.00    -0.081 HD
ATOM      4  C   LIG    1       26.133  32.286  54.558  0.00  0.00    -0.078 C 
ATOM      5  C   LIG    1       27.325  33.247  54.399  0.00  0.00    -0.020 C 
ATOM      6  C   LIG    1       27.635  33.748  55.828  0.00  0.00    -0.020 C 
ATOM      7  C   LIG    1       27.014  32.646  56.722  0.00  0.00    -0.078 C 
ENDBRANCH   1   2
BRANCH   1   8
ATOM      8  C   LIG    1       24.245  31.122  57.466  0.00  0.00    +0.150 C 
ATOM      9  O   LIG    1       24.461  30.757  58.603  0.00  0.00    -0.294 OA
BRANCH   8  10
ATOM     10  C   LIG    1       22.952  31.736  57.124  0.00  0.00    +0.016 A 
ATOM     11  C   LIG    1       22.883  33.094  56.798  0.00  0.00    +0.011 A 
ATOM     12  C   LIG    1       21.670  33.661  56.472  0.00  0.00    +0.004 A 
ATOM     13  C   LIG    1       20.519  32.891  56.479  0.00  0.00    -0.050 A 
ATOM     14  C   LIG    1       19.195  33.521  56.129  0.00  0.00    +0.044 C 
ATOM     15  C   LIG    1       20.578  31.548  56.808  0.00  0.00    +0.004 A 
ATOM     16  C   LIG    1       21.784  30.966  57.129  0.00  0.00    +0.011 A 
ENDBRANCH   8  10
ENDBRANCH   1   8
BRANCH   1  17
ATOM     17  C   LIG    1       24.698  30.216  55.204  0.00  0.00    -0.008 C 
BRANCH  17  19
ATOM     18  C   LIG    1       23.145  28.277  54.936  0.00  0.00    +0.004 C 
ATOM     19  C   LIG    1       24.456  28.749  55.567  0.00  0.00    -0.005 C 
ENDBRANCH  17  19
ENDBRANCH   1  17
TORSDOF 5
