REMARK VINA RESULT:      -4.6      1.527      2.228
REMARK  Name = ZINC00000681
REMARK                            x       y       z     vdW  Elec       q    Type
REMARK                         _______ _______ _______ _____ _____    ______ ____
ROOT
ATOM      1  C   LIG    1       24.465  31.713  55.570  0.00  0.00    +0.004 C 
ENDROOT
BRANCH   1   2
ATOM      2  N   LIG    1       25.873  32.213  55.567  0.00  0.00    +0.386 N 
ATOM      3  H   LIG    1       26.467  31.548  56.076  0.00  0.00    -0.081 HD
ATOM      4  C   LIG    1       25.950  33.530  56.200  0.00  0.00    -0.078 C 
ATOM      5  C   LIG    1       27.059  34.298  55.459  0.00  0.00    -0.020 C 
ATOM      6  C   LIG    1       27.557  33.330  54.362  0.00  0.00    -0.020 C 
ATOM      7  C   LIG    1       26.361  32.361  54.187  0.00  0.00    -0.078 C 
ENDBRANCH   1   2
BRANCH   1   8
ATOM      8  C   LIG    1       24.470  30.231  55.840  0.00  0.00    +0.150 C 
ATOM      9  O   LIG    1       25.517  29.657  56.053  0.00  0.00    -0.294 OA
BRANCH   8  10
ATOM     10  C   LIG    1       23.205  29.479  55.846  0.00  0.00    +0.016 A 
ATOM     11  C   LIG    1       22.826  28.749  56.977  0.00  0.00    +0.011 A 
ATOM     12  C   LIG    1       21.637  28.052  56.977  0.00  0.00    +0.004 A 
ATOM     13  C   LIG    1       20.824  28.065  55.856  0.00  0.00    -0.050 A 
ATOM     14  C   LIG    1       19.529  27.294  55.863  0.00  0.00    +0.044 C 
ATOM     15  C   LIG    1       21.194  28.780  54.731  0.00  0.00    +0.004 A 
ATOM     16  C   LIG    1       22.377  29.487  54.718  0.00  0.00    +0.011 A 
ENDBRANCH   8  10
ENDBRANCH   1   8
BRANCH   1  17
ATOM     17  C   LIG    1       23.668  32.427  56.663  0.00  0.00    -0.008 C 
BRANCH  17  19
ATOM     18  C   LIG    1       21.196  32.283  57.004  0.00  0.00    +0.004 C 
ATOM     19  C   LIG    1       22.303  32.845  56.110  0.00  0.00    -0.005 C 
ENDBRANCH  17  19
ENDBRANCH   1  17
TORSDOF 5
