REMARK VINA RESULT:      -4.9      2.056      2.797
REMARK  Name = ZINC00000681
REMARK                            x       y       z     vdW  Elec       q    Type
REMARK                         _______ _______ _______ _____ _____    ______ ____
ROOT
ATOM      1  C   LIG    1       24.390  32.268  56.370  0.00  0.00    +0.004 C 
ENDROOT
BRANCH   1   2
ATOM      2  N   LIG    1       25.507  32.690  55.473  0.00  0.00    +0.386 N 
ATOM      3  H   LIG    1       25.142  32.833  54.524  0.00  0.00    -0.081 HD
ATOM      4  C   LIG    1       26.557  31.670  55.450  0.00  0.00    -0.078 C 
ATOM      5  C   LIG    1       27.888  32.429  55.293  0.00  0.00    -0.020 C 
ATOM      6  C   LIG    1       27.499  33.925  55.266  0.00  0.00    -0.020 C 
ATOM      7  C   LIG    1       26.116  33.935  55.964  0.00  0.00    -0.078 C 
ENDBRANCH   1   2
BRANCH   1   8
ATOM      8  C   LIG    1       23.144  32.076  55.545  0.00  0.00    +0.150 C 
ATOM      9  O   LIG    1       23.149  31.306  54.608  0.00  0.00    -0.294 OA
BRANCH   8  10
ATOM     10  C   LIG    1       21.919  32.823  55.876  0.00  0.00    +0.016 A 
ATOM     11  C   LIG    1       21.966  33.880  56.790  0.00  0.00    +0.011 A 
ATOM     12  C   LIG    1       20.817  34.579  57.090  0.00  0.00    +0.004 A 
ATOM     13  C   LIG    1       19.615  34.228  56.497  0.00  0.00    -0.050 A 
ATOM     14  C   LIG    1       18.362  34.993  56.837  0.00  0.00    +0.044 C 
ATOM     15  C   LIG    1       19.560  33.180  55.596  0.00  0.00    +0.004 A 
ATOM     16  C   LIG    1       20.702  32.476  55.282  0.00  0.00    +0.011 A 
ENDBRANCH   8  10
ENDBRANCH   1   8
BRANCH   1  17
ATOM     17  C   LIG    1       24.752  30.951  57.060  0.00  0.00    -0.008 C 
BRANCH  17  19
ATOM     18  C   LIG    1       23.016  29.445  58.041  0.00  0.00    +0.004 C 
ATOM     19  C   LIG    1       23.821  30.729  58.254  0.00  0.00    -0.005 C 
ENDBRANCH  17  19
ENDBRANCH   1  17
TORSDOF 5
