REMARK VINA RESULT:      -5.6      2.732      4.155
REMARK  Name = ZINC00000931
REMARK                            x       y       z     vdW  Elec       q    Type
REMARK                         _______ _______ _______ _____ _____    ______ ____
ROOT
ATOM      1  C   LIG    1       27.614  33.189  55.583  0.00  0.00    +0.004 A 
ATOM      2  C   LIG    1       27.567  32.652  54.311  0.00  0.00    +0.004 A 
ATOM      3  C   LIG    1       26.413  32.037  53.858  0.00  0.00    +0.051 A 
ATOM      4  C   LIG    1       25.296  31.961  54.673  0.00  0.00    +0.179 A 
ATOM      5  C   LIG    1       25.328  32.523  55.951  0.00  0.00    +0.218 A 
ATOM      6  N   LIG    1       24.231  32.535  56.758  0.00  0.00    -0.038 NA
ATOM      7  C   LIG    1       23.376  31.585  56.916  0.00  0.00    +0.325 C 
ATOM      8  C   LIG    1       23.408  30.286  56.224  0.00  0.00    +0.109 A 
ATOM      9  C   LIG    1       23.060  29.122  56.911  0.00  0.00    +0.039 A 
ATOM     10  C   LIG    1       23.068  27.907  56.257  0.00  0.00    +0.042 A 
ATOM     11 CL   LIG    1       22.637  26.460  57.115  0.00  0.00    -0.084 Cl
ATOM     12  C   LIG    1       23.420  27.836  54.920  0.00  0.00    +0.023 A 
ATOM     13  C   LIG    1       23.774  28.983  54.232  0.00  0.00    +0.048 A 
ATOM     14  C   LIG    1       23.782  30.207  54.879  0.00  0.00    +0.144 A 
ATOM     15  O   LIG    1       24.190  31.319  54.217  0.00  0.00    -0.451 OA
ATOM     16  C   LIG    1       26.506  33.127  56.404  0.00  0.00    +0.059 A 
ENDROOT
BRANCH   7  17
ATOM     17  N   LIG    1       22.347  31.801  57.804  0.00  0.00    -0.218 N 
ATOM     18  C   LIG    1       22.569  31.708  59.255  0.00  0.00    +0.241 C 
ATOM     19  C   LIG    1       21.508  30.777  59.852  0.00  0.00    +0.124 C 
ATOM     20  N   LIG    1       20.173  31.246  59.457  0.00  0.00    -0.309 NA
ATOM     21  H   LIG    1       19.452  30.724  59.932  0.00  0.00    +0.122 HD
ATOM     22  C   LIG    1       19.996  31.185  58.000  0.00  0.00    +0.124 C 
ATOM     23  C   LIG    1       20.996  32.138  57.328  0.00  0.00    +0.241 C 
ENDBRANCH   7  17
TORSDOF 1
