REMARK VINA RESULT:      -6.2      0.000      0.000
REMARK  Name = ZINC00000931
REMARK                            x       y       z     vdW  Elec       q    Type
REMARK                         _______ _______ _______ _____ _____    ______ ____
ROOT
ATOM      1  C   LIG    1       27.529  33.428  54.070  0.00  0.00    +0.004 A 
ATOM      2  C   LIG    1       27.400  34.457  54.983  0.00  0.00    +0.004 A 
ATOM      3  C   LIG    1       26.448  34.382  55.985  0.00  0.00    +0.051 A 
ATOM      4  C   LIG    1       25.624  33.273  56.084  0.00  0.00    +0.179 A 
ATOM      5  C   LIG    1       25.766  32.219  55.180  0.00  0.00    +0.218 A 
ATOM      6  N   LIG    1       25.026  31.080  55.284  0.00  0.00    -0.038 NA
ATOM      7  C   LIG    1       23.778  30.992  55.589  0.00  0.00    +0.325 C 
ATOM      8  C   LIG    1       22.898  32.127  55.911  0.00  0.00    +0.109 A 
ATOM      9  C   LIG    1       21.577  32.134  55.462  0.00  0.00    +0.039 A 
ATOM     10  C   LIG    1       20.744  33.187  55.783  0.00  0.00    +0.042 A 
ATOM     11 CL   LIG    1       19.102  33.194  55.220  0.00  0.00    -0.084 Cl
ATOM     12  C   LIG    1       21.215  34.239  56.551  0.00  0.00    +0.023 A 
ATOM     13  C   LIG    1       22.525  34.246  56.994  0.00  0.00    +0.048 A 
ATOM     14  C   LIG    1       23.374  33.202  56.669  0.00  0.00    +0.144 A 
ATOM     15  O   LIG    1       24.674  33.243  57.054  0.00  0.00    -0.451 OA
ATOM     16  C   LIG    1       26.720  32.314  54.161  0.00  0.00    +0.059 A 
ENDROOT
BRANCH   7  17
ATOM     17  N   LIG    1       23.220  29.734  55.616  0.00  0.00    -0.218 N 
ATOM     18  C   LIG    1       22.693  29.115  54.390  0.00  0.00    +0.241 C 
ATOM     19  C   LIG    1       21.268  28.623  54.667  0.00  0.00    +0.124 C 
ATOM     20  N   LIG    1       21.276  27.751  55.849  0.00  0.00    -0.309 NA
ATOM     21  H   LIG    1       20.374  27.319  55.985  0.00  0.00    +0.122 HD
ATOM     22  C   LIG    1       21.694  28.487  57.050  0.00  0.00    +0.124 C 
ATOM     23  C   LIG    1       23.141  28.969  56.871  0.00  0.00    +0.241 C 
ENDBRANCH   7  17
TORSDOF 1
