REMARK VINA RESULT:      -5.5      3.078      5.449
REMARK  Name = ZINC00000931
REMARK                            x       y       z     vdW  Elec       q    Type
REMARK                         _______ _______ _______ _____ _____    ______ ____
ROOT
ATOM      1  C   LIG    1       17.656  34.132  55.879  0.00  0.00    +0.004 A 
ATOM      2  C   LIG    1       17.724  35.121  56.842  0.00  0.00    +0.004 A 
ATOM      3  C   LIG    1       18.902  35.334  57.537  0.00  0.00    +0.051 A 
ATOM      4  C   LIG    1       20.021  34.563  57.268  0.00  0.00    +0.179 A 
ATOM      5  C   LIG    1       19.966  33.579  56.279  0.00  0.00    +0.218 A 
ATOM      6  N   LIG    1       21.062  32.849  55.932  0.00  0.00    -0.038 NA
ATOM      7  C   LIG    1       21.954  32.366  56.726  0.00  0.00    +0.325 C 
ATOM      8  C   LIG    1       21.974  32.535  58.188  0.00  0.00    +0.109 A 
ATOM      9  C   LIG    1       22.368  31.475  59.006  0.00  0.00    +0.039 A 
ATOM     10  C   LIG    1       22.409  31.639  60.376  0.00  0.00    +0.042 A 
ATOM     11 CL   LIG    1       22.896  30.318  61.392  0.00  0.00    -0.084 Cl
ATOM     12  C   LIG    1       22.060  32.854  60.944  0.00  0.00    +0.023 A 
ATOM     13  C   LIG    1       21.660  33.908  60.143  0.00  0.00    +0.048 A 
ATOM     14  C   LIG    1       21.603  33.753  58.768  0.00  0.00    +0.144 A 
ATOM     15  O   LIG    1       21.152  34.769  57.991  0.00  0.00    -0.451 OA
ATOM     16  C   LIG    1       18.765  33.362  55.595  0.00  0.00    +0.059 A 
ENDROOT
BRANCH   7  17
ATOM     17  N   LIG    1       22.973  31.633  56.162  0.00  0.00    -0.218 N 
ATOM     18  C   LIG    1       22.727  30.288  55.622  0.00  0.00    +0.241 C 
ATOM     19  C   LIG    1       23.760  29.326  56.219  0.00  0.00    +0.124 C 
ATOM     20  N   LIG    1       25.110  29.854  55.980  0.00  0.00    -0.309 NA
ATOM     21  H   LIG    1       25.814  29.185  56.257  0.00  0.00    +0.122 HD
ATOM     22  C   LIG    1       25.308  31.140  56.662  0.00  0.00    +0.124 C 
ATOM     23  C   LIG    1       24.338  32.178  56.077  0.00  0.00    +0.241 C 
ENDBRANCH   7  17
TORSDOF 1
