REMARK VINA RESULT:      -5.6      3.880      5.496
REMARK  Name = ZINC00000931
REMARK                            x       y       z     vdW  Elec       q    Type
REMARK                         _______ _______ _______ _____ _____    ______ ____
ROOT
ATOM      1  C   LIG    1       19.866  34.032  57.605  0.00  0.00    +0.004 A 
ATOM      2  C   LIG    1       20.542  34.576  56.529  0.00  0.00    +0.004 A 
ATOM      3  C   LIG    1       20.813  33.801  55.415  0.00  0.00    +0.051 A 
ATOM      4  C   LIG    1       20.403  32.478  55.367  0.00  0.00    +0.179 A 
ATOM      5  C   LIG    1       19.698  31.930  56.441  0.00  0.00    +0.218 A 
ATOM      6  N   LIG    1       19.214  30.658  56.406  0.00  0.00    -0.038 NA
ATOM      7  C   LIG    1       19.803  29.617  55.927  0.00  0.00    +0.325 C 
ATOM      8  C   LIG    1       21.130  29.608  55.291  0.00  0.00    +0.109 A 
ATOM      9  C   LIG    1       22.004  28.544  55.519  0.00  0.00    +0.039 A 
ATOM     10  C   LIG    1       23.241  28.523  54.905  0.00  0.00    +0.042 A 
ATOM     11 CL   LIG    1       24.327  27.200  55.193  0.00  0.00    -0.084 Cl
ATOM     12  C   LIG    1       23.618  29.555  54.061  0.00  0.00    +0.023 A 
ATOM     13  C   LIG    1       22.763  30.618  53.835  0.00  0.00    +0.048 A 
ATOM     14  C   LIG    1       21.524  30.657  54.454  0.00  0.00    +0.144 A 
ATOM     15  O   LIG    1       20.715  31.731  54.277  0.00  0.00    -0.451 OA
ATOM     16  C   LIG    1       19.445  32.719  57.568  0.00  0.00    +0.059 A 
ENDROOT
BRANCH   7  17
ATOM     17  N   LIG    1       19.138  28.416  56.015  0.00  0.00    -0.218 N 
ATOM     18  C   LIG    1       18.538  27.795  54.825  0.00  0.00    +0.241 C 
ATOM     19  C   LIG    1       17.080  27.444  55.141  0.00  0.00    +0.124 C 
ATOM     20  N   LIG    1       17.030  26.626  56.360  0.00  0.00    -0.309 NA
ATOM     21  H   LIG    1       16.096  26.281  56.526  0.00  0.00    +0.122 HD
ATOM     22  C   LIG    1       17.531  27.371  57.523  0.00  0.00    +0.124 C 
ATOM     23  C   LIG    1       19.012  27.715  57.304  0.00  0.00    +0.241 C 
ENDBRANCH   7  17
TORSDOF 1
