REMARK VINA RESULT:      -6.0      2.463      4.232
REMARK  Name = ZINC00000931
REMARK                            x       y       z     vdW  Elec       q    Type
REMARK                         _______ _______ _______ _____ _____    ______ ____
ROOT
ATOM      1  C   LIG    1       28.079  32.884  56.184  0.00  0.00    +0.004 A 
ATOM      2  C   LIG    1       28.239  32.256  54.964  0.00  0.00    +0.004 A 
ATOM      3  C   LIG    1       27.131  31.889  54.220  0.00  0.00    +0.051 A 
ATOM      4  C   LIG    1       25.855  32.153  54.691  0.00  0.00    +0.179 A 
ATOM      5  C   LIG    1       25.687  32.808  55.913  0.00  0.00    +0.218 A 
ATOM      6  N   LIG    1       24.454  33.152  56.379  0.00  0.00    -0.038 NA
ATOM      7  C   LIG    1       23.378  32.447  56.314  0.00  0.00    +0.325 C 
ATOM      8  C   LIG    1       23.266  31.119  55.691  0.00  0.00    +0.109 A 
ATOM      9  C   LIG    1       22.468  30.138  56.281  0.00  0.00    +0.039 A 
ATOM     10  C   LIG    1       22.344  28.899  55.686  0.00  0.00    +0.042 A 
ATOM     11 CL   LIG    1       21.352  27.679  56.424  0.00  0.00    -0.084 Cl
ATOM     12  C   LIG    1       23.009  28.623  54.503  0.00  0.00    +0.023 A 
ATOM     13  C   LIG    1       23.809  29.586  53.914  0.00  0.00    +0.048 A 
ATOM     14  C   LIG    1       23.952  30.829  54.507  0.00  0.00    +0.144 A 
ATOM     15  O   LIG    1       24.786  31.748  53.959  0.00  0.00    -0.451 OA
ATOM     16  C   LIG    1       26.814  33.160  56.662  0.00  0.00    +0.059 A 
ENDROOT
BRANCH   7  17
ATOM     17  N   LIG    1       22.238  32.980  56.872  0.00  0.00    -0.218 N 
ATOM     18  C   LIG    1       21.192  33.578  56.029  0.00  0.00    +0.241 C 
ATOM     19  C   LIG    1       20.865  34.973  56.574  0.00  0.00    +0.124 C 
ATOM     20  N   LIG    1       20.530  34.871  58.000  0.00  0.00    -0.309 NA
ATOM     21  H   LIG    1       20.196  35.755  58.357  0.00  0.00    +0.122 HD
ATOM     22  C   LIG    1       21.674  34.386  58.783  0.00  0.00    +0.124 C 
ATOM     23  C   LIG    1       22.031  32.962  58.329  0.00  0.00    +0.241 C 
ENDBRANCH   7  17
TORSDOF 1
