REMARK  Name = ZINC00397867
REMARK                            x       y       z     vdW  Elec       q    Type
REMARK                         _______ _______ _______ _____ _____    ______ ____
ROOT
ATOM      1  N   LIG    1        0.167   1.071   6.516  0.00  0.00    -0.269 N 
ATOM      2  H   LIG    1       -0.598   1.633   6.715  0.00  0.00    +0.156 HD
ATOM      3  C   LIG    1        0.844   0.474   7.517  0.00  0.00    +0.308 C 
ATOM      4  N   LIG    1        0.395   0.569   8.784  0.00  0.00    -0.269 N 
ATOM      5  H   LIG    1       -0.456   0.998   8.967  0.00  0.00    +0.156 HD
ATOM      6  O   LIG    1        1.860  -0.149   7.277  0.00  0.00    -0.252 OA
ENDROOT
BRANCH   4   7
ATOM      7  C   LIG    1        1.153   0.049   9.835  0.00  0.00    +0.043 A 
ATOM      8  C   LIG    1        2.507  -0.159   9.679  0.00  0.00    +0.024 A 
ATOM      9  C   LIG    1        3.273  -0.671  10.722  0.00  0.00    +0.002 A 
ATOM     10  C   LIG    1        2.708  -0.992  11.918  0.00  0.00    +0.008 A 
ATOM     11  C   LIG    1        1.329  -0.801  12.117  0.00  0.00    -0.016 A 
ATOM     12  C   LIG    1        0.720  -1.123  13.342  0.00  0.00    +0.012 A 
ATOM     13  C   LIG    1       -0.616  -0.926  13.503  0.00  0.00    +0.046 A 
ATOM     14  C   LIG    1       -1.396  -0.406  12.466  0.00  0.00    +0.118 A 
ATOM     15  C   LIG    1       -0.836  -0.082  11.263  0.00  0.00    +0.055 A 
ATOM     16  C   LIG    1        0.540  -0.274  11.065  0.00  0.00    +0.007 A 
BRANCH  14  17
ATOM     17  O   LIG    1       -2.729  -0.221  12.657  0.00  0.00    -0.507 OA
ATOM     18  H   LIG    1       -2.958   0.652  13.005  0.00  0.00    +0.292 HD
ENDBRANCH  14  17
ENDBRANCH   4   7
BRANCH   1  23
ATOM     19  C   LIG    1        1.517  -0.516   3.481  0.00  0.00    +0.009 A 
ATOM     20  C   LIG    1        1.367   0.515   2.560  0.00  0.00    +0.015 A 
ATOM     21  C   LIG    1        0.814   1.718   2.952  0.00  0.00    +0.003 A 
ATOM     22  C   LIG    1        0.417   1.905   4.263  0.00  0.00    +0.023 A 
ATOM     23  C   LIG    1        0.569   0.881   5.189  0.00  0.00    +0.036 A 
ATOM     24  C   LIG    1        1.119  -0.331   4.798  0.00  0.00    +0.038 A 
BRANCH  19  26
ATOM     25  C   LIG    1        2.568  -1.819   1.214  0.00  0.00    +0.090 C 
ATOM     26  S   LIG    1        2.216  -2.054   2.978  0.00  0.00    -0.129 S 
ENDBRANCH  19  26
ENDBRANCH   1  23
TORSDOF 4
