REMARK  Name = ZINC00506642
REMARK                            x       y       z     vdW  Elec       q    Type
REMARK                         _______ _______ _______ _____ _____    ______ ____
ROOT
ATOM      1  C   LIG    1        2.396   0.123  -0.020  0.00  0.00    +0.139 A 
ATOM      2  C   LIG    1        1.266  -0.637  -0.013  0.00  0.00    +0.098 A 
ATOM      3  C   LIG    1        0.002  -0.004   0.002  0.00  0.00    +0.193 A 
ATOM      4  C   LIG    1       -0.018   1.472   0.010  0.00  0.00    +0.065 A 
ATOM      5  C   LIG    1       -1.218   2.181   0.031  0.00  0.00    +0.035 A 
ATOM      6  C   LIG    1       -1.195   3.559   0.032  0.00  0.00    +0.042 A 
ATOM      7 CL   LIG    1       -2.685   4.450   0.051  0.00  0.00    -0.084 Cl
ATOM      8  C   LIG    1        0.016   4.238   0.025  0.00  0.00    +0.023 A 
ATOM      9  C   LIG    1        1.209   3.548   0.010  0.00  0.00    +0.048 A 
ATOM     10  C   LIG    1        1.207   2.158   0.002  0.00  0.00    +0.139 A 
ATOM     11  O   LIG    1       -1.031  -0.652   0.008  0.00  0.00    -0.287 OA
ATOM     12  O   LIG    1        2.364   1.464  -0.013  0.00  0.00    -0.455 OA
ENDROOT
BRANCH   1  19
ATOM     13  C   LIG    1        3.774  -1.951  -0.040  0.00  0.00    +0.014 A 
ATOM     14  C   LIG    1        5.001  -2.579  -0.059  0.00  0.00    +0.039 A 
ATOM     15  C   LIG    1        6.167  -1.829  -0.067  0.00  0.00    +0.123 A 
ATOM     16  F   LIG    1        7.366  -2.450  -0.082  0.00  0.00    -0.205 F 
ATOM     17  C   LIG    1        6.106  -0.444  -0.059  0.00  0.00    +0.039 A 
ATOM     18  C   LIG    1        4.885   0.195  -0.044  0.00  0.00    +0.014 A 
ATOM     19  C   LIG    1        3.707  -0.555  -0.037  0.00  0.00    +0.018 A 
ENDBRANCH   1  19
TORSDOF 1
