REMARK  Name = ZINC00579013
REMARK                            x       y       z     vdW  Elec       q    Type
REMARK                         _______ _______ _______ _____ _____    ______ ____
ROOT
ATOM      1  C   LIG    1       -1.244  -0.813   0.080  0.00  0.00    +0.044 C 
ATOM      2  C   LIG    1        0.045  -0.033   0.066  0.00  0.00    -0.038 A 
ATOM      3  C   LIG    1        1.258  -0.699   0.067  0.00  0.00    +0.009 A 
ATOM      4  C   LIG    1        2.441   0.015   0.055  0.00  0.00    -0.024 A 
ATOM      5  C   LIG    1        2.426   1.400   0.041  0.00  0.00    +0.042 A 
ATOM      6  N   LIG    1        3.720   1.929   0.030  0.00  0.00    -0.255 N 
ATOM      7  C   LIG    1        4.018   3.244   0.015  0.00  0.00    +0.311 C 
ATOM      8  N   LIG    1        5.305   3.643   0.005  0.00  0.00    -0.268 N 
ATOM      9  H   LIG    1        6.016   2.988   0.074  0.00  0.00    +0.156 HD
ATOM     10  O   LIG    1        3.125   4.069   0.010  0.00  0.00    -0.252 OA
ATOM     11  C   LIG    1        4.706   0.845   0.037  0.00  0.00    +0.120 C 
ATOM     12  C   LIG    1        1.198   2.065   0.039  0.00  0.00    +0.036 A 
ATOM     13  C   LIG    1        3.879  -0.451   0.054  0.00  0.00    +0.056 C 
ATOM     14  C   LIG    1        0.020   1.349   0.051  0.00  0.00    +0.059 A 
ENDROOT
BRANCH   8  15
ATOM     15  C   LIG    1        5.615   5.006  -0.104  0.00  0.00    +0.053 A 
ATOM     16  C   LIG    1        4.797   5.966   0.490  0.00  0.00    +0.030 A 
ATOM     17  C   LIG    1        5.142   7.298   0.356  0.00  0.00    +0.069 A 
ATOM     18  C   LIG    1        6.283   7.634  -0.361  0.00  0.00    +0.221 A 
ATOM     19  N   LIG    1        7.036   6.697  -0.912  0.00  0.00    -0.219 NA
ATOM     20  C   LIG    1        6.742   5.416  -0.800  0.00  0.00    +0.138 A 
BRANCH  18  21
ATOM     21  O   LIG    1        6.630   8.940  -0.497  0.00  0.00    -0.436 OA
BRANCH  21  22
ATOM     22  C   LIG    1        7.691   9.238  -1.292  0.00  0.00    +0.151 A 
ATOM     23  C   LIG    1        8.941   9.491  -0.735  0.00  0.00    +0.049 A 
ATOM     24  C   LIG    1        9.993   9.787  -1.586  0.00  0.00    +0.023 A 
ATOM     25  C   LIG    1        9.767   9.830  -2.950  0.00  0.00    +0.111 A 
ATOM     26  N   LIG    1        8.569   9.590  -3.445  0.00  0.00    -0.257 NA
ATOM     27  C   LIG    1        7.543   9.301  -2.670  0.00  0.00    +0.080 A 
ATOM     28  C   LIG    1        6.194   9.035  -3.288  0.00  0.00    +0.069 C 
ENDBRANCH  21  22
ENDBRANCH  18  21
ENDBRANCH   8  15
BRANCH  14  29
ATOM     29  C   LIG    1       -1.300   2.075   0.043  0.00  0.00    +0.418 C 
ATOM     30  F   LIG    1       -2.027   1.734   1.189  0.00  0.00    -0.166 F 
ATOM     31  F   LIG    1       -2.027   1.710  -1.095  0.00  0.00    -0.166 F 
ATOM     32  F   LIG    1       -1.073   3.456   0.029  0.00  0.00    -0.166 F 
ENDBRANCH  14  29
TORSDOF 4
