REMARK  Name = ZINC00380686
REMARK                            x       y       z     vdW  Elec       q    Type
REMARK                         _______ _______ _______ _____ _____    ______ ____
ROOT
ATOM      1  C   LIG    1       -1.162   3.551   0.119  0.00  0.00    +0.033 A 
ATOM      2  C   LIG    1        0.058   4.219   0.115  0.00  0.00    +0.024 A 
ATOM      3  C   LIG    1        0.093   5.592   0.208  0.00  0.00    +0.015 A 
ATOM      4  C   LIG    1       -1.098   6.314   0.318  0.00  0.00    +0.037 A 
ATOM      5  C   LIG    1       -2.322   5.640   0.327  0.00  0.00    +0.015 A 
ATOM      6  C   LIG    1       -2.350   4.267   0.229  0.00  0.00    +0.024 A 
ENDROOT
BRANCH   1   8
ATOM      7  C   LIG    1       -0.267   1.516  -0.716  0.00  0.00    +0.220 C 
ATOM      8  N   LIG    1       -1.195   2.161   0.019  0.00  0.00    -0.285 N 
ATOM      9  H   LIG    1       -1.884   1.657   0.480  0.00  0.00    +0.155 HD
ATOM     10  O   LIG    1        0.534   2.149  -1.370  0.00  0.00    -0.275 OA
BRANCH   7  12
ATOM     11  C   LIG    1        0.903  -0.464  -1.643  0.00  0.00    +0.017 C 
ATOM     12  C   LIG    1       -0.231   0.010  -0.731  0.00  0.00    +0.069 C 
ATOM     13  C   LIG    1        0.006  -0.509   0.689  0.00  0.00    +0.017 C 
ENDBRANCH   7  12
ENDBRANCH   1   8
BRANCH   4  14
ATOM     14  C   LIG    1       -1.064   7.786   0.424  0.00  0.00    +0.250 C 
ATOM     15  N   LIG    1        0.117   8.435   0.415  0.00  0.00    -0.261 N 
ATOM     16  H   LIG    1        0.945   7.935   0.338  0.00  0.00    +0.157 HD
ATOM     17  O   LIG    1       -2.102   8.413   0.519  0.00  0.00    -0.270 OA
BRANCH  15  18
ATOM     18  C   LIG    1        0.149   9.820   0.514  0.00  0.00    +0.165 A 
ATOM     19  N   LIG    1       -0.857  10.667   0.619  0.00  0.00    -0.233 NA
ATOM     20  C   LIG    1       -0.649  11.966   0.710  0.00  0.00    +0.120 A 
ATOM     21  C   LIG    1        0.628  12.420   0.682  0.00  0.00    +0.068 A 
ATOM     22  S   LIG    1        1.523  10.881   0.526  0.00  0.00    -0.061 S 
ENDBRANCH  15  18
ENDBRANCH   4  14
TORSDOF 4
