REMARK  Name = ZINC00537795
REMARK                            x       y       z     vdW  Elec       q    Type
REMARK                         _______ _______ _______ _____ _____    ______ ____
ROOT
ATOM      1  C   LIG    1        0.099  -8.301  -2.716  0.00  0.00    -0.046 A 
ATOM      2  C   LIG    1        1.305  -8.977  -2.721  0.00  0.00    +0.005 A 
ATOM      3  C   LIG    1        1.324 -10.359  -2.730  0.00  0.00    +0.029 A 
ATOM      4  C   LIG    1        0.136 -11.066  -2.733  0.00  0.00    +0.113 A 
ATOM      5  C   LIG    1       -1.070 -10.390  -2.727  0.00  0.00    +0.029 A 
ATOM      6  C   LIG    1       -1.089  -9.008  -2.714  0.00  0.00    +0.005 A 
ENDROOT
BRANCH   4   7
ATOM      7  S   LIG    1        0.159 -12.828  -2.745  0.00  0.00    +0.103 S 
ATOM      8  O   LIG    1        1.409 -13.213  -3.301  0.00  0.00    -0.146 OA
ATOM      9  O   LIG    1       -1.081 -13.246  -3.298  0.00  0.00    -0.146 OA
BRANCH   7  10
ATOM     10  N   LIG    1        0.168 -13.328  -1.167  0.00  0.00    -0.076 NA
ATOM     11  C   LIG    1        0.185 -14.599  -0.888  0.00  0.00    +0.299 C 
BRANCH  11  12
ATOM     12  N   LIG    1        0.192 -15.014   0.421  0.00  0.00    -0.295 N 
ATOM     13  H   LIG    1        0.184 -14.360   1.138  0.00  0.00    +0.151 HD
BRANCH  12  14
ATOM     14  C   LIG    1        0.211 -16.445   0.736  0.00  0.00    +0.075 C 
ATOM     15  C   LIG    1        1.655 -16.951   0.721  0.00  0.00    +0.022 C 
ATOM     16  C   LIG    1        1.675 -18.445   1.049  0.00  0.00    +0.002 C 
ATOM     17  C   LIG    1        1.070 -18.670   2.437  0.00  0.00    +0.000 C 
ATOM     18  C   LIG    1       -0.373 -18.164   2.452  0.00  0.00    +0.002 C 
ATOM     19  C   LIG    1       -0.394 -16.670   2.123  0.00  0.00    +0.022 C 
ENDBRANCH  12  14
ENDBRANCH  11  12
BRANCH  11  20
ATOM     20  O   LIG    1        0.196 -15.510  -1.885  0.00  0.00    -0.481 OA
ATOM     21  H   LIG    1        0.191 -15.226  -2.778  0.00  0.00    +0.295 HD
ENDBRANCH  11  20
ENDBRANCH   7  10
ENDBRANCH   4   7
BRANCH   1  22
ATOM     22  C   LIG    1        0.079  -6.795  -2.706  0.00  0.00    +0.054 C 
BRANCH  22  23
ATOM     23  C   LIG    1        0.080  -6.294  -1.261  0.00  0.00    +0.109 C 
BRANCH  23  25
ATOM     24  C   LIG    1        0.058  -4.162  -0.080  0.00  0.00    +0.264 C 
ATOM     25  N   LIG    1        0.061  -4.829  -1.251  0.00  0.00    -0.310 N 
ATOM     26  H   LIG    1        0.050  -4.339  -2.088  0.00  0.00    +0.149 HD
ATOM     27  O   LIG    1        0.072  -4.777   0.969  0.00  0.00    -0.268 OA
BRANCH  24  32
ATOM     28  C   LIG    1       -0.018   1.503   0.010  0.00  0.00    +0.067 C 
ATOM     29  C   LIG    1        0.002  -0.004   0.002  0.00  0.00    +0.056 A 
ATOM     30  C   LIG    1        0.006  -0.689  -1.205  0.00  0.00    +0.134 A 
ATOM     31  N   LIG    1        0.024  -2.007  -1.217  0.00  0.00    -0.247 NA
ATOM     32  C   LIG    1        0.039  -2.681  -0.070  0.00  0.00    +0.143 A 
ATOM     33  C   LIG    1        0.035  -1.990   1.140  0.00  0.00    +0.144 A 
ATOM     34  N   LIG    1        0.022  -0.669   1.143  0.00  0.00    -0.256 NA
ENDBRANCH  24  32
ENDBRANCH  23  25
ENDBRANCH  22  23
ENDBRANCH   1  22
TORSDOF 9
