REMARK  Name = ZINC00558377
REMARK                            x       y       z     vdW  Elec       q    Type
REMARK                         _______ _______ _______ _____ _____    ______ ____
ROOT
ATOM      1  C   LIG    1       -1.096  -3.501   1.980  0.00  0.00    +0.051 A 
ATOM      2  C   LIG    1       -0.948  -4.858   1.735  0.00  0.00    +0.025 A 
ATOM      3  C   LIG    1       -1.453  -5.781   2.632  0.00  0.00    +0.002 A 
ATOM      4  C   LIG    1       -2.106  -5.356   3.774  0.00  0.00    +0.002 A 
ATOM      5  C   LIG    1       -2.258  -4.005   4.027  0.00  0.00    +0.025 A 
ATOM      6  C   LIG    1       -1.750  -3.072   3.135  0.00  0.00    +0.055 A 
ENDROOT
BRANCH   1  11
ATOM      7  C   LIG    1        0.007   1.513   0.013  0.00  0.00    +0.007 C 
ATOM      8  C   LIG    1        0.016  -0.017   0.003  0.00  0.00    -0.011 C 
ATOM      9  C   LIG    1       -1.424  -0.535   0.012  0.00  0.00    +0.022 C 
ATOM     10  C   LIG    1       -1.413  -2.066  -0.033  0.00  0.00    +0.105 C 
ATOM     11  N   LIG    1       -0.585  -2.565   1.074  0.00  0.00    -0.328 N 
ATOM     12  C   LIG    1        0.788  -2.062   1.212  0.00  0.00    +0.105 C 
ATOM     13  C   LIG    1        0.752  -0.531   1.243  0.00  0.00    +0.022 C 
ENDBRANCH   1  11
BRANCH   6  14
ATOM     14  N   LIG    1       -1.897  -1.703   3.392  0.00  0.00    -0.277 N 
ATOM     15  H   LIG    1       -1.885  -1.068   2.659  0.00  0.00    +0.155 HD
ATOM     16  C   LIG    1       -2.056  -1.268   4.657  0.00  0.00    +0.284 C 
ATOM     17  O   LIG    1       -1.970  -2.051   5.585  0.00  0.00    -0.266 OA
BRANCH  16  18
ATOM     18  C   LIG    1       -2.331   0.149   4.916  0.00  0.00    +0.192 A 
ATOM     19  C   LIG    1       -2.507   0.721   6.144  0.00  0.00    +0.057 A 
ATOM     20  C   LIG    1       -2.744   2.087   5.923  0.00  0.00    +0.076 A 
ATOM     21  C   LIG    1       -2.703   2.286   4.587  0.00  0.00    +0.276 A 
ATOM     22  O   LIG    1       -2.449   1.117   3.984  0.00  0.00    -0.429 OA
BRANCH  21  23
ATOM     23  N   LIG    1       -2.901   3.583   3.902  0.00  0.00    +0.043 N 
ATOM     24  O   LIG    1       -3.122   4.581   4.549  0.00  0.00    -0.127 OA
BRANCH  23  25
ATOM     25  O   LIG    1       -2.843   3.646   2.696  0.00  0.00    -0.394 OA
ATOM     26  H   LIG    1       -2.673   2.873   2.195  0.00  0.00    +0.329 HD
ENDBRANCH  23  25
ENDBRANCH  21  23
ENDBRANCH  16  18
ENDBRANCH   6  14
TORSDOF 5
