REMARK  Name = ZINC00384465
REMARK                            x       y       z     vdW  Elec       q    Type
REMARK                         _______ _______ _______ _____ _____    ______ ____
ROOT
ATOM      1  N   LIG    1        3.621  -0.650  -0.036  0.00  0.00    -0.280 N 
ATOM      2  H   LIG    1        4.451  -0.155  -0.119  0.00  0.00    +0.155 HD
ATOM      3  C   LIG    1        3.644  -1.994   0.058  0.00  0.00    +0.265 C 
ATOM      4  O   LIG    1        2.602  -2.622   0.065  0.00  0.00    -0.268 OA
ENDROOT
BRANCH   3   5
ATOM      5  C   LIG    1        4.929  -2.703   0.152  0.00  0.00    +0.103 A 
ATOM      6  C   LIG    1        5.081  -4.050   0.245  0.00  0.00    +0.040 A 
ATOM      7  C   LIG    1        6.468  -4.323   0.315  0.00  0.00    +0.000 A 
ATOM      8  C   LIG    1        7.212  -5.506   0.420  0.00  0.00    +0.010 A 
ATOM      9  C   LIG    1        8.574  -5.449   0.468  0.00  0.00    +0.001 A 
ATOM     10  C   LIG    1        9.234  -4.228   0.413  0.00  0.00    +0.002 A 
ATOM     11  C   LIG    1        8.526  -3.051   0.310  0.00  0.00    +0.026 A 
ATOM     12  C   LIG    1        7.135  -3.083   0.260  0.00  0.00    +0.047 A 
ATOM     13  N   LIG    1        6.175  -2.105   0.154  0.00  0.00    -0.351 N 
ATOM     14  H   LIG    1        6.344  -1.152   0.093  0.00  0.00    +0.166 HD
ENDBRANCH   3   5
BRANCH   1  18
ATOM     15  C   LIG    1       -0.015   1.380   0.029  0.00  0.00    +0.000 A 
ATOM     16  C   LIG    1        0.140   0.219   0.763  0.00  0.00    +0.002 A 
ATOM     17  C   LIG    1        1.344  -0.457   0.744  0.00  0.00    +0.023 A 
ATOM     18  C   LIG    1        2.400   0.031  -0.015  0.00  0.00    +0.034 A 
ATOM     19  C   LIG    1        2.241   1.198  -0.752  0.00  0.00    +0.023 A 
ATOM     20  C   LIG    1        1.034   1.869  -0.728  0.00  0.00    +0.002 A 
ENDBRANCH   1  18
TORSDOF 2
