REMARK  Name = ZINC00641085
REMARK                            x       y       z     vdW  Elec       q    Type
REMARK                         _______ _______ _______ _____ _____    ______ ____
ROOT
ATOM      1  C   LIG    1        3.604   5.896  -0.782  0.00  0.00    +0.051 A 
ATOM      2  C   LIG    1        4.838   5.297  -0.570  0.00  0.00    +0.049 A 
ATOM      3  C   LIG    1        5.941   6.078  -0.260  0.00  0.00    +0.051 A 
ATOM      4  C   LIG    1        5.809   7.458  -0.163  0.00  0.00    +0.040 A 
ATOM      5 BR   LIG    1        7.313   8.524   0.258  0.00  0.00    -0.048 Br
ATOM      6  C   LIG    1        4.579   8.052  -0.375  0.00  0.00    +0.034 A 
ATOM      7  C   LIG    1        3.479   7.277  -0.690  0.00  0.00    +0.040 A 
ATOM      8 BR   LIG    1        1.800   8.095  -0.987  0.00  0.00    -0.048 Br
ENDROOT
BRANCH   1  12
ATOM      9  N   LIG    1        1.559   3.265  -2.181  0.00  0.00    -0.269 N 
ATOM     10  H   LIG    1        0.669   3.608  -2.005  0.00  0.00    +0.156 HD
ATOM     11  C   LIG    1        2.641   3.973  -1.801  0.00  0.00    +0.308 C 
ATOM     12  N   LIG    1        2.488   5.110  -1.094  0.00  0.00    -0.268 N 
ATOM     13  H   LIG    1        1.605   5.385  -0.802  0.00  0.00    +0.156 HD
ATOM     14  O   LIG    1        3.756   3.586  -2.097  0.00  0.00    -0.252 OA
BRANCH   9  18
ATOM     15  C   LIG    1        2.038  -0.401  -4.113  0.00  0.00    +0.029 A 
ATOM     16  C   LIG    1        0.983  -0.214  -3.229  0.00  0.00    +0.025 A 
ATOM     17  C   LIG    1        0.825   0.999  -2.590  0.00  0.00    +0.025 A 
ATOM     18  C   LIG    1        1.720   2.033  -2.830  0.00  0.00    +0.035 A 
ATOM     19  C   LIG    1        2.775   1.847  -3.714  0.00  0.00    +0.025 A 
ATOM     20  C   LIG    1        2.934   0.633  -4.353  0.00  0.00    +0.025 A 
BRANCH  15  22
ATOM     21  C   LIG    1        1.255  -2.721  -4.507  0.00  0.00    +0.129 C 
ATOM     22  N   LIG    1        2.199  -1.630  -4.761  0.00  0.00    -0.336 N 
ATOM     23  C   LIG    1        3.312  -1.827  -5.693  0.00  0.00    +0.129 C 
ENDBRANCH  15  22
ENDBRANCH   9  18
ENDBRANCH   1  12
BRANCH   3  24
ATOM     24  N   LIG    1        7.187   5.477  -0.046  0.00  0.00    -0.268 N 
ATOM     25  H   LIG    1        8.002   5.968  -0.236  0.00  0.00    +0.156 HD
ATOM     26  C   LIG    1        7.255   4.216   0.425  0.00  0.00    +0.308 C 
ATOM     27  N   LIG    1        8.451   3.670   0.719  0.00  0.00    -0.269 N 
ATOM     28  H   LIG    1        9.258   4.204   0.652  0.00  0.00    +0.156 HD
ATOM     29  O   LIG    1        6.237   3.570   0.583  0.00  0.00    -0.252 OA
BRANCH  27  30
ATOM     30  C   LIG    1        8.530   2.329   1.123  0.00  0.00    +0.035 A 
ATOM     31  C   LIG    1        9.607   1.548   0.728  0.00  0.00    +0.025 A 
ATOM     32  C   LIG    1        9.688   0.229   1.130  0.00  0.00    +0.025 A 
ATOM     33  C   LIG    1        8.685  -0.318   1.921  0.00  0.00    +0.029 A 
ATOM     34  C   LIG    1        7.605   0.463   2.311  0.00  0.00    +0.025 A 
ATOM     35  C   LIG    1        7.528   1.782   1.913  0.00  0.00    +0.025 A 
BRANCH  33  36
ATOM     36  N   LIG    1        8.764  -1.655   2.324  0.00  0.00    -0.336 N 
ATOM     37  C   LIG    1        9.904  -2.479   1.913  0.00  0.00    +0.129 C 
ATOM     38  C   LIG    1        7.707  -2.232   3.158  0.00  0.00    +0.129 C 
ENDBRANCH  33  36
ENDBRANCH  27  30
ENDBRANCH   3  24
TORSDOF 6
