REMARK  Name = ZINC00385644
REMARK                            x       y       z     vdW  Elec       q    Type
REMARK                         _______ _______ _______ _____ _____    ______ ____
ROOT
ATOM      1  C   LIG    1       -1.157   4.843  -2.806  0.00  0.00    +0.342 C 
ATOM      2  O   LIG    1       -0.255   5.458  -2.271  0.00  0.00    -0.245 OA
ENDROOT
BRANCH   1   5
ATOM      3  C   LIG    1       -3.538   5.260  -5.681  0.00  0.00    +0.003 A 
ATOM      4  C   LIG    1       -2.886   4.721  -4.587  0.00  0.00    +0.017 A 
ATOM      5  C   LIG    1       -1.851   5.420  -3.970  0.00  0.00    +0.086 A 
ATOM      6  C   LIG    1       -1.478   6.687  -4.465  0.00  0.00    +0.103 A 
ATOM      7  C   LIG    1       -2.150   7.215  -5.580  0.00  0.00    +0.067 A 
ATOM      8  N   LIG    1       -1.566   8.442  -5.829  0.00  0.00    -0.344 N 
ATOM      9  C   LIG    1       -0.591   8.618  -4.900  0.00  0.00    +0.197 A 
ATOM     10  H   LIG    1       -1.815   9.082  -6.557  0.00  0.00    +0.167 HD
ATOM     11  N   LIG    1       -0.541   7.586  -4.106  0.00  0.00    -0.235 NA
ATOM     12  C   LIG    1       -3.177   6.497  -6.176  0.00  0.00    +0.028 A 
ENDBRANCH   1   5
BRANCH   1  13
ATOM     13  O   LIG    1       -1.522   3.635  -2.333  0.00  0.00    -0.459 OA
BRANCH  13  14
ATOM     14  C   LIG    1       -0.794   3.129  -1.183  0.00  0.00    +0.163 C 
ATOM     15  C   LIG    1       -1.498   3.569   0.103  0.00  0.00    -0.033 C 
ATOM     16  N   LIG    1       -1.919   2.390   0.890  0.00  0.00    +0.382 N 
ATOM     17  H   LIG    1       -2.387   2.711   1.746  0.00  0.00    -0.082 HD
ATOM     18  C   LIG    1       -2.865   1.570   0.104  0.00  0.00    -0.078 C 
ATOM     19  C   LIG    1       -2.201   1.073  -1.183  0.00  0.00    -0.012 C 
ATOM     20  C   LIG    1       -0.735   1.582   1.264  0.00  0.00    -0.078 C 
ATOM     21  C   LIG    1       -0.013   1.086   0.008  0.00  0.00    -0.012 C 
ATOM     22  C   LIG    1       -0.760   1.597  -1.230  0.00  0.00    +0.024 C 
ENDBRANCH  13  14
ENDBRANCH   1  13
TORSDOF 3
