REMARK  Name = ZINC00393900
REMARK                            x       y       z     vdW  Elec       q    Type
REMARK                         _______ _______ _______ _____ _____    ______ ____
ROOT
ATOM      1  C   LIG    1       -3.716   0.504  -3.280  0.00  0.00    +0.173 A 
ATOM      2  C   LIG    1       -2.868   1.593  -3.410  0.00  0.00    +0.050 A 
ATOM      3  C   LIG    1       -2.105   2.006  -2.334  0.00  0.00    +0.008 A 
ATOM      4  C   LIG    1       -2.177   1.330  -1.131  0.00  0.00    -0.040 A 
ATOM      5  C   LIG    1       -3.021   0.244  -0.994  0.00  0.00    +0.053 A 
ATOM      6  C   LIG    1       -3.793  -0.173  -2.066  0.00  0.00    +0.162 A 
ENDROOT
BRANCH   6   7
ATOM      7  O   LIG    1       -4.623  -1.241  -1.934  0.00  0.00    -0.491 OA
ATOM      8  C   LIG    1       -4.650  -1.888  -0.660  0.00  0.00    +0.277 C 
ENDBRANCH   6   7
BRANCH   1   9
ATOM      9  O   LIG    1       -4.472   0.099  -4.335  0.00  0.00    -0.422 OA
BRANCH   9  11
ATOM     10  C   LIG    1       -6.683  -0.006  -5.430  0.00  0.00    +0.136 C 
ATOM     11  C   LIG    1       -5.752   0.502  -4.359  0.00  0.00    +0.309 C 
ATOM     12  O   LIG    1       -6.159   1.272  -3.521  0.00  0.00    -0.251 OA
ENDBRANCH   9  11
ENDBRANCH   1   9
BRANCH   4  13
ATOM     13  C   LIG    1       -1.337   1.782   0.037  0.00  0.00    +0.061 C 
BRANCH  13  14
ATOM     14  C   LIG    1       -0.011   1.067   0.009  0.00  0.00    -0.030 C 
ATOM     15  C   LIG    1        1.104   1.754   0.009  0.00  0.00    +0.004 C 
ENDBRANCH  13  14
ENDBRANCH   4  13
TORSDOF 5
