REMARK  Name = ZINC00598622
REMARK                            x       y       z     vdW  Elec       q    Type
REMARK                         _______ _______ _______ _____ _____    ______ ____
ROOT
ATOM      1  C   LIG    1       -1.508   3.376   0.975  0.00  0.00    -0.045 A 
ATOM      2  C   LIG    1       -1.494   2.006   1.153  0.00  0.00    +0.007 A 
ATOM      3  C   LIG    1       -0.319   1.361   1.490  0.00  0.00    +0.049 A 
ATOM      4  C   LIG    1        0.852   2.087   1.639  0.00  0.00    +0.162 A 
ATOM      5  C   LIG    1        0.839   3.466   1.454  0.00  0.00    +0.162 A 
ATOM      6  C   LIG    1       -0.344   4.107   1.122  0.00  0.00    +0.053 A 
ENDROOT
BRANCH   4   7
ATOM      7  O   LIG    1        2.010   1.454   1.964  0.00  0.00    -0.491 OA
ATOM      8  C   LIG    1        1.948   0.036   2.138  0.00  0.00    +0.277 C 
ENDBRANCH   4   7
BRANCH   1   9
ATOM      9  C   LIG    1       -2.793   4.075   0.613  0.00  0.00    +0.017 C 
BRANCH   9  10
ATOM     10  C   LIG    1       -2.935   4.127  -0.909  0.00  0.00    -0.074 C 
BRANCH  10  11
ATOM     11  N   LIG    1       -4.189   4.833  -1.248  0.00  0.00    +0.380 N 
ATOM     12  H   LIG    1       -4.210   5.731  -0.751  0.00  0.00    -0.082 HD
BRANCH  11  13
ATOM     13  C   LIG    1       -4.248   5.087  -2.702  0.00  0.00    -0.079 C 
BRANCH  13  15
ATOM     14  C   LIG    1       -3.494   6.642  -4.507  0.00  0.00    +0.002 C 
ATOM     15  C   LIG    1       -3.337   6.272  -3.030  0.00  0.00    -0.022 C 
ENDBRANCH  13  15
ENDBRANCH  11  13
BRANCH  11  16
ATOM     16  C   LIG    1       -5.353   4.024  -0.828  0.00  0.00    -0.079 C 
BRANCH  16  17
ATOM     17  C   LIG    1       -6.598   4.913  -0.841  0.00  0.00    -0.022 C 
ATOM     18  C   LIG    1       -7.815   4.092  -0.408  0.00  0.00    +0.002 C 
ENDBRANCH  16  17
ENDBRANCH  11  16
ENDBRANCH  10  11
ENDBRANCH   9  10
ENDBRANCH   1   9
BRANCH   5  19
ATOM     19  O   LIG    1        1.986   4.184   1.599  0.00  0.00    -0.488 OA
BRANCH  19  20
ATOM     20  C   LIG    1        1.898   5.595   1.394  0.00  0.00    +0.234 C 
BRANCH  20  21
ATOM     21  C   LIG    1        3.276   6.227   1.599  0.00  0.00    +0.076 C 
BRANCH  21  22
ATOM     22  C   LIG    1        3.184   7.715   1.383  0.00  0.00    -0.044 A 
ATOM     23  C   LIG    1        3.390   8.245   0.123  0.00  0.00    +0.004 A 
ATOM     24  C   LIG    1        3.300   9.610  -0.076  0.00  0.00    +0.000 A 
ATOM     25  C   LIG    1        3.014  10.446   0.987  0.00  0.00    +0.000 A 
ATOM     26  C   LIG    1        2.814   9.917   2.248  0.00  0.00    +0.000 A 
ATOM     27  C   LIG    1        2.898   8.552   2.446  0.00  0.00    +0.004 A 
ENDBRANCH  21  22
ENDBRANCH  20  21
ENDBRANCH  19  20
ENDBRANCH   5  19
TORSDOF 12
