REMARK  Name = ZINC00635350
REMARK                            x       y       z     vdW  Elec       q    Type
REMARK                         _______ _______ _______ _____ _____    ______ ____
ROOT
ATOM      1  N   LIG    1        3.461   3.476  -0.698  0.00  0.00    -0.244 N 
ATOM      2  C   LIG    1        3.600   2.180  -0.034  0.00  0.00    +0.198 C 
ATOM      3  N   LIG    1        4.637   1.380  -0.697  0.00  0.00    -0.321 N 
ATOM      4  H   LIG    1        5.283   0.880  -0.175  0.00  0.00    +0.148 HD
ATOM      5  C   LIG    1        4.674   1.353  -2.086  0.00  0.00    +0.041 A 
ATOM      6  C   LIG    1        5.164   0.259  -2.780  0.00  0.00    +0.024 A 
ATOM      7  C   LIG    1        5.192   0.282  -4.162  0.00  0.00    +0.002 A 
ATOM      8  C   LIG    1        4.734   1.390  -4.857  0.00  0.00    +0.001 A 
ATOM      9  C   LIG    1        4.238   2.486  -4.181  0.00  0.00    +0.015 A 
ATOM     10  C   LIG    1        4.201   2.474  -2.788  0.00  0.00    +0.058 A 
ATOM     11  C   LIG    1        3.659   3.610  -2.021  0.00  0.00    +0.254 C 
ATOM     12  O   LIG    1        3.394   4.657  -2.580  0.00  0.00    -0.270 OA
ENDROOT
BRANCH   2  13
ATOM     13  C   LIG    1        2.287   1.444  -0.095  0.00  0.00    -0.005 A 
ATOM     14  C   LIG    1        1.099   2.152  -0.124  0.00  0.00    +0.011 A 
ATOM     15  C   LIG    1       -0.108   1.481  -0.181  0.00  0.00    +0.050 A 
ATOM     16  C   LIG    1       -0.131   0.096  -0.209  0.00  0.00    +0.166 A 
ATOM     17  C   LIG    1        1.065  -0.617  -0.178  0.00  0.00    +0.167 A 
ATOM     18  O   LIG    1        0.778  -1.951  -0.215  0.00  0.00    -0.453 OA
ATOM     19  C   LIG    1       -0.582  -2.040  -0.679  0.00  0.00    +0.466 C 
ATOM     20  O   LIG    1       -1.167  -0.791  -0.264  0.00  0.00    -0.453 OA
ATOM     21  C   LIG    1        2.271   0.062  -0.122  0.00  0.00    +0.056 A 
ENDBRANCH   2  13
BRANCH   1  25
ATOM     22  C   LIG    1        2.422   6.827   1.548  0.00  0.00    -0.042 A 
ATOM     23  C   LIG    1        3.560   6.109   1.865  0.00  0.00    +0.006 A 
ATOM     24  C   LIG    1        3.908   4.998   1.123  0.00  0.00    +0.024 A 
ATOM     25  C   LIG    1        3.111   4.601   0.056  0.00  0.00    +0.039 A 
ATOM     26  C   LIG    1        1.971   5.326  -0.263  0.00  0.00    +0.024 A 
ATOM     27  C   LIG    1        1.627   6.434   0.486  0.00  0.00    +0.006 A 
BRANCH  22  29
ATOM     28  C   LIG    1        3.171   9.074   2.280  0.00  0.00    +0.015 C 
ATOM     29  C   LIG    1        2.046   8.040   2.359  0.00  0.00    -0.013 C 
ATOM     30  C   LIG    1        1.832   7.630   3.818  0.00  0.00    +0.015 C 
ATOM     31  C   LIG    1        0.756   8.646   1.804  0.00  0.00    +0.015 C 
ENDBRANCH  22  29
ENDBRANCH   1  25
TORSDOF 3
