REMARK  Name = ZINC00630910
REMARK                            x       y       z     vdW  Elec       q    Type
REMARK                         _______ _______ _______ _____ _____    ______ ____
ROOT
ATOM      1  C   LIG    1        5.395   1.855   3.652  0.00  0.00    -0.032 A 
ATOM      2  C   LIG    1        6.759   1.680   3.799  0.00  0.00    +0.006 A 
ATOM      3  C   LIG    1        7.399   2.141   4.931  0.00  0.00    +0.013 A 
ATOM      4  C   LIG    1        6.667   2.783   5.930  0.00  0.00    +0.037 A 
ATOM      5  C   LIG    1        5.290   2.956   5.776  0.00  0.00    +0.013 A 
ATOM      6  C   LIG    1        4.664   2.496   4.637  0.00  0.00    +0.006 A 
ENDROOT
BRANCH   4   7
ATOM      7  C   LIG    1        7.346   3.279   7.146  0.00  0.00    +0.247 C 
ATOM      8  N   LIG    1        8.548   3.881   7.049  0.00  0.00    -0.298 N 
ATOM      9  C   LIG    1        9.135   4.173   5.734  0.00  0.00    +0.108 C 
ATOM     10  C   LIG    1        9.497   5.660   5.674  0.00  0.00    +0.019 C 
ATOM     11  C   LIG    1       10.402   6.008   6.858  0.00  0.00    +0.003 C 
ATOM     12  C   LIG    1        9.656   5.745   8.168  0.00  0.00    +0.019 C 
ATOM     13  C   LIG    1        9.293   4.264   8.256  0.00  0.00    +0.108 C 
ATOM     14  O   LIG    1        6.821   3.143   8.234  0.00  0.00    -0.270 OA
ENDBRANCH   4   7
BRANCH   1  15
ATOM     15  C   LIG    1        4.702   1.349   2.413  0.00  0.00    +0.141 C 
BRANCH  15  16
ATOM     16  N   LIG    1        4.705   2.398   1.390  0.00  0.00    -0.186 NA
ATOM     17  H   LIG    1        4.912   3.313   1.635  0.00  0.00    +0.148 HD
BRANCH  16  18
ATOM     18  S   LIG    1        4.355   2.020  -0.184  0.00  0.00    +0.059 S 
ATOM     19  O   LIG    1        4.412   3.237  -0.916  0.00  0.00    -0.153 OA
ATOM     20  O   LIG    1        5.152   0.892  -0.518  0.00  0.00    -0.153 OA
BRANCH  18  23
ATOM     21  C   LIG    1        0.347   1.979  -0.475  0.00  0.00    +0.003 A 
ATOM     22  C   LIG    1        1.664   2.400  -0.439  0.00  0.00    +0.028 A 
ATOM     23  C   LIG    1        2.677   1.483  -0.230  0.00  0.00    +0.107 A 
ATOM     24  C   LIG    1        2.375   0.146  -0.057  0.00  0.00    +0.048 A 
ATOM     25  C   LIG    1        1.058  -0.276  -0.093  0.00  0.00    +0.043 A 
ATOM     26 CL   LIG    1        0.677  -1.956   0.124  0.00  0.00    -0.083 Cl
ATOM     27  C   LIG    1        0.044   0.642  -0.302  0.00  0.00    +0.020 A 
ENDBRANCH  18  23
ENDBRANCH  16  18
ENDBRANCH  15  16
ENDBRANCH   1  15
TORSDOF 5
