REMARK  Name = ZINC00388514
REMARK                            x       y       z     vdW  Elec       q    Type
REMARK                         _______ _______ _______ _____ _____    ______ ____
ROOT
ATOM      1  C   LIG    1       -1.248   3.789   0.033  0.00  0.00    +0.003 A 
ATOM      2  C   LIG    1       -0.061   4.497   0.026  0.00  0.00    +0.020 A 
ATOM      3  C   LIG    1        1.147   3.823   0.011  0.00  0.00    +0.046 A 
ATOM      4 CL   LIG    1        2.638   4.712   0.001  0.00  0.00    -0.083 Cl
ATOM      5  C   LIG    1        1.167   2.440   0.004  0.00  0.00    -0.000 A 
ATOM      6  C   LIG    1       -0.021   1.732   0.012  0.00  0.00    +0.046 A 
ATOM      7 CL   LIG    1        0.002  -0.004   0.002  0.00  0.00    -0.083 Cl
ATOM      8  C   LIG    1       -1.229   2.407   0.021  0.00  0.00    +0.020 A 
ENDROOT
BRANCH   5   9
ATOM      9  C   LIG    1        2.482   1.705  -0.013  0.00  0.00    +0.158 C 
BRANCH   9  10
ATOM     10  C   LIG    1        2.907   1.467  -1.439  0.00  0.00    +0.309 C 
ATOM     11  O   LIG    1        2.213   1.855  -2.348  0.00  0.00    -0.251 OA
BRANCH  10  12
ATOM     12  O   LIG    1        4.057   0.825  -1.698  0.00  0.00    -0.480 OA
ATOM     13  H   LIG    1        4.595   0.524  -0.993  0.00  0.00    +0.295 HD
ENDBRANCH  10  12
ENDBRANCH   9  10
ENDBRANCH   5   9
TORSDOF 3
