REMARK  Name = ZINC00457380
REMARK                            x       y       z     vdW  Elec       q    Type
REMARK                         _______ _______ _______ _____ _____    ______ ____
ROOT
ATOM      1  C   LIG    1        1.163  -2.112  -0.119  0.00  0.00    +0.072 A 
ATOM      2  C   LIG    1        1.192  -0.709  -0.116  0.00  0.00    +0.044 A 
ATOM      3  C   LIG    1        0.002  -0.004   0.002  0.00  0.00    +0.070 A 
ATOM      4  C   LIG    1       -1.231  -0.783   0.125  0.00  0.00    +0.016 A 
ATOM      5  C   LIG    1       -2.479  -0.162   0.242  0.00  0.00    +0.030 A 
ATOM      6  C   LIG    1       -3.605  -0.926   0.349  0.00  0.00    +0.042 A 
ATOM      7 CL   LIG    1       -5.153  -0.155   0.502  0.00  0.00    -0.084 Cl
ATOM      8  C   LIG    1       -3.526  -2.318   0.337  0.00  0.00    +0.022 A 
ATOM      9  C   LIG    1       -2.329  -2.953   0.218  0.00  0.00    +0.030 A 
ATOM     10  C   LIG    1       -1.146  -2.198   0.106  0.00  0.00    +0.073 A 
ATOM     11  N   LIG    1        0.041  -2.793  -0.012  0.00  0.00    -0.247 NA
ENDROOT
BRANCH   1  15
ATOM     12  C   LIG    1        4.828  -4.239  -0.483  0.00  0.00    +0.120 A 
ATOM     13  C   LIG    1        3.631  -4.934  -0.370  0.00  0.00    +0.046 A 
ATOM     14  C   LIG    1        2.441  -4.248  -0.252  0.00  0.00    +0.013 A 
ATOM     15  C   LIG    1        2.440  -2.853  -0.246  0.00  0.00    +0.001 A 
ATOM     16  C   LIG    1        3.643  -2.158  -0.366  0.00  0.00    +0.013 A 
ATOM     17  C   LIG    1        4.830  -2.850  -0.478  0.00  0.00    +0.046 A 
BRANCH  12  19
ATOM     18  C   LIG    1        7.191  -4.139  -0.712  0.00  0.00    +0.277 C 
ATOM     19  O   LIG    1        5.998  -4.918  -0.599  0.00  0.00    -0.495 OA
ENDBRANCH  12  19
ENDBRANCH   1  15
BRANCH   3  20
ATOM     20  C   LIG    1       -0.018   1.474   0.010  0.00  0.00    +0.340 C 
ATOM     21  O   LIG    1       -1.078   2.067   0.011  0.00  0.00    -0.245 OA
BRANCH  20  22
ATOM     22  O   LIG    1        1.139   2.163   0.011  0.00  0.00    -0.464 OA
ATOM     23  C   LIG    1        1.044   3.612   0.019  0.00  0.00    +0.280 C 
ENDBRANCH  20  22
ENDBRANCH   3  20
TORSDOF 4
