REMARK  Name = ZINC00403074
REMARK                            x       y       z     vdW  Elec       q    Type
REMARK                         _______ _______ _______ _____ _____    ______ ____
ROOT
ATOM      1  C   LIG    1        1.411   4.388   0.011  0.00  0.00    +0.150 C 
ATOM      2  N   LIG    1        0.599   3.169   0.013  0.00  0.00    -0.337 N 
ATOM      3  C   LIG    1       -0.750   3.104   0.025  0.00  0.00    +0.199 A 
ATOM      4  N   LIG    1       -1.108   1.849   0.017  0.00  0.00    -0.244 NA
ATOM      5  C   LIG    1       -0.013   1.076   0.008  0.00  0.00    +0.133 A 
ATOM      6  C   LIG    1        1.066   1.882   0.002  0.00  0.00    +0.036 A 
ENDROOT
BRANCH   6   7
ATOM      7  C   LIG    1        2.510   1.450  -0.014  0.00  0.00    +0.035 C 
BRANCH   7   8
ATOM      8  C   LIG    1        2.949   1.191  -1.456  0.00  0.00    -0.080 C 
BRANCH   8   9
ATOM      9  N   LIG    1        4.355   0.749  -1.458  0.00  0.00    +0.378 N 
ATOM     10  H   LIG    1        4.433  -0.129  -0.932  0.00  0.00    -0.090 HD
ATOM     11  H   LIG    1        4.943   1.454  -1.018  0.00  0.00    -0.090 HD
ATOM     12  H   LIG    1        4.670   0.592  -2.414  0.00  0.00    -0.090 HD
ENDBRANCH   8   9
ENDBRANCH   7   8
ENDBRANCH   6   7
TORSDOF 3
