REMARK  Name = ZINC00598852
REMARK                            x       y       z     vdW  Elec       q    Type
REMARK                         _______ _______ _______ _____ _____    ______ ____
ROOT
ATOM      1  C   LIG    1        0.543   1.507   0.018  0.00  0.00    +0.008 C 
ATOM      2  C   LIG    1        0.545   0.000   0.010  0.00  0.00    -0.002 C 
ATOM      3  C   LIG    1        0.698  -0.680  -1.163  0.00  0.00    +0.009 C 
ATOM      4  C   LIG    1        0.703  -2.071  -1.187  0.00  0.00    +0.007 C 
ATOM      5  C   LIG    1        0.555  -2.794  -0.040  0.00  0.00    +0.019 C 
ATOM      6  C   LIG    1        0.396  -2.127   1.182  0.00  0.00    +0.062 C 
ATOM      7  N   LIG    1        0.246  -2.792   2.338  0.00  0.00    -0.286 NA
ATOM      8  H   LIG    1        0.247  -3.761   2.340  0.00  0.00    +0.125 HD
ATOM      9  C   LIG    1        0.115  -2.134   3.474  0.00  0.00    +0.193 C 
ATOM     10  N   LIG    1        0.105  -0.805   3.539  0.00  0.00    -0.274 NA
ATOM     11  H   LIG    1       -0.788  -0.544   3.959  0.00  0.00    +0.126 HD
ATOM     12  C   LIG    1        0.240  -0.059   2.453  0.00  0.00    +0.126 C 
ATOM     13  C   LIG    1        0.397  -0.711   1.205  0.00  0.00    +0.041 C 
ENDROOT
BRANCH   9  14
ATOM     14  N   LIG    1       -0.031  -2.856   4.645  0.00  0.00    -0.303 NA
ATOM     15  H   LIG    1       -0.026  -3.825   4.620  0.00  0.00    +0.121 HD
ATOM     16  H   LIG    1       -0.137  -2.392   5.490  0.00  0.00    +0.121 HD
ENDBRANCH   9  14
BRANCH  12  17
ATOM     17  N   LIG    1        0.228   1.317   2.535  0.00  0.00    -0.315 NA
ATOM     18  H   LIG    1        0.863   1.839   2.019  0.00  0.00    +0.120 HD
ATOM     19  H   LIG    1       -0.414   1.764   3.109  0.00  0.00    +0.120 HD
ENDBRANCH  12  17
BRANCH   3  20
ATOM     20  C   LIG    1        0.863   0.086  -2.451  0.00  0.00    +0.105 C 
BRANCH  20  21
ATOM     21  N   LIG    1        2.250   0.542  -2.573  0.00  0.00    -0.343 N 
ATOM     22  H   LIG    1        2.892   0.334  -1.877  0.00  0.00    +0.146 HD
BRANCH  21  23
ATOM     23  C   LIG    1        2.647   1.280  -3.693  0.00  0.00    +0.034 A 
ATOM     24  C   LIG    1        1.726   1.584  -4.686  0.00  0.00    +0.072 A 
ATOM     25  C   LIG    1        2.119   2.315  -5.797  0.00  0.00    +0.167 A 
ATOM     26  C   LIG    1        3.436   2.743  -5.916  0.00  0.00    +0.204 A 
ATOM     27  C   LIG    1        4.357   2.439  -4.921  0.00  0.00    +0.167 A 
ATOM     28  C   LIG    1        3.961   1.713  -3.808  0.00  0.00    +0.072 A 
BRANCH  25  29
ATOM     29  O   LIG    1        1.216   2.612  -6.770  0.00  0.00    -0.491 OA
ATOM     30  C   LIG    1       -0.119   2.139  -6.582  0.00  0.00    +0.277 C 
ENDBRANCH  25  29
BRANCH  26  31
ATOM     31  O   LIG    1        3.822   3.461  -7.006  0.00  0.00    -0.488 OA
ATOM     32  C   LIG    1        3.710   4.883  -6.921  0.00  0.00    +0.277 C 
ENDBRANCH  26  31
BRANCH  27  33
ATOM     33  O   LIG    1        5.646   2.858  -5.036  0.00  0.00    -0.491 OA
ATOM     34  C   LIG    1        6.539   2.509  -3.977  0.00  0.00    +0.277 C 
ENDBRANCH  27  33
ENDBRANCH  21  23
ENDBRANCH  20  21
ENDBRANCH   3  20
TORSDOF 8
