REMARK  Name = ZINC00366941
REMARK                            x       y       z     vdW  Elec       q    Type
REMARK                         _______ _______ _______ _____ _____    ______ ____
ROOT
ATOM      1  C   LIG    1        3.698  -0.688  -0.038  0.00  0.00    -0.018 A 
ATOM      2  C   LIG    1        4.895   0.029  -0.041  0.00  0.00    +0.009 A 
ATOM      3  C   LIG    1        6.098  -0.639  -0.057  0.00  0.00    +0.014 A 
ATOM      4  C   LIG    1        6.121  -2.036  -0.070  0.00  0.00    +0.039 A 
ATOM      5  C   LIG    1        4.922  -2.753  -0.068  0.00  0.00    +0.014 A 
ATOM      6  C   LIG    1        3.720  -2.083  -0.046  0.00  0.00    +0.009 A 
ENDROOT
BRANCH   1  10
ATOM      7  C   LIG    1       -0.017   1.379   0.010  0.00  0.00    +0.000 A 
ATOM      8  C   LIG    1        1.169   2.092   0.002  0.00  0.00    +0.001 A 
ATOM      9  C   LIG    1        2.377   1.427  -0.013  0.00  0.00    +0.008 A 
ATOM     10  C   LIG    1        2.402   0.033  -0.021  0.00  0.00    -0.018 A 
ATOM     11  C   LIG    1        1.205  -0.680  -0.013  0.00  0.00    +0.008 A 
ATOM     12  C   LIG    1        0.002  -0.004   0.002  0.00  0.00    +0.001 A 
ENDBRANCH   1  10
BRANCH   4  13
ATOM     13  C   LIG    1        7.412  -2.754  -0.088  0.00  0.00    +0.259 A 
ATOM     14  N   LIG    1        7.567  -4.058  -0.107  0.00  0.00    -0.186 NA
ATOM     15  C   LIG    1        8.874  -4.363  -0.119  0.00  0.00    +0.221 A 
ATOM     16  N   LIG    1        9.568  -3.251  -0.108  0.00  0.00    -0.054 NA
ATOM     17  O   LIG    1        8.630  -2.186  -0.093  0.00  0.00    -0.332 OA
BRANCH  15  18
ATOM     18  C   LIG    1        9.440  -5.735  -0.141  0.00  0.00    +0.111 A 
ATOM     19  C   LIG    1       10.822  -5.912  -0.146  0.00  0.00    +0.031 A 
ATOM     20  C   LIG    1       11.335  -7.197  -0.167  0.00  0.00    +0.004 A 
ATOM     21  C   LIG    1       10.449  -8.264  -0.182  0.00  0.00    +0.020 A 
ATOM     22  C   LIG    1        9.088  -8.016  -0.176  0.00  0.00    +0.111 A 
ATOM     23  N   LIG    1        8.627  -6.782  -0.151  0.00  0.00    -0.252 NA
ENDBRANCH  15  18
ENDBRANCH   4  13
TORSDOF 3
