REMARK  Name = ZINC00538544
REMARK                            x       y       z     vdW  Elec       q    Type
REMARK                         _______ _______ _______ _____ _____    ______ ____
ROOT
ATOM      1  C   LIG    1       -2.053  -0.124   1.328  0.00  0.00    +0.000 C 
ENDROOT
BRANCH   1   2
ATOM      2  C   LIG    1       -1.376  -0.512   0.012  0.00  0.00    -0.078 C 
BRANCH   2   4
ATOM      3  C   LIG    1       -0.018   1.465   0.010  0.00  0.00    -0.096 C 
ATOM      4  N   LIG    1        0.002  -0.004   0.002  0.00  0.00    +0.378 N 
ATOM      5  H   LIG    1        0.490  -0.338   0.820  0.00  0.00    -0.082 HD
BRANCH   4   6
ATOM      6  C   LIG    1        0.690  -0.478  -1.207  0.00  0.00    -0.075 C 
BRANCH   6   7
ATOM      7  C   LIG    1        2.159  -0.053  -1.157  0.00  0.00    +0.017 C 
BRANCH   7   8
ATOM      8  C   LIG    1        2.864  -0.539  -2.397  0.00  0.00    -0.045 A 
ATOM      9  C   LIG    1        3.459  -1.787  -2.408  0.00  0.00    +0.007 A 
ATOM     10  C   LIG    1        4.107  -2.238  -3.543  0.00  0.00    +0.049 A 
ATOM     11  C   LIG    1        4.162  -1.438  -4.673  0.00  0.00    +0.161 A 
ATOM     12  C   LIG    1        3.562  -0.182  -4.662  0.00  0.00    +0.162 A 
ATOM     13  C   LIG    1        2.910   0.261  -3.523  0.00  0.00    +0.053 A 
BRANCH  11  14
ATOM     14  O   LIG    1        4.799  -1.879  -5.790  0.00  0.00    -0.491 OA
ATOM     15  C   LIG    1        5.391  -3.178  -5.728  0.00  0.00    +0.277 C 
ENDBRANCH  11  14
BRANCH  12  16
ATOM     16  O   LIG    1        3.613   0.607  -5.769  0.00  0.00    -0.491 OA
ATOM     17  C   LIG    1        2.977   1.883  -5.686  0.00  0.00    +0.277 C 
ENDBRANCH  12  16
ENDBRANCH   7   8
ENDBRANCH   6   7
ENDBRANCH   4   6
ENDBRANCH   2   4
ENDBRANCH   1   2
BRANCH   1  18
ATOM     18  C   LIG    1       -3.488  -0.654   1.339  0.00  0.00    +0.106 C 
BRANCH  18  19
ATOM     19  N   LIG    1       -4.137  -0.282   2.599  0.00  0.00    -0.301 N 
ATOM     20  C   LIG    1       -3.969  -1.262   3.654  0.00  0.00    +0.112 C 
ATOM     21  C   LIG    1       -4.894  -1.023   4.831  0.00  0.00    +0.054 C 
ATOM     22  C   LIG    1       -4.578   0.269   5.525  0.00  0.00    -0.039 A 
ATOM     23  C   LIG    1       -3.991   0.219   6.786  0.00  0.00    +0.053 A 
ATOM     24  C   LIG    1       -3.661   1.393   7.441  0.00  0.00    +0.162 A 
ATOM     25  C   LIG    1       -3.911   2.622   6.838  0.00  0.00    +0.162 A 
ATOM     26  C   LIG    1       -4.506   2.661   5.586  0.00  0.00    +0.053 A 
ATOM     27  C   LIG    1       -4.844   1.477   4.954  0.00  0.00    -0.032 A 
ATOM     28  C   LIG    1       -5.563   1.516   3.629  0.00  0.00    +0.131 C 
ATOM     29  C   LIG    1       -4.751   0.874   2.556  0.00  0.00    +0.220 C 
ATOM     30  O   LIG    1       -4.651   1.493   1.518  0.00  0.00    -0.275 OA
BRANCH  24  31
ATOM     31  O   LIG    1       -3.091   1.345   8.674  0.00  0.00    -0.491 OA
ATOM     32  C   LIG    1       -2.863   0.050   9.234  0.00  0.00    +0.277 C 
ENDBRANCH  24  31
BRANCH  25  33
ATOM     33  O   LIG    1       -3.575   3.777   7.473  0.00  0.00    -0.491 OA
ATOM     34  C   LIG    1       -3.863   5.000   6.791  0.00  0.00    +0.277 C 
ENDBRANCH  25  33
ENDBRANCH  18  19
ENDBRANCH   1  18
TORSDOF 11
