REMARK  Name = ZINC00601304
REMARK                            x       y       z     vdW  Elec       q    Type
REMARK                         _______ _______ _______ _____ _____    ______ ____
ROOT
ATOM      1  C   LIG    1       -1.270  -0.609  -0.351  0.00  0.00    +0.147 C 
ATOM      2  C   LIG    1       -2.418   0.126  -0.271  0.00  0.00    +0.042 C 
ATOM      3  C   LIG    1       -3.656  -0.525  -0.218  0.00  0.00    +0.040 C 
ATOM      4  C   LIG    1       -3.712  -1.940  -0.246  0.00  0.00    +0.065 C 
ATOM      5  N   LIG    1       -4.911  -2.541  -0.195  0.00  0.00    -0.286 NA
ATOM      6  H   LIG    1       -4.966  -3.509  -0.214  0.00  0.00    +0.125 HD
ATOM      7  C   LIG    1       -6.015  -1.823  -0.118  0.00  0.00    +0.198 C 
ATOM      8  N   LIG    1       -6.008  -0.493  -0.089  0.00  0.00    -0.273 NA
ATOM      9  H   LIG    1       -6.474  -0.221   0.776  0.00  0.00    +0.126 HD
ATOM     10  C   LIG    1       -2.522  -2.674  -0.328  0.00  0.00    +0.053 C 
ATOM     11  C   LIG    1       -4.875   0.193  -0.135  0.00  0.00    +0.126 C 
ATOM     12  C   LIG    1       -1.317  -2.009  -0.385  0.00  0.00    +0.148 C 
ENDROOT
BRANCH   7  13
ATOM     13  N   LIG    1       -7.232  -2.481  -0.067  0.00  0.00    -0.272 NA
ATOM     14  C   LIG    1       -7.298  -3.942  -0.205  0.00  0.00    +0.106 C 
ATOM     15  C   LIG    1       -8.031  -4.517   1.013  0.00  0.00    +0.123 C 
ATOM     16  N   LIG    1       -9.279  -3.767   1.208  0.00  0.00    -0.293 N 
ATOM     17  C   LIG    1      -10.464  -4.407   1.258  0.00  0.00    +0.282 C 
ATOM     18  O   LIG    1      -11.499  -3.769   1.300  0.00  0.00    -0.267 OA
ATOM     19  C   LIG    1       -9.213  -2.305   1.347  0.00  0.00    +0.123 C 
ATOM     20  C   LIG    1       -8.479  -1.730   0.134  0.00  0.00    +0.106 C 
BRANCH  17  21
ATOM     21  C   LIG    1      -10.506  -5.873   1.262  0.00  0.00    +0.189 A 
ATOM     22  C   LIG    1      -11.629  -6.644   1.167  0.00  0.00    +0.054 A 
ATOM     23  C   LIG    1      -11.205  -7.981   1.211  0.00  0.00    +0.042 A 
ATOM     24  C   LIG    1       -9.858  -7.968   1.328  0.00  0.00    +0.196 A 
ATOM     25  O   LIG    1       -9.441  -6.696   1.354  0.00  0.00    -0.458 OA
ENDBRANCH  17  21
ENDBRANCH   7  13
BRANCH  11  26
ATOM     26  N   LIG    1       -4.882   1.572  -0.104  0.00  0.00    -0.315 NA
ATOM     27  H   LIG    1       -5.723   2.051  -0.047  0.00  0.00    +0.120 HD
ATOM     28  H   LIG    1       -4.046   2.062  -0.138  0.00  0.00    +0.120 HD
ENDBRANCH  11  26
BRANCH   1  30
ATOM     29  C   LIG    1       -0.085   1.453  -0.364  0.00  0.00    +0.194 C 
ATOM     30  O   LIG    1       -0.067   0.025  -0.403  0.00  0.00    -0.377 OA
ENDBRANCH   1  30
BRANCH  12  31
ATOM     31  O   LIG    1       -0.162  -2.719  -0.470  0.00  0.00    -0.377 OA
ATOM     32  C   LIG    1       -0.276  -4.143  -0.501  0.00  0.00    +0.194 C 
ENDBRANCH  12  31
TORSDOF 5
