REMARK  Name = ZINC00586243
REMARK                            x       y       z     vdW  Elec       q    Type
REMARK                         _______ _______ _______ _____ _____    ______ ____
ROOT
ATOM      1  C   LIG    1       -2.734  -1.216   2.011  0.00  0.00    +0.138 C 
ATOM      2  N   LIG    1       -2.038  -0.422   0.995  0.00  0.00    -0.271 N 
ATOM      3  C   LIG    1       -2.812   0.374   0.165  0.00  0.00    +0.045 A 
ATOM      4  C   LIG    1       -3.883   1.056   0.747  0.00  0.00    +0.024 A 
ATOM      5  C   LIG    1       -4.700   1.861  -0.015  0.00  0.00    +0.002 A 
ATOM      6  C   LIG    1       -4.465   2.003  -1.373  0.00  0.00    +0.001 A 
ATOM      7  C   LIG    1       -3.414   1.341  -1.963  0.00  0.00    +0.012 A 
ATOM      8  C   LIG    1       -2.572   0.518  -1.200  0.00  0.00    +0.022 A 
ATOM      9  C   LIG    1       -1.465  -0.158  -1.896  0.00  0.00    +0.077 C 
ATOM     10  N   LIG    1       -0.278  -0.302  -1.423  0.00  0.00    -0.251 NA
ATOM     11  C   LIG    1        0.094   0.203  -0.102  0.00  0.00    +0.279 C 
ATOM     12  C   LIG    1       -0.711  -0.522   0.941  0.00  0.00    +0.262 C 
ATOM     13  O   LIG    1       -0.137  -1.215   1.754  0.00  0.00    -0.271 OA
ENDROOT
BRANCH   9  14
ATOM     14  C   LIG    1       -1.740  -0.714  -3.241  0.00  0.00    +0.001 A 
ATOM     15  C   LIG    1       -3.044  -1.045  -3.609  0.00  0.00    +0.010 A 
ATOM     16  C   LIG    1       -3.294  -1.558  -4.865  0.00  0.00    +0.001 A 
ATOM     17  C   LIG    1       -2.253  -1.754  -5.755  0.00  0.00    +0.000 A 
ATOM     18  C   LIG    1       -0.957  -1.433  -5.394  0.00  0.00    +0.001 A 
ATOM     19  C   LIG    1       -0.695  -0.914  -4.143  0.00  0.00    +0.010 A 
ENDBRANCH   9  14
BRANCH  11  20
ATOM     20  N   LIG    1       -0.187   1.639  -0.029  0.00  0.00    -0.281 N 
ATOM     21  H   LIG    1       -1.102   1.950   0.059  0.00  0.00    +0.152 HD
ATOM     22  C   LIG    1        0.824   2.528  -0.089  0.00  0.00    +0.262 C 
ATOM     23  O   LIG    1        1.971   2.138  -0.204  0.00  0.00    -0.269 OA
BRANCH  22  24
ATOM     24  C   LIG    1        0.542   3.969  -0.015  0.00  0.00    +0.103 A 
ATOM     25  C   LIG    1        1.472   4.958  -0.064  0.00  0.00    +0.040 A 
ATOM     26  C   LIG    1        0.793   6.196   0.038  0.00  0.00    +0.000 A 
ATOM     27  C   LIG    1        1.219   7.530   0.044  0.00  0.00    +0.010 A 
ATOM     28  C   LIG    1        0.303   8.535   0.159  0.00  0.00    +0.001 A 
ATOM     29  C   LIG    1       -1.052   8.248   0.270  0.00  0.00    +0.002 A 
ATOM     30  C   LIG    1       -1.496   6.945   0.266  0.00  0.00    +0.026 A 
ATOM     31  C   LIG    1       -0.580   5.902   0.150  0.00  0.00    +0.047 A 
ATOM     32  N   LIG    1       -0.713   4.534   0.109  0.00  0.00    -0.351 N 
ATOM     33  H   LIG    1       -1.549   4.046   0.162  0.00  0.00    +0.166 HD
ENDBRANCH  22  24
ENDBRANCH  11  20
TORSDOF 3
