REMARK  Name = ZINC00473688
REMARK                            x       y       z     vdW  Elec       q    Type
REMARK                         _______ _______ _______ _____ _____    ______ ____
ROOT
ATOM      1  N   LIG    1       -1.594   2.051  -2.467  0.00  0.00    -0.275 N 
ATOM      2  H   LIG    1       -0.758   1.583  -2.618  0.00  0.00    +0.156 HD
ATOM      3  C   LIG    1       -2.320   2.490  -3.514  0.00  0.00    +0.251 C 
ATOM      4  O   LIG    1       -3.367   3.077  -3.324  0.00  0.00    -0.270 OA
ENDROOT
BRANCH   1  12
ATOM      5  C   LIG    1       -1.441   1.899   0.019  0.00  0.00    +0.091 A 
ATOM      6  C   LIG    1       -2.125   2.261   1.260  0.00  0.00    -0.021 A 
ATOM      7  C   LIG    1       -3.285   2.922   1.102  0.00  0.00    -0.004 A 
ATOM      8  C   LIG    1       -3.925   3.263   2.421  0.00  0.00    +0.043 C 
ATOM      9  C   LIG    1       -2.792   3.099   3.457  0.00  0.00    +0.010 C 
ATOM     10  S   LIG    1       -3.485   3.071  -0.657  0.00  0.00    -0.077 S 
ATOM     11  C   LIG    1       -1.871   2.080   2.758  0.00  0.00    +0.037 C 
ATOM     12  C   LIG    1       -2.041   2.270  -1.174  0.00  0.00    +0.087 A 
BRANCH   5  13
ATOM     13  C   LIG    1       -0.167   1.178   0.036  0.00  0.00    +0.342 C 
ATOM     14  O   LIG    1       -0.156  -0.038   0.024  0.00  0.00    -0.245 OA
BRANCH  13  16
ATOM     15  C   LIG    1        2.220   1.083   0.069  0.00  0.00    +0.280 C 
ATOM     16  O   LIG    1        0.995   1.863   0.059  0.00  0.00    -0.464 OA
ENDBRANCH  13  16
ENDBRANCH   5  13
ENDBRANCH   1  12
BRANCH   3  17
ATOM     17  C   LIG    1       -1.843   2.256  -4.893  0.00  0.00    +0.067 A 
ATOM     18  C   LIG    1       -1.547   0.961  -5.323  0.00  0.00    +0.015 A 
ATOM     19  C   LIG    1       -1.106   0.750  -6.613  0.00  0.00    +0.001 A 
ATOM     20  C   LIG    1       -0.948   1.819  -7.477  0.00  0.00    +0.002 A 
ATOM     21  C   LIG    1       -1.234   3.105  -7.056  0.00  0.00    +0.033 A 
ATOM     22  C   LIG    1       -1.681   3.330  -5.770  0.00  0.00    +0.134 A 
BRANCH  22  23
ATOM     23  N   LIG    1       -1.986   4.707  -5.321  0.00  0.00    +0.007 N 
ATOM     24  O   LIG    1       -1.959   5.628  -6.118  0.00  0.00    -0.130 OA
BRANCH  23  25
ATOM     25  O   LIG    1       -2.265   4.919  -4.155  0.00  0.00    -0.396 OA
ATOM     26  H   LIG    1       -2.286   4.211  -3.542  0.00  0.00    +0.329 HD
ENDBRANCH  23  25
ENDBRANCH  22  23
ENDBRANCH   3  17
TORSDOF 6
