REMARK  Name = ZINC00388549
REMARK                            x       y       z     vdW  Elec       q    Type
REMARK                         _______ _______ _______ _____ _____    ______ ____
ROOT
ATOM      1  N   LIG    1       -1.202  -0.719   0.010  0.00  0.00    -0.340 N 
ATOM      2  H   LIG    1       -1.190  -1.688   0.004  0.00  0.00    +0.146 HD
ENDROOT
BRANCH   1   8
ATOM      3  C   LIG    1       -0.017   1.387   0.010  0.00  0.00    +0.026 A 
ATOM      4  C   LIG    1        1.165   2.101   0.002  0.00  0.00    +0.048 A 
ATOM      5  C   LIG    1        2.381   1.435  -0.013  0.00  0.00    +0.131 A 
ATOM      6  C   LIG    1        2.409   0.033  -0.021  0.00  0.00    +0.102 A 
ATOM      7  C   LIG    1        1.208  -0.683  -0.013  0.00  0.00    +0.041 A 
ATOM      8  C   LIG    1        0.002  -0.004   0.002  0.00  0.00    +0.028 A 
BRANCH   5   9
ATOM      9  O   LIG    1        3.541   2.139  -0.022  0.00  0.00    -0.506 OA
ATOM     10  H   LIG    1        3.886   2.338   0.859  0.00  0.00    +0.292 HD
ENDBRANCH   5   9
BRANCH   6  11
ATOM     11  C   LIG    1        3.696  -0.681  -0.038  0.00  0.00    +0.340 C 
ATOM     12  O   LIG    1        3.716  -1.905  -0.045  0.00  0.00    -0.245 OA
BRANCH  11  13
ATOM     13  O   LIG    1        4.745  -0.052  -0.046  0.00  0.00    -0.477 OA
ATOM     14  H   LIG    1        4.729   0.885  -0.041  0.00  0.00    +0.295 HD
ENDBRANCH  11  13
ENDBRANCH   6  11
ENDBRANCH   1   8
BRANCH   1  15
ATOM     15  C   LIG    1       -2.479  -0.002   0.026  0.00  0.00    +0.140 C 
BRANCH  15  16
ATOM     16  C   LIG    1       -3.612  -0.995   0.031  0.00  0.00    +0.014 A 
ATOM     17  C   LIG    1       -4.276  -1.292  -1.143  0.00  0.00    +0.054 A 
ATOM     18  C   LIG    1       -5.319  -2.206  -1.138  0.00  0.00    +0.117 A 
ATOM     19  C   LIG    1       -5.695  -2.822   0.046  0.00  0.00    +0.049 A 
ATOM     20  C   LIG    1       -5.032  -2.525   1.220  0.00  0.00    +0.049 A 
ATOM     21  C   LIG    1       -3.985  -1.615   1.214  0.00  0.00    +0.122 A 
BRANCH  18  22
ATOM     22  O   LIG    1       -5.973  -2.498  -2.294  0.00  0.00    -0.507 OA
ATOM     23  H   LIG    1       -5.590  -3.236  -2.787  0.00  0.00    +0.292 HD
ENDBRANCH  18  22
BRANCH  21  24
ATOM     24  O   LIG    1       -3.328  -1.327   2.369  0.00  0.00    -0.506 OA
ATOM     25  H   LIG    1       -3.710  -0.590   2.866  0.00  0.00    +0.292 HD
ENDBRANCH  21  24
ENDBRANCH  15  16
ENDBRANCH   1  15
TORSDOF 8
