REMARK  Name = ZINC00404320
REMARK                            x       y       z     vdW  Elec       q    Type
REMARK                         _______ _______ _______ _____ _____    ______ ____
ROOT
ATOM      1  C   LIG    1       -0.360   2.779   1.818  0.00  0.00    +0.006 A 
ATOM      2  C   LIG    1       -1.010   3.228   2.952  0.00  0.00    +0.020 A 
ATOM      3  C   LIG    1       -2.012   2.464   3.523  0.00  0.00    +0.041 A 
ATOM      4 CL   LIG    1       -2.825   3.024   4.951  0.00  0.00    -0.084 Cl
ATOM      5  C   LIG    1       -2.367   1.253   2.955  0.00  0.00    +0.020 A 
ATOM      6  C   LIG    1       -1.719   0.808   1.817  0.00  0.00    +0.006 A 
ATOM      7  C   LIG    1       -0.718   1.572   1.248  0.00  0.00    -0.038 A 
ENDROOT
BRANCH   7   8
ATOM      8  C   LIG    1       -0.013   1.086   0.008  0.00  0.00    +0.100 C 
BRANCH   8   9
ATOM      9  S   LIG    1       -0.890   1.687  -1.462  0.00  0.00    -0.174 S 
ATOM     10  H   LIG    1       -0.176   1.195  -2.490  0.00  0.00    +0.102 HD
ENDBRANCH   8   9
ENDBRANCH   7   8
TORSDOF 2
