REMARK  Name = ZINC00378481
REMARK                            x       y       z     vdW  Elec       q    Type
REMARK                         _______ _______ _______ _____ _____    ______ ____
ROOT
ATOM      1  C   LIG    1        0.017  -0.359   2.497  0.00  0.00    +0.199 C 
ENDROOT
BRANCH   1   8
ATOM      2  C   LIG    1       -0.355   1.339  -0.070  0.00  0.00    +0.063 C 
ATOM      3  C   LIG    1       -0.091  -0.143  -0.008  0.00  0.00    +0.017 A 
ATOM      4  C   LIG    1        0.031  -0.969  -1.067  0.00  0.00    +0.023 A 
ATOM      5  C   LIG    1        0.272  -2.264  -0.566  0.00  0.00    +0.023 A 
ATOM      6  C   LIG    1        0.288  -2.179   0.780  0.00  0.00    +0.017 A 
ATOM      7  C   LIG    1        0.513  -3.324   1.734  0.00  0.00    +0.063 C 
ATOM      8  N   LIG    1        0.071  -0.879   1.128  0.00  0.00    -0.334 N 
ENDBRANCH   1   8
BRANCH   1   9
ATOM      9  C   LIG    1        1.308  -0.679   3.207  0.00  0.00    +0.328 C 
ATOM     10  O   LIG    1        2.003   0.223   3.642  0.00  0.00    -0.249 OA
BRANCH   9  11
ATOM     11  O   LIG    1        1.656  -1.839   3.345  0.00  0.00    -0.479 OA
ATOM     12  H   LIG    1        1.121  -2.532   3.011  0.00  0.00    +0.295 HD
ENDBRANCH   9  11
ENDBRANCH   1   9
BRANCH   1  13
ATOM     13  C   LIG    1       -1.150  -1.009   3.244  0.00  0.00    +0.071 C 
BRANCH  13  14
ATOM     14  C   LIG    1       -1.302  -0.364   4.597  0.00  0.00    -0.045 A 
ATOM     15  C   LIG    1       -0.618  -0.872   5.685  0.00  0.00    +0.004 A 
ATOM     16  C   LIG    1       -0.757  -0.280   6.927  0.00  0.00    +0.000 A 
ATOM     17  C   LIG    1       -1.580   0.820   7.080  0.00  0.00    +0.000 A 
ATOM     18  C   LIG    1       -2.264   1.328   5.991  0.00  0.00    +0.000 A 
ATOM     19  C   LIG    1       -2.121   0.739   4.749  0.00  0.00    +0.004 A 
ENDBRANCH  13  14
ENDBRANCH   1  13
TORSDOF 5
