REMARK  Name = ZINC00591953
REMARK                            x       y       z     vdW  Elec       q    Type
REMARK                         _______ _______ _______ _____ _____    ______ ____
ROOT
ATOM      1  C   LIG    1        0.039  -3.248  -1.685  0.00  0.00    +0.059 C 
ATOM      2  C   LIG    1        1.116  -3.713  -2.429  0.00  0.00    +0.059 C 
ATOM      3  C   LIG    1        0.619  -4.884  -3.180  0.00  0.00    +0.252 C 
ATOM      4  N   LIG    1       -0.676  -5.072  -2.875  0.00  0.00    -0.248 N 
ATOM      5  H   LIG    1       -1.232  -5.779  -3.239  0.00  0.00    +0.158 HD
ATOM      6  O   LIG    1        1.273  -5.564  -3.946  0.00  0.00    -0.270 OA
ATOM      7  C   LIG    1       -1.091  -4.149  -1.992  0.00  0.00    +0.252 C 
ATOM      8  O   LIG    1       -2.210  -4.066  -1.526  0.00  0.00    -0.270 OA
ENDROOT
BRANCH   2   9
ATOM      9  C   LIG    1        2.477  -3.151  -2.463  0.00  0.00    +0.016 A 
ATOM     10  C   LIG    1        2.976  -2.106  -3.374  0.00  0.00    +0.008 A 
ATOM     11  C   LIG    1        2.399  -1.366  -4.404  0.00  0.00    +0.010 A 
ATOM     12  C   LIG    1        3.155  -0.436  -5.083  0.00  0.00    +0.001 A 
ATOM     13  C   LIG    1        4.486  -0.235  -4.745  0.00  0.00    +0.002 A 
ATOM     14  C   LIG    1        5.069  -0.958  -3.729  0.00  0.00    +0.026 A 
ATOM     15  C   LIG    1        4.323  -1.903  -3.030  0.00  0.00    +0.050 A 
ATOM     16  N   LIG    1        4.622  -2.758  -1.991  0.00  0.00    -0.343 N 
ATOM     17  C   LIG    1        5.926  -2.879  -1.322  0.00  0.00    +0.122 C 
ATOM     18  C   LIG    1        5.964  -4.194  -0.542  0.00  0.00    +0.023 C 
ATOM     19  C   LIG    1        4.718  -4.308   0.340  0.00  0.00    -0.020 C 
ATOM     20  C   LIG    1        3.489  -4.525  -0.551  0.00  0.00    +0.055 C 
ATOM     21  C   LIG    1        3.518  -3.493  -1.656  0.00  0.00    +0.028 A 
BRANCH  19  22
ATOM     22  C   LIG    1        4.872  -5.493   1.296  0.00  0.00    -0.076 C 
BRANCH  22  23
ATOM     23  N   LIG    1        5.976  -5.230   2.228  0.00  0.00    +0.376 N 
ATOM     24  H   LIG    1        6.814  -5.021   1.707  0.00  0.00    -0.083 HD
ATOM     25  C   LIG    1        6.202  -6.415   3.066  0.00  0.00    -0.097 C 
ATOM     26  C   LIG    1        5.633  -4.085   3.082  0.00  0.00    -0.097 C 
ENDBRANCH  22  23
ENDBRANCH  19  22
ENDBRANCH   2   9
BRANCH   1  30
ATOM     27  C   LIG    1       -0.018   1.461   0.010  0.00  0.00    +0.149 C 
ATOM     28  N   LIG    1        0.002  -0.004   0.002  0.00  0.00    -0.349 N 
ATOM     29  C   LIG    1        0.008  -0.776  -1.119  0.00  0.00    +0.095 A 
ATOM     30  C   LIG    1        0.027  -2.094  -0.770  0.00  0.00    +0.013 A 
ATOM     31  C   LIG    1        0.034  -2.137   0.703  0.00  0.00    +0.008 A 
ATOM     32  C   LIG    1        0.051  -3.168   1.640  0.00  0.00    +0.010 A 
ATOM     33  C   LIG    1        0.069  -2.868   2.985  0.00  0.00    +0.001 A 
ATOM     34  C   LIG    1        0.055  -1.546   3.407  0.00  0.00    +0.002 A 
ATOM     35  C   LIG    1        0.032  -0.516   2.492  0.00  0.00    +0.026 A 
ATOM     36  C   LIG    1        0.024  -0.798   1.130  0.00  0.00    +0.049 A 
ENDBRANCH   1  30
TORSDOF 4
