REMARK  Name = ZINC00404337
REMARK                            x       y       z     vdW  Elec       q    Type
REMARK                         _______ _______ _______ _____ _____    ______ ____
ROOT
ATOM      1  C   LIG    1       -1.218   1.749   0.017  0.00  0.00    +0.023 A 
ATOM      2  C   LIG    1       -0.013   1.076   0.008  0.00  0.00    +0.047 A 
ATOM      3  C   LIG    1        1.179   1.784   0.000  0.00  0.00    +0.131 A 
ATOM      4  C   LIG    1        1.155   3.186   0.008  0.00  0.00    +0.101 A 
ATOM      5  C   LIG    1       -0.072   3.855   0.022  0.00  0.00    +0.038 A 
ATOM      6  C   LIG    1       -1.248   3.135   0.030  0.00  0.00    +0.042 A 
ATOM      7 CL   LIG    1       -2.771   3.967   0.048  0.00  0.00    -0.084 Cl
ENDROOT
BRANCH   3   8
ATOM      8  O   LIG    1        2.364   1.124  -0.015  0.00  0.00    -0.506 OA
ATOM      9  H   LIG    1        2.699   0.937  -0.902  0.00  0.00    +0.292 HD
ENDBRANCH   3   8
BRANCH   4  10
ATOM     10  C   LIG    1        2.416   3.950   0.000  0.00  0.00    +0.340 C 
ATOM     11  O   LIG    1        3.480   3.365  -0.012  0.00  0.00    -0.245 OA
BRANCH  10  12
ATOM     12  O   LIG    1        2.387   5.297   0.007  0.00  0.00    -0.477 OA
ATOM     13  H   LIG    1        1.566   5.748   0.017  0.00  0.00    +0.295 HD
ENDBRANCH  10  12
ENDBRANCH   4  10
TORSDOF 3
