REMARK  Name = ZINC00642079
REMARK                            x       y       z     vdW  Elec       q    Type
REMARK                         _______ _______ _______ _____ _____    ______ ____
ROOT
ATOM      1  C   LIG    1        2.385   1.416  -0.012  0.00  0.00    +0.001 A 
ATOM      2  C   LIG    1        1.178   2.089   0.002  0.00  0.00    +0.001 A 
ATOM      3  C   LIG    1       -0.017   1.386   0.010  0.00  0.00    +0.012 A 
ATOM      4  C   LIG    1        0.002  -0.004   0.002  0.00  0.00    +0.036 A 
ATOM      5  C   LIG    1        1.231  -0.693  -0.013  0.00  0.00    +0.033 A 
ATOM      6  C   LIG    1        1.249  -2.166  -0.022  0.00  0.00    +0.193 C 
ATOM      7  O   LIG    1        2.436  -2.810  -0.038  0.00  0.00    -0.287 OA
ATOM      8  C   LIG    1        0.100  -2.892  -0.015  0.00  0.00    +0.045 C 
ATOM      9  C   LIG    1       -1.161  -2.276   0.000  0.00  0.00    +0.171 C 
ATOM     10  C   LIG    1       -1.255  -0.783   0.009  0.00  0.00    +0.228 C 
ATOM     11  O   LIG    1       -2.332  -0.226   0.023  0.00  0.00    -0.283 OA
ATOM     12  C   LIG    1        2.420   0.031  -0.020  0.00  0.00    +0.012 A 
ENDROOT
BRANCH   9  13
ATOM     13  O   LIG    1       -2.172  -2.953   0.005  0.00  0.00    -0.503 OA
ATOM     14  H   LIG    1       -2.110  -3.888  -0.001  0.00  0.00    +0.292 HD
ENDBRANCH   9  13
BRANCH   8  15
ATOM     15  C   LIG    1        0.182  -4.397  -0.025  0.00  0.00    +0.043 C 
BRANCH  15  16
ATOM     16  C   LIG    1        0.098  -4.921   1.410  0.00  0.00    +0.005 C 
BRANCH  16  17
ATOM     17  C   LIG    1        0.181  -6.449   1.401  0.00  0.00    +0.004 C 
BRANCH  17  18
ATOM     18  C   LIG    1        0.097  -6.973   2.836  0.00  0.00    -0.011 C 
ATOM     19  C   LIG    1        1.323  -6.505   3.623  0.00  0.00    +0.004 C 
ATOM     20  C   LIG    1        1.239  -7.029   5.057  0.00  0.00    +0.004 C 
ATOM     21  C   LIG    1        1.197  -8.559   5.040  0.00  0.00    -0.008 C 
ATOM     22  C   LIG    1        1.113  -9.083   6.475  0.00  0.00    +0.004 C 
ATOM     23  C   LIG    1        1.070 -10.612   6.458  0.00  0.00    +0.000 C 
ATOM     24  C   LIG    1       -0.156 -11.080   5.671  0.00  0.00    +0.000 C 
ATOM     25  C   LIG    1       -0.071 -10.556   4.236  0.00  0.00    +0.004 C 
ATOM     26  C   LIG    1       -0.029  -9.026   4.253  0.00  0.00    -0.008 C 
ATOM     27  C   LIG    1        0.055  -8.502   2.818  0.00  0.00    +0.007 C 
ENDBRANCH  17  18
ENDBRANCH  16  17
ENDBRANCH  15  16
ENDBRANCH   8  15
TORSDOF 5
