REMARK  Name = ZINC00578549
REMARK                            x       y       z     vdW  Elec       q    Type
REMARK                         _______ _______ _______ _____ _____    ______ ____
ROOT
ATOM      1  C   LIG    1       -3.488   1.921  -0.405  0.00  0.00    +0.080 A 
ATOM      2  C   LIG    1       -3.295   3.258  -0.616  0.00  0.00    +0.077 A 
ATOM      3  S   LIG    1       -1.514   3.360  -0.484  0.00  0.00    -0.059 S 
ATOM      4  C   LIG    1       -1.213   1.625  -0.175  0.00  0.00    +0.178 A 
ATOM      5  N   LIG    1       -2.441   1.138  -0.191  0.00  0.00    -0.224 NA
ENDROOT
BRANCH   1  11
ATOM      6  C   LIG    1       -5.957   2.180  -0.638  0.00  0.00    +0.012 A 
ATOM      7  C   LIG    1       -7.229   1.644  -0.654  0.00  0.00    +0.033 A 
ATOM      8  C   LIG    1       -7.414   0.289  -0.441  0.00  0.00    +0.122 A 
ATOM      9  C   LIG    1       -6.327  -0.536  -0.215  0.00  0.00    +0.033 A 
ATOM     10  C   LIG    1       -5.051  -0.012  -0.203  0.00  0.00    +0.012 A 
ATOM     11  C   LIG    1       -4.858   1.352  -0.417  0.00  0.00    +0.001 A 
BRANCH   8  12
ATOM     12  N   LIG    1       -8.788  -0.281  -0.453  0.00  0.00    +0.006 N 
ATOM     13  O   LIG    1       -8.954  -1.473  -0.265  0.00  0.00    -0.130 OA
BRANCH  12  14
ATOM     14  O   LIG    1       -9.747   0.443  -0.651  0.00  0.00    -0.396 OA
ATOM     15  H   LIG    1       -9.619   1.360  -0.796  0.00  0.00    +0.329 HD
ENDBRANCH  12  14
ENDBRANCH   8  12
ENDBRANCH   1  11
BRANCH   4  16
ATOM     16  N   LIG    1       -0.012   0.968   0.031  0.00  0.00    -0.215 N 
ATOM     17  H   LIG    1       -0.004   0.011   0.193  0.00  0.00    +0.176 HD
BRANCH  16  18
ATOM     18  N   LIG    1        1.193   1.683  -0.000  0.00  0.00    -0.190 NA
ATOM     19  C   LIG    1        2.308   1.061   0.088  0.00  0.00    +0.037 C 
ATOM     20  C   LIG    1        2.342  -0.464   0.093  0.00  0.00    +0.052 C 
ATOM     21  C   LIG    1        3.511  -0.979  -0.711  0.00  0.00    +0.006 C 
ATOM     22  C   LIG    1        4.741  -1.123   0.196  0.00  0.00    +0.000 C 
ATOM     23  C   LIG    1        5.432   0.151   0.416  0.00  0.00    +0.000 C 
ATOM     24  C   LIG    1        4.563   1.175   1.158  0.00  0.00    +0.006 C 
ATOM     25  C   LIG    1        3.617   1.839   0.195  0.00  0.00    +0.052 C 
ENDBRANCH  16  18
ENDBRANCH   4  16
TORSDOF 5
