REMARK  Name = ZINC00598040
REMARK                            x       y       z     vdW  Elec       q    Type
REMARK                         _______ _______ _______ _____ _____    ______ ____
ROOT
ATOM      1  C   LIG    1        0.738  -0.493  -1.249  0.00  0.00    +0.019 C 
ATOM      2  C   LIG    1        0.002  -0.004   0.002  0.00  0.00    -0.012 C 
ATOM      3  C   LIG    1       -0.019   1.526   0.010  0.00  0.00    -0.078 C 
ATOM      4  N   LIG    1        1.373   2.025   0.024  0.00  0.00    +0.380 N 
ATOM      5  H   LIG    1        1.864   1.620   0.830  0.00  0.00    -0.082 HD
ATOM      6  C   LIG    1        2.070   1.619  -1.215  0.00  0.00    -0.078 C 
ATOM      7  C   LIG    1        2.153   0.091  -1.260  0.00  0.00    -0.012 C 
ENDROOT
BRANCH   1   8
ATOM      8  C   LIG    1        0.815  -2.021  -1.232  0.00  0.00    +0.151 C 
BRANCH   8  13
ATOM      9  C   LIG    1        3.588  -3.006  -3.613  0.00  0.00    +0.162 A 
ATOM     10  C   LIG    1        2.864  -3.384  -4.732  0.00  0.00    +0.049 A 
ATOM     11  C   LIG    1        1.483  -3.319  -4.715  0.00  0.00    +0.004 A 
ATOM     12  C   LIG    1        0.822  -2.878  -3.584  0.00  0.00    +0.010 A 
ATOM     13  C   LIG    1        1.539  -2.501  -2.464  0.00  0.00    +0.026 A 
ATOM     14  C   LIG    1        2.923  -2.558  -2.476  0.00  0.00    +0.167 A 
BRANCH   9  16
ATOM     15  C   LIG    1        5.562  -3.534  -4.830  0.00  0.00    +0.277 C 
ATOM     16  O   LIG    1        4.947  -3.069  -3.627  0.00  0.00    -0.491 OA
ENDBRANCH   9  16
BRANCH  14  17
ATOM     17  O   LIG    1        3.630  -2.182  -1.376  0.00  0.00    -0.491 OA
ATOM     18  C   LIG    1        3.922  -3.197  -0.414  0.00  0.00    +0.277 C 
ENDBRANCH  14  17
ENDBRANCH   8  13
BRANCH   8  19
ATOM     19  O   LIG    1       -0.507  -2.564  -1.215  0.00  0.00    -0.387 OA
ATOM     20  H   LIG    1       -1.045  -2.314  -1.978  0.00  0.00    +0.210 HD
ENDBRANCH   8  19
ENDBRANCH   1   8
BRANCH   4  21
ATOM     21  C   LIG    1        1.380   3.497   0.147  0.00  0.00    -0.074 C 
BRANCH  21  22
ATOM     22  C   LIG    1        2.818   3.965   0.382  0.00  0.00    +0.016 C 
BRANCH  22  23
ATOM     23  C   LIG    1        2.840   5.464   0.533  0.00  0.00    -0.049 A 
ATOM     24  C   LIG    1        3.011   6.268  -0.579  0.00  0.00    +0.006 A 
ATOM     25  C   LIG    1        3.027   7.643  -0.442  0.00  0.00    +0.038 A 
ATOM     26  C   LIG    1        2.882   8.215   0.810  0.00  0.00    +0.123 A 
ATOM     27  F   LIG    1        2.902   9.559   0.945  0.00  0.00    -0.205 F 
ATOM     28  C   LIG    1        2.716   7.409   1.923  0.00  0.00    +0.038 A 
ATOM     29  C   LIG    1        2.696   6.034   1.784  0.00  0.00    +0.006 A 
ENDBRANCH  22  23
ENDBRANCH  21  22
ENDBRANCH   4  21
TORSDOF 8
