REMARK  Name = ZINC00538273
REMARK                            x       y       z     vdW  Elec       q    Type
REMARK                         _______ _______ _______ _____ _____    ______ ____
ROOT
ATOM      1  C   LIG    1       -0.019   1.526   0.010  0.00  0.00    +0.034 C 
ATOM      2  C   LIG    1        0.002  -0.004   0.002  0.00  0.00    +0.122 C 
ATOM      3  C   LIG    1        0.720  -0.498  -1.256  0.00  0.00    +0.254 C 
ATOM      4  O   LIG    1        0.851  -1.923  -1.180  0.00  0.00    -0.486 OA
ATOM      5  C   LIG    1        1.474  -2.403  -0.068  0.00  0.00    +0.168 A 
ATOM      6  C   LIG    1        1.417  -1.683   1.124  0.00  0.00    +0.097 A 
ATOM      7  C   LIG    1        2.077  -2.190   2.257  0.00  0.00    +0.052 A 
ATOM      8  C   LIG    1        2.767  -3.403   2.189  0.00  0.00    +0.054 A 
ATOM      9  C   LIG    1        2.807  -4.102   1.015  0.00  0.00    +0.149 A 
ATOM     10  F   LIG    1        3.472  -5.276   0.953  0.00  0.00    -0.203 F 
ATOM     11  C   LIG    1        2.026  -1.419   3.512  0.00  0.00    +0.204 A 
ATOM     12  O   LIG    1        2.580  -1.812   4.524  0.00  0.00    -0.286 OA
ATOM     13  C   LIG    1        1.277  -0.151   3.488  0.00  0.00    +0.122 A 
ATOM     14  C   LIG    1        0.661   0.239   2.317  0.00  0.00    +0.105 A 
ATOM     15  C   LIG    1        2.163  -3.606  -0.120  0.00  0.00    +0.110 A 
ATOM     16  N   LIG    1        0.715  -0.492   1.192  0.00  0.00    -0.337 N 
ENDROOT
BRANCH  15  17
ATOM     17  N   LIG    1        2.211  -4.327  -1.315  0.00  0.00    -0.328 N 
ATOM     18  C   LIG    1        1.183  -5.328  -1.636  0.00  0.00    +0.087 C 
ATOM     19  C   LIG    1        1.883  -6.629  -2.044  0.00  0.00    -0.060 C 
ATOM     20  N   LIG    1        2.825  -6.355  -3.137  0.00  0.00    +0.380 N 
ATOM     21  H   LIG    1        2.334  -5.915  -3.900  0.00  0.00    -0.082 HD
ATOM     22  C   LIG    1        3.414  -7.618  -3.601  0.00  0.00    -0.096 C 
ATOM     23  C   LIG    1        3.892  -5.463  -2.665  0.00  0.00    -0.060 C 
ATOM     24  C   LIG    1        3.289  -4.101  -2.291  0.00  0.00    +0.087 C 
ENDBRANCH  15  17
BRANCH  13  25
ATOM     25  C   LIG    1        1.188   0.684   4.690  0.00  0.00    +0.342 C 
ATOM     26  O   LIG    1        0.563   1.736   4.660  0.00  0.00    -0.245 OA
BRANCH  25  27
ATOM     27  O   LIG    1        1.739   0.329   5.724  0.00  0.00    -0.477 OA
ATOM     28  H   LIG    1        2.217  -0.476   5.748  0.00  0.00    +0.295 HD
ENDBRANCH  25  27
ENDBRANCH  13  25
TORSDOF 3
