REMARK  Name = ZINC00477397
REMARK                            x       y       z     vdW  Elec       q    Type
REMARK                         _______ _______ _______ _____ _____    ______ ____
ROOT
ATOM      1  N   LIG    1       -0.114   2.515   4.696  0.00  0.00    -0.261 N 
ATOM      2  H   LIG    1        0.838   2.409   4.847  0.00  0.00    +0.157 HD
ATOM      3  C   LIG    1       -0.911   2.944   5.694  0.00  0.00    +0.250 C 
ATOM      4  O   LIG    1       -2.104   3.077   5.505  0.00  0.00    -0.270 OA
ENDROOT
BRANCH   3   5
ATOM      5  C   LIG    1       -0.334   3.251   7.020  0.00  0.00    +0.038 A 
ATOM      6  C   LIG    1       -1.157   3.696   8.057  0.00  0.00    +0.013 A 
ATOM      7  C   LIG    1       -0.613   3.981   9.291  0.00  0.00    +0.002 A 
ATOM      8  C   LIG    1        0.745   3.828   9.505  0.00  0.00    +0.020 A 
ATOM      9  C   LIG    1        1.568   3.388   8.482  0.00  0.00    +0.042 A 
ATOM     10 CL   LIG    1        3.271   3.200   8.759  0.00  0.00    -0.084 Cl
ATOM     11  C   LIG    1        1.035   3.094   7.242  0.00  0.00    +0.033 A 
ENDBRANCH   3   5
BRANCH   1  16
ATOM     12  C   LIG    1       -0.013   1.086   0.008  0.00  0.00    +0.066 C 
ATOM     13  C   LIG    1       -0.718   1.572   1.248  0.00  0.00    +0.047 A 
ATOM     14  C   LIG    1       -2.056   1.790   1.244  0.00  0.00    +0.071 A 
ATOM     15  S   LIG    1       -2.309   2.332   2.928  0.00  0.00    -0.060 S 
ATOM     16  C   LIG    1       -0.656   2.226   3.450  0.00  0.00    +0.165 A 
ATOM     17  N   LIG    1       -0.047   1.800   2.360  0.00  0.00    -0.230 NA
ENDBRANCH   1  16
TORSDOF 2
