REMARK  Name = ZINC00624282
REMARK                            x       y       z     vdW  Elec       q    Type
REMARK                         _______ _______ _______ _____ _____    ______ ____
ROOT
ATOM      1  C   LIG    1        1.043  -2.831   4.586  0.00  0.00    +0.070 A 
ATOM      2  C   LIG    1        2.032  -2.987   5.557  0.00  0.00    +0.056 A 
ATOM      3  C   LIG    1        1.836  -3.872   6.606  0.00  0.00    +0.025 A 
ATOM      4  C   LIG    1        0.661  -4.598   6.688  0.00  0.00    +0.003 A 
ATOM      5  C   LIG    1       -0.320  -4.444   5.726  0.00  0.00    +0.022 A 
ATOM      6  C   LIG    1       -0.135  -3.559   4.679  0.00  0.00    +0.064 A 
ATOM      7 CL   LIG    1       -1.372  -3.365   3.477  0.00  0.00    -0.082 Cl
ENDROOT
BRANCH   1  11
ATOM      8  N   LIG    1        0.699  -0.514   1.191  0.00  0.00    -0.300 NA
ATOM      9  C   LIG    1       -0.037  -0.179   2.417  0.00  0.00    +0.103 C 
ATOM     10  C   LIG    1        0.821  -0.532   3.636  0.00  0.00    +0.120 C 
ATOM     11  N   LIG    1        1.235  -1.939   3.525  0.00  0.00    -0.325 N 
ATOM     12  C   LIG    1        1.858  -2.383   2.268  0.00  0.00    +0.120 C 
ATOM     13  C   LIG    1        0.959  -1.957   1.102  0.00  0.00    +0.103 C 
BRANCH   8  15
ATOM     14  C   LIG    1       -0.048   1.496   0.007  0.00  0.00    +0.020 C 
ATOM     15  C   LIG    1       -0.015  -0.034   0.000  0.00  0.00    +0.081 C 
ENDBRANCH   8  15
ENDBRANCH   1  11
BRANCH   2  16
ATOM     16  N   LIG    1        3.222  -2.252   5.472  0.00  0.00    -0.277 N 
ATOM     17  H   LIG    1        3.605  -2.048   4.604  0.00  0.00    +0.155 HD
ATOM     18  C   LIG    1        3.834  -1.828   6.595  0.00  0.00    +0.284 C 
ATOM     19  O   LIG    1        3.398  -2.153   7.685  0.00  0.00    -0.266 OA
BRANCH  18  20
ATOM     20  C   LIG    1        5.023  -0.977   6.505  0.00  0.00    +0.191 A 
ATOM     21  C   LIG    1        5.739  -0.484   7.560  0.00  0.00    +0.056 A 
ATOM     22  C   LIG    1        6.786   0.275   7.017  0.00  0.00    +0.058 A 
ATOM     23  C   LIG    1        6.666   0.213   5.670  0.00  0.00    +0.171 A 
ATOM     24 BR   LIG    1        7.811   1.055   4.423  0.00  0.00    -0.008 Br
ATOM     25  O   LIG    1        5.606  -0.546   5.367  0.00  0.00    -0.444 OA
ENDBRANCH  18  20
ENDBRANCH   2  16
TORSDOF 4
