REMARK  Name = ZINC00597434
REMARK                            x       y       z     vdW  Elec       q    Type
REMARK                         _______ _______ _______ _____ _____    ______ ____
ROOT
ATOM      1  C   LIG    1       -4.387  -2.858  -1.488  0.00  0.00    +0.125 C 
ATOM      2  C   LIG    1       -5.206  -2.394  -2.507  0.00  0.00    +0.043 C 
ATOM      3  C   LIG    1       -6.035  -3.294  -3.161  0.00  0.00    +0.026 C 
ATOM      4  C   LIG    1       -6.041  -4.668  -2.791  0.00  0.00    +0.014 C 
ATOM      5  C   LIG    1       -5.213  -5.028  -1.763  0.00  0.00    +0.059 C 
ATOM      6  C   LIG    1       -5.097  -6.416  -1.180  0.00  0.00    +0.019 C 
ATOM      7  C   LIG    1       -4.324  -7.350  -2.088  0.00  0.00    +0.002 C 
ATOM      8  C   LIG    1       -4.461  -7.014  -3.564  0.00  0.00    +0.000 C 
ATOM      9  C   LIG    1       -5.766  -7.648  -3.992  0.00  0.00    +0.000 C 
ATOM     10  C   LIG    1       -6.979  -6.987  -3.345  0.00  0.00    +0.000 C 
ATOM     11  C   LIG    1       -6.984  -5.496  -3.626  0.00  0.00    +0.005 C 
ATOM     12  N   LIG    1       -4.425  -4.133  -1.163  0.00  0.00    -0.298 NA
ATOM     13  H   LIG    1       -3.847  -4.444  -0.448  0.00  0.00    +0.124 HD
ENDROOT
BRANCH   3  14
ATOM     14  C   LIG    1       -6.913  -2.795  -4.247  0.00  0.00    -0.044 A 
ATOM     15  C   LIG    1       -8.292  -2.983  -4.173  0.00  0.00    +0.007 A 
ATOM     16  C   LIG    1       -9.106  -2.518  -5.185  0.00  0.00    +0.038 A 
ATOM     17  C   LIG    1       -8.554  -1.864  -6.275  0.00  0.00    +0.123 A 
ATOM     18  F   LIG    1       -9.354  -1.410  -7.264  0.00  0.00    -0.205 F 
ATOM     19  C   LIG    1       -7.184  -1.675  -6.353  0.00  0.00    +0.038 A 
ATOM     20  C   LIG    1       -6.363  -2.132  -5.343  0.00  0.00    +0.007 A 
ENDBRANCH   3  14
BRANCH   1  24
ATOM     21  N   LIG    1       -1.204  -0.617  -0.154  0.00  0.00    -0.300 NA
ATOM     22  C   LIG    1       -1.897  -0.282  -1.405  0.00  0.00    +0.100 C 
ATOM     23  C   LIG    1       -3.390  -0.589  -1.256  0.00  0.00    +0.101 C 
ATOM     24  N   LIG    1       -3.539  -1.985  -0.816  0.00  0.00    -0.285 NA
ATOM     25  C   LIG    1       -2.767  -2.432   0.353  0.00  0.00    +0.101 C 
ATOM     26  C   LIG    1       -1.297  -2.053   0.140  0.00  0.00    +0.100 C 
BRANCH  21  28
ATOM     27  C   LIG    1        0.253   1.350  -0.253  0.00  0.00    +0.020 C 
ATOM     28  C   LIG    1        0.198  -0.178  -0.195  0.00  0.00    +0.081 C 
ENDBRANCH  21  28
ENDBRANCH   1  24
TORSDOF 3
