REMARK  Name = ZINC00506748
REMARK                            x       y       z     vdW  Elec       q    Type
REMARK                         _______ _______ _______ _____ _____    ______ ____
ROOT
ATOM      1  C   LIG    1        2.419   3.937   0.001  0.00  0.00    +0.139 A 
ATOM      2  C   LIG    1        2.366   5.296   0.008  0.00  0.00    +0.098 A 
ATOM      3  C   LIG    1        3.569   6.041   0.002  0.00  0.00    +0.193 A 
ATOM      4  C   LIG    1        4.836   5.283  -0.013  0.00  0.00    +0.065 A 
ATOM      5  C   LIG    1        6.069   5.932  -0.020  0.00  0.00    +0.035 A 
ATOM      6  C   LIG    1        7.230   5.188  -0.034  0.00  0.00    +0.042 A 
ATOM      7 CL   LIG    1        8.770   5.989  -0.043  0.00  0.00    -0.084 Cl
ATOM      8  C   LIG    1        7.171   3.801  -0.041  0.00  0.00    +0.023 A 
ATOM      9  C   LIG    1        5.957   3.148  -0.035  0.00  0.00    +0.048 A 
ATOM     10  C   LIG    1        4.776   3.880  -0.020  0.00  0.00    +0.139 A 
ATOM     11  O   LIG    1        3.559   7.260   0.009  0.00  0.00    -0.287 OA
ATOM     12  O   LIG    1        3.578   3.260  -0.008  0.00  0.00    -0.455 OA
ENDROOT
BRANCH   1  15
ATOM     13  C   LIG    1       -0.013   1.076   0.008  0.00  0.00    +0.002 A 
ATOM     14  C   LIG    1        1.174   1.780   0.000  0.00  0.00    +0.011 A 
ATOM     15  C   LIG    1        1.153   3.176   0.008  0.00  0.00    +0.018 A 
ATOM     16  C   LIG    1       -0.070   3.851   0.023  0.00  0.00    +0.026 A 
ATOM     17  C   LIG    1       -1.249   3.134   0.031  0.00  0.00    +0.019 A 
ATOM     18 BR   LIG    1       -2.906   4.044   0.051  0.00  0.00    -0.050 Br
ATOM     19  C   LIG    1       -1.221   1.749   0.017  0.00  0.00    +0.015 A 
ENDBRANCH   1  15
TORSDOF 1
