REMARK  Name = ZINC00598626
REMARK                            x       y       z     vdW  Elec       q    Type
REMARK                         _______ _______ _______ _____ _____    ______ ____
ROOT
ATOM      1  C   LIG    1       -5.815  -1.540  -0.060  0.00  0.00    +0.139 A 
ATOM      2  N   LIG    1       -6.303  -2.814  -0.062  0.00  0.00    -0.337 N 
ATOM      3  C   LIG    1       -7.668  -2.727   0.108  0.00  0.00    +0.074 A 
ATOM      4  C   LIG    1       -7.963  -1.378   0.209  0.00  0.00    +0.097 A 
ATOM      5  H   LIG    1       -5.786  -3.629  -0.165  0.00  0.00    +0.167 HD
ATOM      6  N   LIG    1       -6.810  -0.698   0.107  0.00  0.00    -0.227 NA
ENDROOT
BRANCH   4   7
ATOM      7  C   LIG    1       -9.310  -0.790   0.402  0.00  0.00    +0.003 A 
ATOM      8  C   LIG    1      -10.198  -1.361   1.313  0.00  0.00    +0.013 A 
ATOM      9  C   LIG    1      -11.450  -0.810   1.489  0.00  0.00    +0.039 A 
ATOM     10  C   LIG    1      -11.827   0.307   0.761  0.00  0.00    +0.123 A 
ATOM     11  F   LIG    1      -13.055   0.843   0.936  0.00  0.00    -0.205 F 
ATOM     12  C   LIG    1      -10.948   0.877  -0.146  0.00  0.00    +0.039 A 
ATOM     13  C   LIG    1       -9.691   0.338  -0.324  0.00  0.00    +0.013 A 
ENDBRANCH   4   7
BRANCH   1  17
ATOM     14  C   LIG    1       -1.729  -0.467  -0.505  0.00  0.00    +0.008 A 
ATOM     15  C   LIG    1       -2.692   0.523  -0.335  0.00  0.00    +0.015 A 
ATOM     16  C   LIG    1       -4.017   0.178  -0.191  0.00  0.00    +0.012 A 
ATOM     17  C   LIG    1       -4.394  -1.167  -0.216  0.00  0.00    +0.017 A 
ATOM     18  C   LIG    1       -3.425  -2.158  -0.387  0.00  0.00    +0.012 A 
ATOM     19  C   LIG    1       -2.102  -1.807  -0.536  0.00  0.00    +0.015 A 
BRANCH  14  21
ATOM     20  C   LIG    1       -0.042   1.789  -0.585  0.00  0.00    +0.090 C 
ATOM     21  S   LIG    1       -0.034  -0.022  -0.690  0.00  0.00    -0.129 S 
ENDBRANCH  14  21
ENDBRANCH   1  17
BRANCH   3  22
ATOM     22  C   LIG    1       -8.624  -3.848   0.170  0.00  0.00    +0.003 A 
ATOM     23  C   LIG    1       -9.807  -3.828  -0.582  0.00  0.00    +0.030 A 
ATOM     24  C   LIG    1      -10.672  -4.898  -0.494  0.00  0.00    +0.111 A 
ATOM     25  N   LIG    1      -10.399  -5.929   0.284  0.00  0.00    -0.263 NA
ATOM     26  C   LIG    1       -9.297  -5.988   1.009  0.00  0.00    +0.111 A 
ATOM     27  C   LIG    1       -8.373  -4.966   0.978  0.00  0.00    +0.030 A 
ENDBRANCH   3  22
TORSDOF 4
