REMARK  Name = ZINC00571829
REMARK                            x       y       z     vdW  Elec       q    Type
REMARK                         _______ _______ _______ _____ _____    ______ ____
ROOT
ATOM      1  C   LIG    1       -0.888   1.699   8.412  0.00  0.00    +0.085 A 
ATOM      2  C   LIG    1       -0.494   1.424   9.715  0.00  0.00    +0.068 A 
ATOM      3  C   LIG    1       -1.294   1.983  10.791  0.00  0.00    -0.023 A 
ATOM      4  C   LIG    1       -2.360   2.713  10.395  0.00  0.00    -0.004 A 
ATOM      5  C   LIG    1       -3.359   3.401  11.273  0.00  0.00    +0.043 C 
ATOM      6  C   LIG    1       -3.214   2.846  12.698  0.00  0.00    +0.005 C 
ATOM      7  C   LIG    1       -1.731   2.843  13.078  0.00  0.00    +0.005 C 
ATOM      8  C   LIG    1       -0.989   1.778  12.269  0.00  0.00    +0.037 C 
ATOM      9  S   LIG    1       -2.305   2.672   8.626  0.00  0.00    -0.077 S 
ENDROOT
BRANCH   2  10
ATOM     10  C   LIG    1        0.689   0.603   9.994  0.00  0.00    +0.244 C 
ATOM     11  N   LIG    1        0.567  -0.733  10.120  0.00  0.00    -0.325 N 
ATOM     12  H   LIG    1        1.349  -1.276  10.305  0.00  0.00    +0.145 HD
ATOM     13  H   LIG    1       -0.303  -1.152  10.027  0.00  0.00    +0.145 HD
ATOM     14  O   LIG    1        1.780   1.129  10.112  0.00  0.00    -0.270 OA
ENDBRANCH   2  10
BRANCH   1  16
ATOM     15  C   LIG    1       -0.829   1.655   6.046  0.00  0.00    +0.249 C 
ATOM     16  N   LIG    1       -0.295   1.290   7.229  0.00  0.00    -0.275 N 
ATOM     17  H   LIG    1        0.505   0.741   7.252  0.00  0.00    +0.156 HD
ATOM     18  O   LIG    1       -1.830   2.343   6.018  0.00  0.00    -0.270 OA
BRANCH  15  23
ATOM     19  C   LIG    1       -0.149   1.182   2.380  0.00  0.00    +0.121 A 
ATOM     20  C   LIG    1        0.995   0.396   2.419  0.00  0.00    +0.045 A 
ATOM     21  C   LIG    1        1.542   0.022   3.633  0.00  0.00    +0.004 A 
ATOM     22  C   LIG    1        0.954   0.428   4.813  0.00  0.00    +0.013 A 
ATOM     23  C   LIG    1       -0.196   1.218   4.784  0.00  0.00    +0.040 A 
ATOM     24  C   LIG    1       -0.744   1.599   3.558  0.00  0.00    +0.058 A 
BRANCH  19  26
ATOM     25  C   LIG    1       -0.013   1.086   0.008  0.00  0.00    +0.277 C 
ATOM     26  O   LIG    1       -0.682   1.547   1.184  0.00  0.00    -0.495 OA
ENDBRANCH  19  26
ENDBRANCH  15  23
ENDBRANCH   1  16
TORSDOF 4
