REMARK  Name = ZINC00367972
REMARK                            x       y       z     vdW  Elec       q    Type
REMARK                         _______ _______ _______ _____ _____    ______ ____
ROOT
ATOM      1  C   LIG    1        3.594  -0.821  -0.037  0.00  0.00    +0.155 C 
ATOM      2  N   LIG    1        2.351  -0.046  -0.021  0.00  0.00    -0.280 N 
ATOM      3  C   LIG    1        2.399   1.339  -0.014  0.00  0.00    +0.168 A 
ATOM      4  C   LIG    1        1.206   2.051   0.002  0.00  0.00    +0.152 A 
ATOM      5  N   LIG    1        1.554   3.387   0.005  0.00  0.00    -0.321 N 
ATOM      6  C   LIG    1        2.900   3.444  -0.007  0.00  0.00    +0.202 A 
ATOM      7  C   LIG    1       -0.016   1.345   0.009  0.00  0.00    +0.282 A 
ATOM      8  N   LIG    1        0.002  -0.004   0.002  0.00  0.00    -0.262 N 
ATOM      9  C   LIG    1       -1.263  -0.743   0.010  0.00  0.00    +0.157 C 
ATOM     10  O   LIG    1       -1.075   1.947   0.018  0.00  0.00    -0.265 OA
ATOM     11  N   LIG    1        3.393   2.231  -0.018  0.00  0.00    -0.218 NA
ATOM     12  C   LIG    1        1.164  -0.680  -0.013  0.00  0.00    +0.333 A 
ATOM     13  O   LIG    1        1.141  -1.896  -0.019  0.00  0.00    -0.246 OA
ENDROOT
BRANCH   5  14
ATOM     14  C   LIG    1        0.634   4.527   0.020  0.00  0.00    +0.150 C 
BRANCH  14  15
ATOM     15  C   LIG    1        0.235   4.832   1.441  0.00  0.00    -0.013 C 
ATOM     16  C   LIG    1        0.410   6.037   1.925  0.00  0.00    +0.005 C 
ENDBRANCH  14  15
ENDBRANCH   5  14
TORSDOF 2
