REMARK  Name = ZINC00680891
REMARK                            x       y       z     vdW  Elec       q    Type
REMARK                         _______ _______ _______ _____ _____    ______ ____
ROOT
ATOM      1  C   LIG    1       -3.614   3.137  -0.050  0.00  0.00    +0.227 C 
ATOM      2  N   LIG    1       -2.457   3.822   0.044  0.00  0.00    -0.285 N 
ATOM      3  H   LIG    1       -2.471   4.788   0.126  0.00  0.00    +0.155 HD
ATOM      4  O   LIG    1       -3.602   1.924  -0.056  0.00  0.00    -0.275 OA
ENDROOT
BRANCH   2   5
ATOM      5  C   LIG    1       -1.236   3.139   0.024  0.00  0.00    +0.034 A 
ATOM      6  C   LIG    1       -0.162   3.614   0.766  0.00  0.00    +0.025 A 
ATOM      7  C   LIG    1        1.044   2.943   0.743  0.00  0.00    +0.030 A 
ATOM      8  C   LIG    1        1.181   1.787  -0.015  0.00  0.00    +0.069 A 
ATOM      9  C   LIG    1        0.106   1.310  -0.753  0.00  0.00    +0.030 A 
ATOM     10  C   LIG    1       -1.099   1.983  -0.734  0.00  0.00    +0.025 A 
BRANCH   8  11
ATOM     11  N   LIG    1        2.405   1.103  -0.036  0.00  0.00    -0.200 N 
ATOM     12  C   LIG    1        2.703  -0.026  -0.715  0.00  0.00    +0.250 A 
ATOM     13  N   LIG    1        3.949  -0.320  -0.453  0.00  0.00    -0.116 NA
ATOM     14  N   LIG    1        4.461   0.546   0.346  0.00  0.00    -0.023 NA
ATOM     15  N   LIG    1        3.588   1.448   0.642  0.00  0.00    -0.039 NA
ENDBRANCH   8  11
ENDBRANCH   2   5
BRANCH   1  16
ATOM     16  C   LIG    1       -4.923   3.877  -0.148  0.00  0.00    +0.173 C 
BRANCH  16  17
ATOM     17  S   LIG    1       -6.282   2.688  -0.261  0.00  0.00    -0.075 S 
BRANCH  17  19
ATOM     18  N   LIG    1       -8.958   3.453  -0.472  0.00  0.00    -0.187 N 
ATOM     19  C   LIG    1       -7.650   3.795  -0.362  0.00  0.00    +0.214 A 
ATOM     20  N   LIG    1       -7.595   5.109  -0.350  0.00  0.00    -0.101 NA
ATOM     21  N   LIG    1       -8.774   5.610  -0.440  0.00  0.00    -0.022 NA
ATOM     22  N   LIG    1       -9.655   4.673  -0.515  0.00  0.00    -0.038 NA
BRANCH  18  26
ATOM     23  C   LIG    1      -10.566  -0.390  -0.640  0.00  0.00    +0.000 A 
ATOM     24  C   LIG    1      -11.258   0.620   0.004  0.00  0.00    +0.002 A 
ATOM     25  C   LIG    1      -10.727   1.894   0.061  0.00  0.00    +0.028 A 
ATOM     26  C   LIG    1       -9.499   2.160  -0.528  0.00  0.00    +0.070 A 
ATOM     27  C   LIG    1       -8.809   1.146  -1.178  0.00  0.00    +0.028 A 
ATOM     28  C   LIG    1       -9.342  -0.128  -1.227  0.00  0.00    +0.002 A 
ENDBRANCH  18  26
ENDBRANCH  17  19
ENDBRANCH  16  17
ENDBRANCH   1  16
TORSDOF 6
