REMARK  Name = ZINC00590935
REMARK                            x       y       z     vdW  Elec       q    Type
REMARK                         _______ _______ _______ _____ _____    ______ ____
ROOT
ATOM      1  N   LIG    1        3.460  -0.866  -0.020  0.00  0.00    -0.299 N 
ATOM      2  H   LIG    1        4.199  -0.414   0.415  0.00  0.00    +0.154 HD
ENDROOT
BRANCH   1  11
ATOM      3  C   LIG    1        3.521   3.363  -0.059  0.00  0.00    +0.162 A 
ATOM      4  C   LIG    1        3.532   1.998  -0.024  0.00  0.00    +0.062 A 
ATOM      5  C   LIG    1        2.555   1.279  -0.724  0.00  0.00    +0.044 A 
ATOM      6  C   LIG    1        1.562   1.970  -1.462  0.00  0.00    +0.080 A 
ATOM      7  N   LIG    1        0.637   1.257  -2.123  0.00  0.00    -0.235 NA
ATOM      8  C   LIG    1        0.655  -0.054  -2.084  0.00  0.00    +0.223 A 
ATOM      9  N   LIG    1        1.562  -0.742  -1.408  0.00  0.00    -0.220 NA
ATOM     10  C   LIG    1        1.571   3.370  -1.483  0.00  0.00    +0.078 A 
ATOM     11  C   LIG    1        2.521  -0.136  -0.720  0.00  0.00    +0.134 A 
ATOM     12  C   LIG    1        2.543   4.054  -0.787  0.00  0.00    +0.164 A 
BRANCH   3  14
ATOM     13  C   LIG    1        5.441   3.300   1.344  0.00  0.00    +0.277 C 
ATOM     14  O   LIG    1        4.471   4.060   0.621  0.00  0.00    -0.491 OA
ENDBRANCH   3  14
BRANCH  12  15
ATOM     15  O   LIG    1        2.553   5.412  -0.806  0.00  0.00    -0.491 OA
ATOM     16  C   LIG    1        1.530   6.058  -1.566  0.00  0.00    +0.277 C 
ENDBRANCH  12  15
ENDBRANCH   1  11
BRANCH   1  17
ATOM     17  C   LIG    1        3.345  -2.258   0.061  0.00  0.00    +0.032 A 
ATOM     18  C   LIG    1        2.089  -2.851   0.083  0.00  0.00    +0.025 A 
ATOM     19  C   LIG    1        1.976  -4.225   0.157  0.00  0.00    +0.025 A 
ATOM     20  C   LIG    1        3.118  -5.013   0.223  0.00  0.00    +0.034 A 
ATOM     21  C   LIG    1        4.373  -4.420   0.207  0.00  0.00    +0.025 A 
ATOM     22  C   LIG    1        4.487  -3.046   0.127  0.00  0.00    +0.025 A 
BRANCH  20  23
ATOM     23  N   LIG    1        3.003  -6.407   0.304  0.00  0.00    -0.282 N 
ATOM     24  H   LIG    1        3.636  -6.915   0.836  0.00  0.00    +0.155 HD
ATOM     25  C   LIG    1        2.014  -7.041  -0.356  0.00  0.00    +0.248 C 
ATOM     26  O   LIG    1        1.171  -6.398  -0.951  0.00  0.00    -0.270 OA
BRANCH  25  27
ATOM     27  C   LIG    1        1.954  -8.518  -0.356  0.00  0.00    +0.037 A 
ATOM     28  C   LIG    1        2.925  -9.259   0.321  0.00  0.00    +0.013 A 
ATOM     29  C   LIG    1        2.861 -10.637   0.320  0.00  0.00    +0.001 A 
ATOM     30  C   LIG    1        1.844 -11.285  -0.358  0.00  0.00    +0.000 A 
ATOM     31  C   LIG    1        0.882 -10.556  -1.036  0.00  0.00    +0.001 A 
ATOM     32  C   LIG    1        0.931  -9.178  -1.039  0.00  0.00    +0.013 A 
ENDBRANCH  25  27
ENDBRANCH  20  23
ENDBRANCH   1  17
TORSDOF 6
