REMARK  Name = ZINC00612819
REMARK                            x       y       z     vdW  Elec       q    Type
REMARK                         _______ _______ _______ _____ _____    ______ ____
ROOT
ATOM      1  C   LIG    1       -2.143   1.058   1.278  0.00  0.00    +0.235 C 
ATOM      2  N   LIG    1       -2.967   1.366   2.298  0.00  0.00    -0.185 N 
ATOM      3  C   LIG    1       -4.365   0.926   2.433  0.00  0.00    +0.137 C 
ATOM      4  C   LIG    1       -4.817   1.561   3.762  0.00  0.00    +0.087 C 
ATOM      5  C   LIG    1       -3.595   2.308   4.244  0.00  0.00    +0.069 C 
ATOM      6  N   LIG    1       -2.634   2.150   3.401  0.00  0.00    -0.181 NA
ATOM      7  O   LIG    1       -2.539   0.360   0.368  0.00  0.00    -0.274 OA
ENDROOT
BRANCH   5   8
ATOM      8  C   LIG    1       -3.512   3.092   5.490  0.00  0.00    -0.002 A 
ATOM      9  C   LIG    1       -4.624   3.191   6.331  0.00  0.00    +0.012 A 
ATOM     10  C   LIG    1       -4.539   3.921   7.498  0.00  0.00    +0.039 A 
ATOM     11  C   LIG    1       -3.358   4.564   7.832  0.00  0.00    +0.123 A 
ATOM     12  F   LIG    1       -3.283   5.283   8.974  0.00  0.00    -0.205 F 
ATOM     13  C   LIG    1       -2.254   4.474   6.999  0.00  0.00    +0.039 A 
ATOM     14  C   LIG    1       -2.325   3.743   5.833  0.00  0.00    +0.012 A 
ENDBRANCH   5   8
BRANCH   3  15
ATOM     15  C   LIG    1       -4.442  -0.577   2.509  0.00  0.00    -0.024 A 
ATOM     16  C   LIG    1       -3.481  -1.283   3.209  0.00  0.00    +0.009 A 
ATOM     17  C   LIG    1       -3.552  -2.660   3.285  0.00  0.00    +0.046 A 
ATOM     18  C   LIG    1       -4.583  -3.337   2.649  0.00  0.00    +0.120 A 
ATOM     19  C   LIG    1       -5.543  -2.627   1.943  0.00  0.00    +0.046 A 
ATOM     20  C   LIG    1       -5.471  -1.249   1.875  0.00  0.00    +0.009 A 
BRANCH  18  21
ATOM     21  O   LIG    1       -4.652  -4.692   2.717  0.00  0.00    -0.495 OA
ATOM     22  C   LIG    1       -3.630  -5.357   3.462  0.00  0.00    +0.277 C 
ENDBRANCH  18  21
ENDBRANCH   3  15
BRANCH   1  24
ATOM     23  C   LIG    1       -0.013   1.086   0.008  0.00  0.00    +0.013 C 
ATOM     24  C   LIG    1       -0.729   1.579   1.267  0.00  0.00    +0.094 C 
ENDBRANCH   1  24
TORSDOF 4
