REMARK  Name = ZINC00598360
REMARK                            x       y       z     vdW  Elec       q    Type
REMARK                         _______ _______ _______ _____ _____    ______ ____
ROOT
ATOM      1  C   LIG    1        0.120   1.482   0.361  0.00  0.00    +0.061 C 
ATOM      2  C   LIG    1        0.070  -0.013   0.173  0.00  0.00    +0.016 C 
ATOM      3  C   LIG    1       -1.120  -0.638   0.138  0.00  0.00    +0.065 C 
ATOM      4  C   LIG    1       -1.218  -2.125  -0.055  0.00  0.00    +0.096 C 
ATOM      5  C   LIG    1        0.108  -2.783   0.198  0.00  0.00    +0.065 C 
ATOM      6  C   LIG    1        1.249  -2.072   0.231  0.00  0.00    +0.016 C 
ATOM      7  C   LIG    1        2.558  -2.776   0.479  0.00  0.00    +0.061 C 
ATOM      8  N   LIG    1        1.235  -0.716   0.035  0.00  0.00    -0.321 N 
ATOM      9  H   LIG    1        2.054  -0.252  -0.197  0.00  0.00    +0.152 HD
ENDROOT
BRANCH   4  10
ATOM     10  C   LIG    1       -1.653  -2.413  -1.469  0.00  0.00    -0.033 A 
ATOM     11  C   LIG    1       -0.876  -1.990  -2.531  0.00  0.00    +0.005 A 
ATOM     12  C   LIG    1       -1.275  -2.255  -3.828  0.00  0.00    +0.003 A 
ATOM     13  C   LIG    1       -2.450  -2.944  -4.062  0.00  0.00    +0.032 A 
ATOM     14  C   LIG    1       -3.227  -3.368  -3.000  0.00  0.00    +0.122 A 
ATOM     15  C   LIG    1       -2.826  -3.107  -1.703  0.00  0.00    +0.037 A 
BRANCH  14  16
ATOM     16  N   LIG    1       -4.486  -4.105  -3.252  0.00  0.00    +0.006 N 
ATOM     17  O   LIG    1       -4.835  -4.336  -4.386  0.00  0.00    -0.130 OA
BRANCH  16  18
ATOM     18  O   LIG    1       -5.165  -4.476  -2.323  0.00  0.00    -0.396 OA
ATOM     19  H   LIG    1       -4.894  -4.296  -1.444  0.00  0.00    +0.329 HD
ENDBRANCH  16  18
ENDBRANCH  14  16
ENDBRANCH   4  10
BRANCH   3  20
ATOM     20  C   LIG    1       -2.304   0.120   0.287  0.00  0.00    +0.337 C 
ATOM     21  O   LIG    1       -2.240   1.325   0.444  0.00  0.00    -0.245 OA
BRANCH  20  22
ATOM     22  O   LIG    1       -3.506  -0.493   0.253  0.00  0.00    -0.465 OA
ATOM     23  C   LIG    1       -4.661   0.335   0.410  0.00  0.00    +0.280 C 
ENDBRANCH  20  22
ENDBRANCH   3  20
BRANCH   5  24
ATOM     24  C   LIG    1        0.159  -4.181   0.406  0.00  0.00    +0.338 C 
ATOM     25  O   LIG    1       -0.223  -4.653   1.461  0.00  0.00    -0.245 OA
BRANCH  24  26
ATOM     26  O   LIG    1        0.630  -4.991  -0.565  0.00  0.00    -0.457 OA
BRANCH  26  27
ATOM     27  C   LIG    1        0.652  -6.392  -0.286  0.00  0.00    +0.192 C 
ATOM     28  C   LIG    1        2.038  -6.829   0.258  0.00  0.00    +0.061 C 
ATOM     29  C   LIG    1        2.114  -8.318  -0.140  0.00  0.00    +0.088 C 
ATOM     30  N   LIG    1        1.182  -8.518  -1.265  0.00  0.00    -0.295 NA
ATOM     31  C   LIG    1        0.553  -7.220  -1.592  0.00  0.00    +0.129 C 
BRANCH  30  32
ATOM     32  C   LIG    1        1.877  -9.075  -2.433  0.00  0.00    +0.119 C 
BRANCH  32  33
ATOM     33  C   LIG    1        2.275 -10.500  -2.147  0.00  0.00    -0.033 A 
ATOM     34  C   LIG    1        3.501 -10.773  -1.570  0.00  0.00    +0.005 A 
ATOM     35  C   LIG    1        3.866 -12.081  -1.308  0.00  0.00    +0.000 A 
ATOM     36  C   LIG    1        3.004 -13.115  -1.623  0.00  0.00    +0.000 A 
ATOM     37  C   LIG    1        1.778 -12.842  -2.199  0.00  0.00    +0.000 A 
ATOM     38  C   LIG    1        1.411 -11.534  -2.457  0.00  0.00    +0.005 A 
ENDBRANCH  32  33
ENDBRANCH  30  32
ENDBRANCH  26  27
ENDBRANCH  24  26
ENDBRANCH   5  24
TORSDOF 10
