REMARK  Name = ZINC00582575
REMARK                            x       y       z     vdW  Elec       q    Type
REMARK                         _______ _______ _______ _____ _____    ______ ____
ROOT
ATOM      1  C   UNK A  0        1.204  -2.486  -0.192  0.00  0.00    +0.219 A 
ATOM      2  N   UNK A  0        2.196  -2.020   0.556  0.00  0.00    -0.197 NA
ATOM      3  C   UNK A  0        3.045  -2.842   1.161  0.00  0.00    +0.156 A 
ATOM      4  C   UNK A  0        2.874  -4.228   0.995  0.00  0.00    +0.148 A 
ATOM      5  C   UNK A  0        1.810  -4.675   0.195  0.00  0.00    +0.167 A 
ATOM      6  N   UNK A  0        1.878  -6.046   0.206  0.00  0.00    -0.312 N 
ATOM      7  C   UNK A  0        2.942  -6.396   0.984  0.00  0.00    +0.201 A 
ATOM      8  N   UNK A  0        3.525  -5.328   1.446  0.00  0.00    -0.231 NA
ATOM      9  N   UNK A  0        1.003  -3.782  -0.370  0.00  0.00    -0.195 NA
ENDROOT
BRANCH   6  10
ATOM     10  C   UNK A  0        0.973  -6.965  -0.489  0.00  0.00    +0.084 C 
ATOM     11  C   UNK A  0        0.286  -7.874   0.532  0.00  0.00    +0.030 C 
ATOM     12  C   UNK A  0        1.772  -7.817  -1.476  0.00  0.00    +0.030 C 
ENDBRANCH   6  10
BRANCH   1  13
ATOM     13  N   VAL A  1        0.345  -1.587  -0.801  0.00  0.00    -0.308 N 
ATOM     14  H   VAL A  1       -0.388  -1.910  -1.348  0.00  0.00    +0.149 HD
BRANCH  13  15
ATOM     15  CA  VAL A  1        0.544  -0.146  -0.621  0.00  0.00    +0.101 C 
BRANCH  15  17
ATOM     16  CG1 VAL A  1        0.428  -0.491   1.851  0.00  0.00    +0.009 C 
ATOM     17  CB  VAL A  1       -0.137   0.304   0.673  0.00  0.00    +0.005 C 
ATOM     18  CG2 VAL A  1        0.122   1.796   0.893  0.00  0.00    +0.009 C 
ENDBRANCH  15  17
BRANCH  15  19
ATOM     19  C   VAL A  1       -0.063   0.605  -1.806  0.00  0.00    +0.178 C 
BRANCH  19  20
ATOM     20  O   VAL A  1       -1.478   0.407  -1.821  0.00  0.00    -0.393 OA
ATOM     21  H   VAL A  1       -1.931   0.856  -2.548  0.00  0.00    +0.209 HD
ENDBRANCH  19  20
ENDBRANCH  15  19
ENDBRANCH  13  15
ENDBRANCH   1  13
BRANCH   3  22
ATOM     22  N   UNK A  0        4.078  -2.346   1.939  0.00  0.00    -0.298 N 
ATOM     23  H   UNK A  0        4.654  -2.955   2.426  0.00  0.00    +0.154 HD
BRANCH  22  24
ATOM     24  C   UNK A  0        4.290  -0.967   2.021  0.00  0.00    +0.034 A 
ATOM     25  C   UNK A  0        4.044  -0.158   0.918  0.00  0.00    +0.023 A 
ATOM     26  C   UNK A  0        4.254   1.204   1.002  0.00  0.00    +0.003 A 
ATOM     27  C   UNK A  0        4.710   1.764   2.182  0.00  0.00    +0.020 A 
ATOM     28  C   UNK A  0        4.957   0.962   3.282  0.00  0.00    +0.043 A 
ATOM     29 CL   UNK A  0        5.529   1.669   4.760  0.00  0.00    -0.083 Cl
ATOM     30  C   UNK A  0        4.743  -0.402   3.206  0.00  0.00    +0.043 A 
ENDBRANCH  22  24
ENDBRANCH   3  22
TORSDOF 8
