REMARK  Name = ZINC00599598
REMARK                            x       y       z     vdW  Elec       q    Type
REMARK                         _______ _______ _______ _____ _____    ______ ____
ROOT
ATOM      1  C   LIG    1        3.869  -2.870   0.497  0.00  0.00    +0.060 A 
ATOM      2  C   LIG    1        3.956  -3.293   1.789  0.00  0.00    +0.093 A 
ATOM      3  N   LIG    1        5.027  -4.094   1.899  0.00  0.00    -0.228 NA
ATOM      4  C   LIG    1        5.620  -4.190   0.718  0.00  0.00    +0.139 A 
ATOM      5  C   LIG    1        6.766  -4.893   0.290  0.00  0.00    +0.048 A 
ATOM      6  C   LIG    1        7.144  -4.820  -1.014  0.00  0.00    +0.025 A 
ATOM      7  C   LIG    1        6.399  -4.037  -1.913  0.00  0.00    +0.058 A 
ATOM      8 CL   LIG    1        6.884  -3.932  -3.576  0.00  0.00    -0.082 Cl
ATOM      9  C   LIG    1        5.307  -3.365  -1.487  0.00  0.00    +0.113 A 
ATOM     10  N   LIG    1        4.912  -3.437  -0.182  0.00  0.00    -0.301 N 
ENDROOT
BRANCH   2  11
ATOM     11  C   LIG    1        3.025  -2.931   2.886  0.00  0.00    +0.002 A 
ATOM     12  C   LIG    1        1.651  -2.908   2.658  0.00  0.00    +0.011 A 
ATOM     13  C   LIG    1        0.789  -2.570   3.682  0.00  0.00    +0.020 A 
ATOM     14  C   LIG    1        1.289  -2.254   4.934  0.00  0.00    +0.041 A 
ATOM     15 CL   LIG    1        0.200  -1.828   6.218  0.00  0.00    -0.084 Cl
ATOM     16  C   LIG    1        2.653  -2.275   5.165  0.00  0.00    +0.020 A 
ATOM     17  C   LIG    1        3.522  -2.618   4.150  0.00  0.00    +0.011 A 
ENDBRANCH   2  11
BRANCH   1  18
ATOM     18  C   LIG    1        2.819  -1.955  -0.077  0.00  0.00    +0.151 C 
BRANCH  18  20
ATOM     19  N   LIG    1        0.666  -2.169  -1.277  0.00  0.00    -0.301 N 
ATOM     20  C   LIG    1        1.720  -2.779  -0.698  0.00  0.00    +0.221 C 
ATOM     21  O   LIG    1        1.784  -3.989  -0.676  0.00  0.00    -0.275 OA
BRANCH  19  22
ATOM     22  C   LIG    1        0.590  -0.707  -1.304  0.00  0.00    +0.107 C 
BRANCH  22  24
ATOM     23  C   LIG    1       -0.219   1.316  -0.080  0.00  0.00    +0.005 C 
ATOM     24  C   LIG    1       -0.139  -0.212  -0.052  0.00  0.00    +0.016 C 
ENDBRANCH  22  24
ENDBRANCH  19  22
BRANCH  19  25
ATOM     25  C   LIG    1       -0.402  -2.970  -1.881  0.00  0.00    +0.107 C 
BRANCH  25  26
ATOM     26  C   LIG    1       -0.072  -3.234  -3.351  0.00  0.00    +0.016 C 
ATOM     27  C   LIG    1       -1.188  -4.071  -3.981  0.00  0.00    +0.005 C 
ENDBRANCH  25  26
ENDBRANCH  19  25
ENDBRANCH  18  20
ENDBRANCH   1  18
TORSDOF 7
