REMARK  Name = ZINC00387366
REMARK                            x       y       z     vdW  Elec       q    Type
REMARK                         _______ _______ _______ _____ _____    ______ ____
ROOT
ATOM      1  C   LIG    1       -0.154  -0.448   2.534  0.00  0.00    +0.003 A 
ATOM      2  C   LIG    1       -0.454   0.870   2.875  0.00  0.00    +0.010 A 
ATOM      3  C   LIG    1       -0.527   1.239   4.203  0.00  0.00    +0.004 A 
ATOM      4  C   LIG    1       -0.304   0.304   5.197  0.00  0.00    +0.046 A 
ATOM      5  C   LIG    1       -0.005  -1.010   4.866  0.00  0.00    +0.134 A 
ATOM      6  C   LIG    1        0.065  -1.390   3.535  0.00  0.00    +0.056 A 
ENDROOT
BRANCH   1  16
ATOM      7  C   LIG    1        1.333  -2.883   1.425  0.00  0.00    +0.151 C 
ATOM      8  N   LIG    1        0.578  -1.916   0.624  0.00  0.00    -0.328 N 
ATOM      9  C   LIG    1        0.426  -1.960  -0.691  0.00  0.00    +0.118 A 
ATOM     10  C   LIG    1        0.894  -2.864  -1.667  0.00  0.00    +0.045 A 
ATOM     11  C   LIG    1        0.577  -2.658  -2.973  0.00  0.00    +0.005 A 
ATOM     12  C   LIG    1       -0.210  -1.551  -3.332  0.00  0.00    +0.018 A 
ATOM     13  C   LIG    1       -0.651  -0.694  -2.387  0.00  0.00    +0.092 A 
ATOM     14  N   LIG    1       -0.340  -0.889  -1.072  0.00  0.00    -0.307 N 
ATOM     15  C   LIG    1       -0.650  -0.190   0.061  0.00  0.00    +0.119 A 
ATOM     16  C   LIG    1       -0.075  -0.847   1.107  0.00  0.00    +0.067 A 
ENDBRANCH   1  16
BRANCH   5  17
ATOM     17  O   LIG    1        0.215  -1.925   5.846  0.00  0.00    -0.411 OA
BRANCH  17  18
ATOM     18  C   LIG    1       -0.852  -2.399   6.519  0.00  0.00    +0.408 C 
ATOM     19  N   LIG    1       -0.693  -3.380   7.429  0.00  0.00    -0.273 N 
ATOM     20  C   LIG    1        0.640  -3.931   7.687  0.00  0.00    +0.135 C 
ATOM     21  C   LIG    1       -1.853  -3.896   8.161  0.00  0.00    +0.135 C 
ATOM     22  O   LIG    1       -1.957  -1.942   6.305  0.00  0.00    -0.226 OA
ENDBRANCH  17  18
ENDBRANCH   5  17
TORSDOF 3
