REMARK  Name = ZINC00380804
REMARK                            x       y       z     vdW  Elec       q    Type
REMARK                         _______ _______ _______ _____ _____    ______ ____
ROOT
ATOM      1  C   LIG    1        1.153   4.087   1.434  0.00  0.00    +0.039 C 
ATOM      2  C   LIG    1       -0.029   4.398   2.078  0.00  0.00    +0.090 C 
ATOM      3  N   LIG    1       -0.053   4.847   3.365  0.00  0.00    -0.289 NA
ATOM      4  H   LIG    1       -0.614   4.196   3.915  0.00  0.00    +0.125 HD
ATOM      5  C   LIG    1        1.164   4.967   3.968  0.00  0.00    +0.192 C 
ATOM      6  N   LIG    1        2.318   4.679   3.386  0.00  0.00    -0.274 NA
ATOM      7  H   LIG    1        2.333   4.349   2.442  0.00  0.00    +0.126 HD
ATOM      8  C   LIG    1        2.352   4.236   2.133  0.00  0.00    +0.126 C 
ENDROOT
BRANCH   5   9
ATOM      9  N   LIG    1        1.162   5.421   5.276  0.00  0.00    -0.303 NA
ATOM     10  H   LIG    1        1.999   5.525   5.754  0.00  0.00    +0.121 HD
ATOM     11  H   LIG    1        0.323   5.635   5.713  0.00  0.00    +0.121 HD
ENDBRANCH   5   9
BRANCH   8  12
ATOM     12  N   LIG    1        3.561   3.931   1.529  0.00  0.00    -0.315 NA
ATOM     13  H   LIG    1        4.390   4.037   2.021  0.00  0.00    +0.120 HD
ATOM     14  H   LIG    1        3.578   3.611   0.613  0.00  0.00    +0.120 HD
ENDBRANCH   8  12
BRANCH   1  15
ATOM     15  C   LIG    1        1.147   3.593   0.011  0.00  0.00    +0.042 C 
BRANCH  15  19
ATOM     16  C   LIG    1        1.213  -0.680  -0.013  0.00  0.00    +0.120 A 
ATOM     17  C   LIG    1        0.002  -0.004   0.002  0.00  0.00    +0.046 A 
ATOM     18  C   LIG    1       -0.017   1.377   0.010  0.00  0.00    +0.007 A 
ATOM     19  C   LIG    1        1.171   2.086   0.002  0.00  0.00    -0.047 A 
ATOM     20  C   LIG    1        2.379   1.415  -0.013  0.00  0.00    +0.007 A 
ATOM     21  C   LIG    1        2.403   0.033  -0.021  0.00  0.00    +0.046 A 
BRANCH  16  23
ATOM     22  C   LIG    1        2.518  -2.668  -0.036  0.00  0.00    +0.277 C 
ATOM     23  O   LIG    1        1.234  -2.039  -0.020  0.00  0.00    -0.495 OA
ENDBRANCH  16  23
ENDBRANCH  15  19
ENDBRANCH   1  15
TORSDOF 5
