REMARK  Name = ZINC00454138
REMARK                            x       y       z     vdW  Elec       q    Type
REMARK                         _______ _______ _______ _____ _____    ______ ____
ROOT
ATOM      1  C   LIG    1       -1.406  -0.535  -0.003  0.00  0.00    +0.255 C 
ATOM      2  N   LIG    1       -1.638  -1.862  -0.005  0.00  0.00    -0.282 N 
ATOM      3  H   LIG    1       -0.899  -2.484  -0.092  0.00  0.00    +0.155 HD
ATOM      4  O   LIG    1       -2.336   0.244   0.023  0.00  0.00    -0.272 OA
ENDROOT
BRANCH   2   5
ATOM      5  C   LIG    1       -2.940  -2.341   0.116  0.00  0.00    +0.048 A 
ATOM      6  C   LIG    1       -3.996  -1.648  -0.461  0.00  0.00    +0.024 A 
ATOM      7  C   LIG    1       -5.285  -2.127  -0.343  0.00  0.00    +0.002 A 
ATOM      8  C   LIG    1       -5.537  -3.296   0.357  0.00  0.00    +0.001 A 
ATOM      9  C   LIG    1       -4.503  -3.995   0.941  0.00  0.00    +0.017 A 
ATOM     10  C   LIG    1       -3.192  -3.525   0.827  0.00  0.00    +0.080 A 
BRANCH  10  11
ATOM     11  C   LIG    1       -2.082  -4.267   1.449  0.00  0.00    +0.339 C 
ATOM     12  O   LIG    1       -0.958  -3.806   1.432  0.00  0.00    -0.245 OA
BRANCH  11  13
ATOM     13  O   LIG    1       -2.313  -5.457   2.037  0.00  0.00    -0.477 OA
ATOM     14  H   LIG    1       -3.179  -5.813   2.050  0.00  0.00    +0.295 HD
ENDBRANCH  11  13
ENDBRANCH  10  11
ENDBRANCH   2   5
BRANCH   1  15
ATOM     15  C   LIG    1        0.009  -0.017  -0.033  0.00  0.00    +0.324 C 
BRANCH  15  16
ATOM     16  O   LIG    1       -0.006   1.412  -0.025  0.00  0.00    -0.483 OA
BRANCH  16  20
ATOM     17  C   LIG    1        3.652   3.325  -0.098  0.00  0.00    +0.120 A 
ATOM     18  C   LIG    1        2.481   4.067  -0.067  0.00  0.00    +0.049 A 
ATOM     19  C   LIG    1        1.257   3.427  -0.042  0.00  0.00    +0.049 A 
ATOM     20  C   LIG    1        1.199   2.042  -0.049  0.00  0.00    +0.121 A 
ATOM     21  C   LIG    1        2.370   1.299  -0.075  0.00  0.00    +0.049 A 
ATOM     22  C   LIG    1        3.594   1.939  -0.104  0.00  0.00    +0.049 A 
BRANCH  17  24
ATOM     23  C   LIG    1        6.021   3.127  -0.154  0.00  0.00    +0.277 C 
ATOM     24  O   LIG    1        4.857   3.955  -0.123  0.00  0.00    -0.495 OA
ENDBRANCH  17  24
ENDBRANCH  16  20
ENDBRANCH  15  16
ENDBRANCH   1  15
TORSDOF 7
