REMARK  Name = ZINC00575232
REMARK                            x       y       z     vdW  Elec       q    Type
REMARK                         _______ _______ _______ _____ _____    ______ ____
ROOT
ATOM      1  C   LIG    1       -0.019   1.526   0.010  0.00  0.00    -0.013 C 
ATOM      2  C   LIG    1        0.002  -0.004   0.002  0.00  0.00    -0.071 C 
ENDROOT
BRANCH   2   3
ATOM      3  N   LIG    1        0.690  -0.478  -1.207  0.00  0.00    +0.383 N 
ATOM      4  H   LIG    1        0.776  -1.482  -1.172  0.00  0.00    -0.085 HD
ATOM      5  H   LIG    1        1.608  -0.063  -1.256  0.00  0.00    -0.085 HD
BRANCH   3   6
ATOM      6  C   LIG    1       -0.086  -0.093  -2.394  0.00  0.00    -0.046 C 
BRANCH   6   7
ATOM      7  C   LIG    1        0.630  -0.587  -3.652  0.00  0.00    +0.128 C 
BRANCH   7   8
ATOM      8  C   LIG    1       -0.165  -0.192  -4.870  0.00  0.00    -0.020 A 
ATOM      9  C   LIG    1        0.006   1.060  -5.431  0.00  0.00    +0.006 A 
ATOM     10  C   LIG    1       -0.724   1.423  -6.548  0.00  0.00    +0.002 A 
ATOM     11  C   LIG    1       -1.624   0.534  -7.104  0.00  0.00    +0.020 A 
ATOM     12  C   LIG    1       -1.795  -0.719  -6.544  0.00  0.00    +0.041 A 
ATOM     13 CL   LIG    1       -2.925  -1.836  -7.242  0.00  0.00    -0.084 Cl
ATOM     14  C   LIG    1       -1.060  -1.084  -5.429  0.00  0.00    +0.026 A 
ENDBRANCH   7   8
BRANCH   7  15
ATOM     15  O   LIG    1        1.931   0.001  -3.722  0.00  0.00    -0.389 OA
ATOM     16  H   LIG    1        1.925   0.968  -3.757  0.00  0.00    +0.210 HD
ENDBRANCH   7  15
ENDBRANCH   6   7
ENDBRANCH   3   6
ENDBRANCH   2   3
BRANCH   2  17
ATOM     17  C   LIG    1        0.742  -0.511   1.242  0.00  0.00    +0.019 C 
BRANCH  17  18
ATOM     18  C   LIG    1        0.657  -2.014   1.298  0.00  0.00    -0.049 A 
ATOM     19  C   LIG    1       -0.397  -2.622   1.956  0.00  0.00    +0.007 A 
ATOM     20  C   LIG    1       -0.477  -4.000   2.009  0.00  0.00    +0.046 A 
ATOM     21  C   LIG    1        0.500  -4.774   1.401  0.00  0.00    +0.121 A 
ATOM     22  C   LIG    1        1.556  -4.163   0.741  0.00  0.00    +0.046 A 
ATOM     23  C   LIG    1        1.629  -2.784   0.686  0.00  0.00    +0.007 A 
BRANCH  21  24
ATOM     24  O   LIG    1        0.424  -6.130   1.453  0.00  0.00    -0.481 OA
BRANCH  24  25
ATOM     25  C   LIG    1        1.465  -6.864   0.805  0.00  0.00    +0.349 C 
BRANCH  25  26
ATOM     26  C   LIG    1        1.214  -8.341   0.966  0.00  0.00    +0.345 C 
ATOM     27  O   LIG    1        0.243  -8.726   1.573  0.00  0.00    -0.247 OA
BRANCH  26  28
ATOM     28  O   LIG    1        2.069  -9.229   0.435  0.00  0.00    -0.466 OA
ATOM     29  C   LIG    1        1.769 -10.613   0.626  0.00  0.00    +0.280 C 
ENDBRANCH  26  28
ENDBRANCH  25  26
ENDBRANCH  24  25
ENDBRANCH  21  24
ENDBRANCH  17  18
ENDBRANCH   2  17
TORSDOF 11
