REMARK  Name = ZINC00496804
REMARK                            x       y       z     vdW  Elec       q    Type
REMARK                         _______ _______ _______ _____ _____    ______ ____
ROOT
ATOM      1  C   LIG    1       -0.012  -2.830  -0.013  0.00  0.00    +0.262 A 
ATOM      2  N   LIG    1        0.065  -4.142  -0.026  0.00  0.00    -0.186 NA
ATOM      3  C   LIG    1        1.351  -4.524  -0.038  0.00  0.00    +0.221 A 
ATOM      4  N   LIG    1        2.111  -3.457  -0.034  0.00  0.00    -0.054 NA
ATOM      5  O   LIG    1        1.238  -2.336  -0.023  0.00  0.00    -0.332 OA
ENDROOT
BRANCH   1  11
ATOM      6  C   LIG    1       -1.199  -0.637   0.010  0.00  0.00    +0.132 A 
ATOM      7  C   LIG    1       -2.373   0.100   0.019  0.00  0.00    +0.046 A 
ATOM      8  C   LIG    1       -3.595  -0.545   0.027  0.00  0.00    +0.004 A 
ATOM      9  C   LIG    1       -3.656  -1.929   0.026  0.00  0.00    +0.001 A 
ATOM     10  C   LIG    1       -2.498  -2.676   0.017  0.00  0.00    +0.017 A 
ATOM     11  C   LIG    1       -1.257  -2.036   0.003  0.00  0.00    +0.081 A 
BRANCH   6  13
ATOM     12  C   LIG    1       -0.017   1.425   0.010  0.00  0.00    +0.277 C 
ATOM     13  O   LIG    1        0.002  -0.004   0.002  0.00  0.00    -0.494 OA
ENDBRANCH   6  13
ENDBRANCH   1  11
BRANCH   3  14
ATOM     14  C   LIG    1        1.834  -5.928  -0.055  0.00  0.00    +0.111 A 
ATOM     15  C   LIG    1        3.202  -6.188  -0.061  0.00  0.00    +0.031 A 
ATOM     16  C   LIG    1        3.638  -7.502  -0.076  0.00  0.00    +0.004 A 
ATOM     17  C   LIG    1        2.689  -8.514  -0.085  0.00  0.00    +0.020 A 
ATOM     18  C   LIG    1        1.346  -8.184  -0.078  0.00  0.00    +0.111 A 
ATOM     19  N   LIG    1        0.959  -6.925  -0.058  0.00  0.00    -0.252 NA
ENDBRANCH   3  14
TORSDOF 3
