REMARK  Name = ZINC00537877
REMARK                            x       y       z     vdW  Elec       q    Type
REMARK                         _______ _______ _______ _____ _____    ______ ____
ROOT
ATOM      1  N   LIG    1        2.852  -6.118  -1.502  0.00  0.00    +0.381 N 
ATOM      2  H   LIG    1        2.112  -6.529  -0.953  0.00  0.00    -0.082 HD
ATOM      3  C   LIG    1        4.150  -6.488  -0.924  0.00  0.00    -0.078 C 
ATOM      4  C   LIG    1        4.266  -8.012  -0.857  0.00  0.00    -0.007 C 
ATOM      5  C   LIG    1        4.151  -8.591  -2.270  0.00  0.00    +0.057 C 
ATOM      6  C   LIG    1        2.827  -8.137  -2.891  0.00  0.00    -0.007 C 
ATOM      7  C   LIG    1        2.764  -6.608  -2.883  0.00  0.00    -0.078 C 
ENDROOT
BRANCH   5   8
ATOM      8  C   LIG    1        4.187 -10.096  -2.203  0.00  0.00    +0.166 C 
ATOM      9  O   LIG    1        3.758 -10.670  -1.225  0.00  0.00    -0.292 OA
BRANCH   8  10
ATOM     10  C   LIG    1        4.741 -10.868  -3.324  0.00  0.00    +0.018 A 
ATOM     11  C   LIG    1        5.242 -10.209  -4.452  0.00  0.00    +0.014 A 
ATOM     12  C   LIG    1        5.760 -10.939  -5.499  0.00  0.00    +0.039 A 
ATOM     13  C   LIG    1        5.786 -12.325  -5.437  0.00  0.00    +0.123 A 
ATOM     14  F   LIG    1        6.295 -13.035  -6.468  0.00  0.00    -0.205 F 
ATOM     15  C   LIG    1        5.291 -12.985  -4.322  0.00  0.00    +0.039 A 
ATOM     16  C   LIG    1        4.776 -12.266  -3.265  0.00  0.00    +0.014 A 
ENDBRANCH   8  10
ENDBRANCH   5   8
BRANCH   1  17
ATOM     17  C   LIG    1        2.713  -4.656  -1.493  0.00  0.00    -0.057 C 
BRANCH  17  18
ATOM     18  C   LIG    1        2.679  -4.156  -0.047  0.00  0.00    +0.111 C 
BRANCH  18  25
ATOM     19  C   LIG    1       -0.017   1.363   0.009  0.00  0.00    +0.001 A 
ATOM     20  C   LIG    1        1.168   2.089   0.002  0.00  0.00    +0.002 A 
ATOM     21  C   LIG    1        2.379   1.458  -0.013  0.00  0.00    +0.029 A 
ATOM     22  C   LIG    1        2.431   0.061  -0.021  0.00  0.00    +0.081 A 
ATOM     23  C   LIG    1        1.224  -0.674  -0.013  0.00  0.00    +0.065 A 
ATOM     24  C   LIG    1        1.307  -2.141  -0.022  0.00  0.00    +0.264 A 
ATOM     25  N   LIG    1        2.541  -2.697  -0.038  0.00  0.00    -0.264 N 
ATOM     26  C   LIG    1        3.655  -1.913  -0.045  0.00  0.00    +0.299 A 
ATOM     27  O   LIG    1        0.304  -2.830  -0.016  0.00  0.00    -0.267 OA
ATOM     28  N   LIG    1        3.610  -0.607  -0.037  0.00  0.00    -0.196 NA
ATOM     29  C   LIG    1        0.002  -0.004   0.002  0.00  0.00    +0.015 A 
BRANCH  26  30
ATOM     30  O   LIG    1        4.864  -2.514  -0.061  0.00  0.00    -0.479 OA
ATOM     31  H   LIG    1        4.922  -3.449  -0.067  0.00  0.00    +0.295 HD
ENDBRANCH  26  30
ENDBRANCH  18  25
ENDBRANCH  17  18
ENDBRANCH   1  17
TORSDOF 6
