REMARK  Name = ZINC00384639
REMARK                            x       y       z     vdW  Elec       q    Type
REMARK                         _______ _______ _______ _____ _____    ______ ____
ROOT
ATOM      1  C   LIG    1        0.626  -0.619   1.042  0.00  0.00    +0.140 A 
ATOM      2  C   LIG    1        1.202   0.139   2.051  0.00  0.00    +0.079 A 
ATOM      3  C   LIG    1        1.836  -0.486   3.108  0.00  0.00    +0.153 A 
ATOM      4  C   LIG    1        1.897  -1.870   3.161  0.00  0.00    +0.148 A 
ATOM      5  C   LIG    1        1.321  -2.629   2.152  0.00  0.00    +0.071 A 
ATOM      6  C   LIG    1        0.682  -2.005   1.097  0.00  0.00    +0.086 A 
ATOM      7 CL   LIG    1       -0.045  -2.953  -0.162  0.00  0.00    -0.080 Cl
ENDROOT
BRANCH   3   8
ATOM      8  S   LIG    1        2.567   0.477   4.389  0.00  0.00    +0.076 S 
ATOM      9  O   LIG    1        2.318   1.839   4.067  0.00  0.00    -0.150 OA
ATOM     10  O   LIG    1        3.880  -0.032   4.581  0.00  0.00    -0.150 OA
BRANCH   8  11
ATOM     11  N   LIG    1        1.728   0.159   5.781  0.00  0.00    -0.215 N 
ATOM     12  H   LIG    1        0.974  -0.474   5.767  0.00  0.00    +0.174 HD
BRANCH  11  13
ATOM     13  C   LIG    1        2.090   0.789   6.974  0.00  0.00    +0.066 A 
ATOM     14  C   LIG    1        1.394   0.524   8.152  0.00  0.00    +0.027 A 
ATOM     15  C   LIG    1        1.790   1.173   9.310  0.00  0.00    +0.022 A 
ATOM     16  C   LIG    1        2.854   2.056   9.260  0.00  0.00    +0.111 A 
ATOM     17  N   LIG    1        3.491   2.285   8.128  0.00  0.00    -0.261 NA
ATOM     18  C   LIG    1        3.151   1.684   7.005  0.00  0.00    +0.135 A 
ENDBRANCH  11  13
ENDBRANCH   8  11
ENDBRANCH   3   8
BRANCH   1  20
ATOM     19  C   LIG    1       -0.017   1.425   0.010  0.00  0.00    +0.277 C 
ATOM     20  O   LIG    1        0.002  -0.004   0.002  0.00  0.00    -0.494 OA
ENDBRANCH   1  20
BRANCH   4  21
ATOM     21  O   LIG    1        2.521  -2.484   4.201  0.00  0.00    -0.493 OA
ATOM     22  C   LIG    1        2.546  -3.913   4.191  0.00  0.00    +0.277 C 
ENDBRANCH   4  21
TORSDOF 5
