REMARK  Name = ZINC00519612
REMARK                            x       y       z     vdW  Elec       q    Type
REMARK                         _______ _______ _______ _____ _____    ______ ____
ROOT
ATOM      1  C   LIG    1        0.678  -2.697  -0.016  0.00  0.00    +0.001 A 
ATOM      2  C   LIG    1       -0.654  -2.308  -0.005  0.00  0.00    +0.002 A 
ATOM      3  C   LIG    1       -0.996  -0.973   0.004  0.00  0.00    +0.026 A 
ATOM      4  C   LIG    1        0.002  -0.004   0.002  0.00  0.00    +0.047 A 
ATOM      5  C   LIG    1        1.353  -0.403  -0.010  0.00  0.00    +0.003 A 
ATOM      6  C   LIG    1        2.132   0.830  -0.011  0.00  0.00    -0.018 A 
ATOM      7  C   LIG    1        1.261   1.857   0.000  0.00  0.00    +0.032 A 
ATOM      8  C   LIG    1        1.678   3.310  -0.001  0.00  0.00    +0.121 C 
ATOM      9  C   LIG    1        3.145   3.395  -0.438  0.00  0.00    +0.019 C 
ATOM     10  C   LIG    1        3.982   2.414   0.388  0.00  0.00    +0.006 C 
ATOM     11  C   LIG    1        3.632   0.978  -0.022  0.00  0.00    +0.037 C 
ATOM     12  N   LIG    1       -0.017   1.374   0.010  0.00  0.00    -0.357 N 
ATOM     13  H   LIG    1       -0.818   1.920   0.017  0.00  0.00    +0.166 HD
ATOM     14  C   LIG    1        1.674  -1.762  -0.019  0.00  0.00    +0.010 A 
ENDROOT
BRANCH   8  15
ATOM     15  C   LIG    1        0.817   4.083  -0.965  0.00  0.00    +0.219 C 
ATOM     16  N   LIG    1        1.012   5.407  -1.131  0.00  0.00    -0.329 N 
ATOM     17  H   LIG    1        0.457   5.905  -1.752  0.00  0.00    +0.145 HD
ATOM     18  H   LIG    1        1.706   5.861  -0.629  0.00  0.00    +0.145 HD
ATOM     19  O   LIG    1       -0.051   3.515  -1.593  0.00  0.00    -0.275 OA
ENDBRANCH   8  15
TORSDOF 1
