REMARK  Name = ZINC00391471
REMARK                            x       y       z     vdW  Elec       q    Type
REMARK                         _______ _______ _______ _____ _____    ______ ____
ROOT
ATOM      1  C   LIG    1       -1.610   1.538   1.157  0.00  0.00    +0.344 C 
ATOM      2  O   LIG    1       -1.909   2.215   2.121  0.00  0.00    -0.245 OA
ENDROOT
BRANCH   1   6
ATOM      3  C   LIG    1       -1.857  -2.695   1.378  0.00  0.00    +0.000 A 
ATOM      4  C   LIG    1       -2.198  -1.927   2.478  0.00  0.00    +0.001 A 
ATOM      5  C   LIG    1       -2.120  -0.551   2.413  0.00  0.00    +0.015 A 
ATOM      6  C   LIG    1       -1.696   0.066   1.234  0.00  0.00    +0.059 A 
ATOM      7  C   LIG    1       -1.359  -0.715   0.127  0.00  0.00    +0.015 A 
ATOM      8  C   LIG    1       -1.437  -2.090   0.207  0.00  0.00    +0.001 A 
ENDBRANCH   1   6
BRANCH   1   9
ATOM      9  O   LIG    1       -1.195   2.131   0.019  0.00  0.00    -0.427 OA
BRANCH   9  10
ATOM     10  C   LIG    1       -1.237   3.478  -0.020  0.00  0.00    +0.112 C 
ATOM     11  C   LIG    1       -0.088   4.171  -0.096  0.00  0.00    +0.088 C 
ATOM     12  C   LIG    1       -0.075   5.575  -0.150  0.00  0.00    +0.159 C 
ATOM     13  C   LIG    1       -1.365   6.354  -0.117  0.00  0.00    +0.079 C 
ATOM     14  C   LIG    1       -2.479   5.502  -0.734  0.00  0.00    +0.015 C 
ATOM     15  O   LIG    1        0.984   6.165  -0.218  0.00  0.00    -0.293 OA
ATOM     16  C   LIG    1       -2.569   4.177   0.029  0.00  0.00    +0.075 C 
ENDBRANCH   9  10
ENDBRANCH   1   9
TORSDOF 3
