REMARK  Name = ZINC00391820
REMARK                            x       y       z     vdW  Elec       q    Type
REMARK                         _______ _______ _______ _____ _____    ______ ____
ROOT
ATOM      1  C   LIG    1        3.696   2.049  -0.023  0.00  0.00    -0.039 C 
ATOM      2  C   LIG    1        4.285   2.041  -1.449  0.00  0.00    -0.013 C 
ATOM      3  C   LIG    1        5.800   1.821  -1.202  0.00  0.00    -0.020 C 
ATOM      4  C   LIG    1        5.782   0.868   0.019  0.00  0.00    -0.082 C 
ATOM      5  N   LIG    1        4.648   1.337   0.850  0.00  0.00    +0.384 N 
ATOM      6  H   LIG    1        4.190   0.546   1.278  0.00  0.00    -0.085 HD
ATOM      7  H   LIG    1        4.985   1.962   1.566  0.00  0.00    -0.085 HD
ENDROOT
BRANCH   1  10
ATOM      8  C   LIG    1       -0.017   1.378   0.010  0.00  0.00    +0.020 A 
ATOM      9  C   LIG    1        1.185   2.070   0.002  0.00  0.00    +0.005 A 
ATOM     10  C   LIG    1        2.365   1.343  -0.013  0.00  0.00    -0.043 A 
ATOM     11  C   LIG    1        2.305  -0.038  -0.020  0.00  0.00    +0.112 A 
ATOM     12  N   LIG    1        1.144  -0.663  -0.013  0.00  0.00    -0.263 NA
ATOM     13  C   LIG    1        0.002  -0.004   0.002  0.00  0.00    +0.111 A 
ENDBRANCH   1  10
TORSDOF 1
