REMARK  Name = ZINC00598586
REMARK                            x       y       z     vdW  Elec       q    Type
REMARK                         _______ _______ _______ _____ _____    ______ ____
ROOT
ATOM      1  C   LIG    1       -1.197  -2.659  -0.458  0.00  0.00    +0.328 C 
ATOM      2  O   LIG    1       -1.798  -1.946   0.311  0.00  0.00    -0.249 OA
ENDROOT
BRANCH   1   3
ATOM      3  C   LIG    1        0.020  -2.136  -1.177  0.00  0.00    +0.186 C 
BRANCH   3   6
ATOM      4  C   LIG    1       -0.018   1.503   0.010  0.00  0.00    +0.109 C 
ATOM      5  C   LIG    1        0.002  -0.004   0.002  0.00  0.00    +0.211 C 
ATOM      6  N   LIG    1        0.000  -0.672  -1.169  0.00  0.00    -0.302 N 
ATOM      7  H   LIG    1       -0.015  -0.182  -2.006  0.00  0.00    +0.150 HD
ATOM      8  O   LIG    1        0.020  -0.616   1.049  0.00  0.00    -0.276 OA
ENDBRANCH   3   6
BRANCH   3   9
ATOM      9  C   LIG    1        1.283  -2.633  -0.470  0.00  0.00    +0.071 C 
BRANCH   9  10
ATOM     10  C   LIG    1        2.497  -2.214  -1.258  0.00  0.00    -0.020 A 
ATOM     11  C   LIG    1        3.146  -2.947  -2.176  0.00  0.00    +0.087 A 
ATOM     12  N   LIG    1        4.201  -2.237  -2.681  0.00  0.00    -0.360 N 
ATOM     13  C   LIG    1        4.258  -0.997  -2.084  0.00  0.00    +0.047 A 
ATOM     14  C   LIG    1        5.110   0.094  -2.222  0.00  0.00    +0.026 A 
ATOM     15  C   LIG    1        4.893   1.230  -1.474  0.00  0.00    +0.002 A 
ATOM     16  C   LIG    1        3.841   1.294  -0.572  0.00  0.00    +0.001 A 
ATOM     17  C   LIG    1        2.994   0.232  -0.417  0.00  0.00    +0.010 A 
ATOM     18  H   LIG    1        4.816  -2.558  -3.358  0.00  0.00    +0.165 HD
ATOM     19  C   LIG    1        3.190  -0.926  -1.171  0.00  0.00    +0.003 A 
ENDBRANCH   9  10
ENDBRANCH   3   9
ENDBRANCH   1   3
BRANCH   1  20
ATOM     20  O   LIG    1       -1.613  -3.917  -0.670  0.00  0.00    -0.459 OA
BRANCH  20  21
ATOM     21  C   LIG    1       -2.773  -4.347   0.045  0.00  0.00    +0.267 C 
BRANCH  21  22
ATOM     22  C   LIG    1       -3.088  -5.775  -0.319  0.00  0.00    -0.009 A 
ATOM     23  C   LIG    1       -3.922  -6.048  -1.386  0.00  0.00    +0.019 A 
ATOM     24  C   LIG    1       -4.211  -7.358  -1.720  0.00  0.00    +0.056 A 
ATOM     25  C   LIG    1       -3.665  -8.395  -0.986  0.00  0.00    +0.024 A 
ATOM     26  C   LIG    1       -2.830  -8.121   0.081  0.00  0.00    +0.056 A 
ATOM     27  C   LIG    1       -2.538  -6.811   0.412  0.00  0.00    +0.019 A 
BRANCH  24  28
ATOM     28  C   LIG    1       -5.122  -7.657  -2.884  0.00  0.00    +0.417 C 
ATOM     29  F   LIG    1       -6.047  -6.618  -3.030  0.00  0.00    -0.166 F 
ATOM     30  F   LIG    1       -5.801  -8.857  -2.648  0.00  0.00    -0.166 F 
ATOM     31  F   LIG    1       -4.362  -7.772  -4.052  0.00  0.00    -0.166 F 
ENDBRANCH  24  28
BRANCH  26  32
ATOM     32  C   LIG    1       -2.235  -9.251   0.881  0.00  0.00    +0.417 C 
ATOM     33  F   LIG    1       -2.644  -9.144   2.215  0.00  0.00    -0.166 F 
ATOM     34  F   LIG    1       -0.839  -9.186   0.814  0.00  0.00    -0.166 F 
ATOM     35  F   LIG    1       -2.671 -10.473   0.357  0.00  0.00    -0.166 F 
ENDBRANCH  26  32
ENDBRANCH  21  22
ENDBRANCH  20  21
ENDBRANCH   1  20
TORSDOF 9
