REMARK  Name = ZINC00537891
REMARK                            x       y       z     vdW  Elec       q    Type
REMARK                         _______ _______ _______ _____ _____    ______ ____
ROOT
ATOM      1  C   LIG    1       -0.608   1.495   0.247  0.00  0.00    +0.034 C 
ATOM      2  C   LIG    1       -0.533  -0.033   0.219  0.00  0.00    +0.122 C 
ATOM      3  C   LIG    1       -1.926  -0.619   0.468  0.00  0.00    +0.254 C 
ATOM      4  O   LIG    1       -2.324  -0.306   1.808  0.00  0.00    -0.486 OA
ATOM      5  C   LIG    1       -1.465  -0.699   2.792  0.00  0.00    +0.171 A 
ATOM      6  C   LIG    1       -0.115  -0.804   2.525  0.00  0.00    +0.097 A 
ATOM      7  C   LIG    1        0.768  -1.224   3.553  0.00  0.00    +0.047 A 
ATOM      8  C   LIG    1        0.270  -1.518   4.839  0.00  0.00    +0.054 A 
ATOM      9  C   LIG    1       -1.057  -1.407   5.098  0.00  0.00    +0.151 A 
ATOM     10  F   LIG    1       -1.528  -1.689   6.332  0.00  0.00    -0.203 F 
ATOM     11  C   LIG    1        2.141  -1.343   3.269  0.00  0.00    +0.142 A 
ATOM     12  C   LIG    1        2.592  -1.036   1.962  0.00  0.00    +0.117 A 
ATOM     13  C   LIG    1        1.690  -0.621   0.998  0.00  0.00    +0.105 A 
ATOM     14  C   LIG    1       -1.951  -0.997   4.079  0.00  0.00    +0.118 A 
ATOM     15  N   LIG    1       -3.256  -0.891   4.339  0.00  0.00    -0.369 N 
ATOM     16  C   LIG    1       -4.113   0.014   3.558  0.00  0.00    +0.098 C 
ATOM     17  C   LIG    1       -4.917   0.882   4.532  0.00  0.00    -0.058 C 
ATOM     18  N   LIG    1       -5.644   0.018   5.470  0.00  0.00    +0.380 N 
ATOM     19  H   LIG    1       -6.219  -0.630   4.952  0.00  0.00    -0.082 HD
ATOM     20  C   LIG    1       -6.500   0.845   6.332  0.00  0.00    -0.096 C 
ATOM     21  C   LIG    1       -4.693  -0.731   6.301  0.00  0.00    -0.058 C 
ATOM     22  C   LIG    1       -3.879  -1.683   5.412  0.00  0.00    +0.098 C 
ATOM     23  N   LIG    1        0.382  -0.498   1.269  0.00  0.00    -0.337 N 
ENDROOT
BRANCH  11  24
ATOM     24  O   LIG    1        3.010  -1.740   4.223  0.00  0.00    -0.505 OA
ATOM     25  H   LIG    1        3.937  -1.709   3.949  0.00  0.00    +0.292 HD
ENDBRANCH  11  24
BRANCH  12  26
ATOM     26  C   LIG    1        4.018  -1.160   1.629  0.00  0.00    +0.342 C 
ATOM     27  O   LIG    1        4.394  -0.992   0.476  0.00  0.00    -0.245 OA
BRANCH  26  28
ATOM     28  O   LIG    1        4.829  -1.431   2.504  0.00  0.00    -0.477 OA
ATOM     29  H   LIG    1        4.542  -1.559   3.387  0.00  0.00    +0.295 HD
ENDBRANCH  26  28
ENDBRANCH  12  26
TORSDOF 3
