REMARK  Name = ZINC00598425
REMARK                            x       y       z     vdW  Elec       q    Type
REMARK                         _______ _______ _______ _____ _____    ______ ____
ROOT
ATOM      1  N   LIG    1       -0.698   1.558   1.213  0.00  0.00    -0.233 N 
ENDROOT
BRANCH   1   2
ATOM      2  C   LIG    1       -0.126   2.616   1.914  0.00  0.00    +0.051 A 
ATOM      3  C   LIG    1        0.827   3.422   1.298  0.00  0.00    +0.026 A 
ATOM      4  C   LIG    1        1.391   4.472   1.987  0.00  0.00    +0.021 A 
ATOM      5  C   LIG    1        1.014   4.721   3.310  0.00  0.00    +0.052 A 
ATOM      6  C   LIG    1        0.061   3.906   3.927  0.00  0.00    +0.021 A 
ATOM      7  C   LIG    1       -0.503   2.861   3.231  0.00  0.00    +0.026 A 
BRANCH   5   8
ATOM      8  C   LIG    1        1.603   5.809   4.031  0.00  0.00    +0.099 C 
ATOM      9  N   LIG    1        2.071   6.672   4.603  0.00  0.00    -0.191 NA
ENDBRANCH   5   8
ENDBRANCH   1   2
BRANCH   1  10
ATOM     10  N   LIG    1       -1.582   0.685   1.861  0.00  0.00    -0.233 N 
ATOM     11  C   LIG    1       -1.369  -0.620   2.155  0.00  0.00    +0.244 A 
ATOM     12  N   LIG    1       -2.439  -1.062   2.759  0.00  0.00    -0.137 NA
ATOM     13  N   LIG    1       -3.305  -0.116   2.852  0.00  0.00    -0.137 NA
ATOM     14  C   LIG    1       -2.826   0.973   2.316  0.00  0.00    +0.244 A 
ENDBRANCH   1  10
BRANCH   1  15
ATOM     15  C   LIG    1       -0.377   1.358  -0.202  0.00  0.00    +0.165 C 
BRANCH  15  22
ATOM     16  C   LIG    1       -2.525   1.515  -1.476  0.00  0.00    +0.006 A 
ATOM     17  C   LIG    1       -3.428   2.218  -2.253  0.00  0.00    +0.015 A 
ATOM     18  C   LIG    1       -3.157   3.525  -2.615  0.00  0.00    +0.018 A 
ATOM     19 BR   LIG    1       -4.388   4.484  -3.683  0.00  0.00    -0.050 Br
ATOM     20  C   LIG    1       -1.986   4.130  -2.196  0.00  0.00    +0.015 A 
ATOM     21  C   LIG    1       -1.087   3.429  -1.415  0.00  0.00    +0.006 A 
ATOM     22  C   LIG    1       -1.358   2.123  -1.053  0.00  0.00    -0.028 A 
ENDBRANCH  15  22
ENDBRANCH   1  15
TORSDOF 5
