REMARK  Name = ZINC00655345
REMARK                            x       y       z     vdW  Elec       q    Type
REMARK                         _______ _______ _______ _____ _____    ______ ____
ROOT
ATOM      1  C   LIG    1       -0.018   1.503   0.010  0.00  0.00    +0.145 C 
ATOM      2  C   LIG    1        0.002  -0.004   0.002  0.00  0.00    +0.288 C 
ATOM      3  N   LIG    1        0.005  -0.643  -1.131  0.00  0.00    -0.046 NA
ATOM      4  C   LIG    1        0.025  -2.012  -1.172  0.00  0.00    +0.183 A 
ATOM      5  C   LIG    1        0.346  -2.680  -2.353  0.00  0.00    +0.057 A 
ATOM      6  C   LIG    1        0.364  -4.059  -2.378  0.00  0.00    +0.019 A 
ATOM      7  C   LIG    1        0.065  -4.782  -1.236  0.00  0.00    +0.019 A 
ATOM      8 BR   LIG    1        0.094  -6.672  -1.282  0.00  0.00    -0.050 Br
ATOM      9  C   LIG    1       -0.255  -4.125  -0.059  0.00  0.00    +0.027 A 
ATOM     10  C   LIG    1       -0.276  -2.749  -0.024  0.00  0.00    +0.051 A 
ATOM     11  C   LIG    1       -0.626  -2.013   1.246  0.00  0.00    +0.233 C 
ATOM     12  N   LIG    1        0.023  -0.690   1.188  0.00  0.00    -0.203 N 
ENDROOT
BRANCH  11  13
ATOM     13  C   LIG    1       -2.121  -1.853   1.349  0.00  0.00    -0.000 A 
ATOM     14  C   LIG    1       -2.760  -0.857   0.636  0.00  0.00    +0.008 A 
ATOM     15  C   LIG    1       -4.131  -0.710   0.730  0.00  0.00    +0.000 A 
ATOM     16  C   LIG    1       -4.864  -1.560   1.537  0.00  0.00    +0.000 A 
ATOM     17  C   LIG    1       -4.224  -2.557   2.250  0.00  0.00    +0.000 A 
ATOM     18  C   LIG    1       -2.853  -2.707   2.152  0.00  0.00    +0.008 A 
ENDBRANCH  11  13
BRANCH  12  19
ATOM     19  C   LIG    1        0.670  -0.118   2.371  0.00  0.00    +0.347 C 
BRANCH  19  20
ATOM     20  C   LIG    1       -0.334   0.690   3.152  0.00  0.00    +0.347 C 
ATOM     21  O   LIG    1       -1.473   0.779   2.761  0.00  0.00    -0.247 OA
BRANCH  20  22
ATOM     22  O   LIG    1        0.038   1.311   4.283  0.00  0.00    -0.465 OA
ATOM     23  C   LIG    1       -0.965   2.060   4.972  0.00  0.00    +0.280 C 
ENDBRANCH  20  22
ENDBRANCH  19  20
ENDBRANCH  12  19
TORSDOF 4
