REMARK  Name = ZINC00398653
REMARK                            x       y       z     vdW  Elec       q    Type
REMARK                         _______ _______ _______ _____ _____    ______ ____
ROOT
ATOM      1  C   LIG    1        3.702  -0.684   0.022  0.00  0.00    -0.018 A 
ATOM      2  C   LIG    1        4.190  -1.304   1.171  0.00  0.00    +0.012 A 
ATOM      3  C   LIG    1        5.394  -1.976   1.132  0.00  0.00    +0.047 A 
ATOM      4  C   LIG    1        6.120  -2.034  -0.050  0.00  0.00    +0.133 A 
ATOM      5  C   LIG    1        5.637  -1.418  -1.196  0.00  0.00    +0.047 A 
ATOM      6  C   LIG    1        4.430  -0.750  -1.165  0.00  0.00    +0.012 A 
ENDROOT
BRANCH   1  10
ATOM      7  C   LIG    1       -0.008   1.389   0.132  0.00  0.00    +0.000 A 
ATOM      8  C   LIG    1        0.475   0.780   1.276  0.00  0.00    +0.001 A 
ATOM      9  C   LIG    1        1.679   0.106   1.246  0.00  0.00    +0.008 A 
ATOM     10  C   LIG    1        2.407   0.039   0.060  0.00  0.00    -0.018 A 
ATOM     11  C   LIG    1        1.916   0.654  -1.089  0.00  0.00    +0.008 A 
ATOM     12  C   LIG    1        0.711   1.326  -1.048  0.00  0.00    +0.001 A 
ENDBRANCH   1  10
BRANCH   4  13
ATOM     13  O   LIG    1        7.306  -2.697  -0.085  0.00  0.00    -0.412 OA
BRANCH  13  14
ATOM     14  C   LIG    1        7.284  -4.040   0.006  0.00  0.00    +0.406 C 
ATOM     15  N   LIG    1        8.438  -4.729   0.096  0.00  0.00    -0.278 N 
ATOM     16  H   LIG    1        9.286  -4.258   0.095  0.00  0.00    +0.152 HD
ATOM     17  O   LIG    1        6.222  -4.631   0.006  0.00  0.00    -0.226 OA
BRANCH  15  18
ATOM     18  C   LIG    1        8.413  -6.191   0.194  0.00  0.00    +0.076 C 
ATOM     19  C   LIG    1        8.332  -6.795  -1.209  0.00  0.00    +0.022 C 
ATOM     20  C   LIG    1        8.306  -8.322  -1.106  0.00  0.00    +0.002 C 
ATOM     21  C   LIG    1        9.581  -8.808  -0.414  0.00  0.00    +0.000 C 
ATOM     22  C   LIG    1        9.662  -8.203   0.989  0.00  0.00    +0.002 C 
ATOM     23  C   LIG    1        9.688  -6.677   0.886  0.00  0.00    +0.022 C 
ENDBRANCH  15  18
ENDBRANCH  13  14
ENDBRANCH   4  13
TORSDOF 4
