REMARK  Name = ZINC00600748
REMARK                            x       y       z     vdW  Elec       q    Type
REMARK                         _______ _______ _______ _____ _____    ______ ____
ROOT
ATOM      1  S   LIG    1       -0.031  -2.922  -0.731  0.00  0.00    +0.072 S 
ATOM      2  O   LIG    1       -1.233  -2.285  -0.320  0.00  0.00    -0.150 OA
ATOM      3  O   LIG    1        0.218  -4.302  -0.498  0.00  0.00    -0.150 OA
ENDROOT
BRANCH   1   4
ATOM      4  C   LIG    1        0.101  -2.673  -2.470  0.00  0.00    +0.109 A 
ATOM      5  C   LIG    1       -0.540  -1.603  -3.066  0.00  0.00    +0.031 A 
ATOM      6  C   LIG    1       -0.436  -1.408  -4.430  0.00  0.00    +0.030 A 
ATOM      7  C   LIG    1        0.309  -2.283  -5.199  0.00  0.00    +0.105 A 
ATOM      8  C   LIG    1        0.951  -3.352  -4.603  0.00  0.00    +0.030 A 
ATOM      9  C   LIG    1        0.851  -3.545  -3.238  0.00  0.00    +0.031 A 
BRANCH   7  10
ATOM     10  S   LIG    1        0.441  -2.034  -6.939  0.00  0.00    +0.056 S 
ATOM     11  O   LIG    1       -0.698  -1.278  -7.328  0.00  0.00    -0.153 OA
ATOM     12  O   LIG    1        0.745  -3.300  -7.508  0.00  0.00    -0.153 OA
BRANCH  10  13
ATOM     13  N   LIG    1        1.761  -1.069  -7.197  0.00  0.00    -0.204 NA
ATOM     14  H   LIG    1        2.027  -0.421  -6.526  0.00  0.00    +0.144 HD
ATOM     15  H   LIG    1        2.268  -1.151  -8.020  0.00  0.00    +0.144 HD
ENDBRANCH  10  13
ENDBRANCH   7  10
ENDBRANCH   1   4
BRANCH   1  16
ATOM     16  N   LIG    1        1.212  -2.090  -0.021  0.00  0.00    -0.214 N 
ATOM     17  H   LIG    1        1.873  -2.564   0.507  0.00  0.00    +0.174 HD
BRANCH  16  27
ATOM     18  C   LIG    1        0.250   1.446  -0.404  0.00  0.00    +0.003 A 
ATOM     19  C   LIG    1        1.467   2.059  -0.508  0.00  0.00    +0.011 A 
ATOM     20  C   LIG    1        2.638   1.298  -0.451  0.00  0.00    +0.020 A 
ATOM     21  C   LIG    1        4.065   1.620  -0.527  0.00  0.00    +0.066 A 
ATOM     22 CL   LIG    1        4.758   3.199  -0.729  0.00  0.00    -0.081 Cl
ATOM     23  C   LIG    1        4.736   0.462  -0.411  0.00  0.00    +0.103 A 
ATOM     24  N   LIG    1        3.854  -0.575  -0.267  0.00  0.00    -0.358 N 
ATOM     25  H   LIG    1        4.101  -1.507  -0.165  0.00  0.00    +0.165 HD
ATOM     26  C   LIG    1        2.562  -0.096  -0.288  0.00  0.00    +0.071 A 
ATOM     27  C   LIG    1        1.309  -0.705  -0.184  0.00  0.00    +0.072 A 
ATOM     28  C   LIG    1        0.164   0.071  -0.243  0.00  0.00    +0.026 A 
ENDBRANCH  16  27
ENDBRANCH   1  16
TORSDOF 5
