REMARK  Name = ZINC00361259
REMARK                            x       y       z     vdW  Elec       q    Type
REMARK                         _______ _______ _______ _____ _____    ______ ____
ROOT
ATOM      1  C   LIG    1       -1.201  -0.638   0.010  0.00  0.00    +0.122 A 
ATOM      2  C   LIG    1       -2.376   0.108   0.019  0.00  0.00    +0.048 A 
ATOM      3  C   LIG    1       -3.593  -0.512   0.027  0.00  0.00    +0.033 A 
ATOM      4  C   LIG    1       -3.665  -1.908   0.026  0.00  0.00    +0.090 A 
ATOM      5  C   LIG    1       -2.480  -2.663   0.016  0.00  0.00    +0.077 A 
ATOM      6  N   LIG    1       -2.872  -3.988   0.017  0.00  0.00    -0.298 N 
ATOM      7  C   LIG    1       -4.236  -4.006   0.027  0.00  0.00    +0.205 A 
ATOM      8  N   LIG    1       -4.698  -2.791   0.032  0.00  0.00    -0.235 NA
ATOM      9  C   LIG    1       -1.250  -2.020   0.003  0.00  0.00    +0.074 A 
ENDROOT
BRANCH   6  10
ATOM     10  C   LIG    1       -2.026  -5.106   0.009  0.00  0.00    +0.048 A 
ATOM     11  C   LIG    1       -0.994  -5.190  -0.915  0.00  0.00    +0.026 A 
ATOM     12  C   LIG    1       -0.162  -6.292  -0.921  0.00  0.00    +0.002 A 
ATOM     13  C   LIG    1       -0.356  -7.311  -0.006  0.00  0.00    +0.000 A 
ATOM     14  C   LIG    1       -1.383  -7.230   0.916  0.00  0.00    +0.002 A 
ATOM     15  C   LIG    1       -2.215  -6.128   0.929  0.00  0.00    +0.026 A 
ENDBRANCH   6  10
BRANCH   1  17
ATOM     16  C   LIG    1       -0.017   1.425   0.010  0.00  0.00    +0.277 C 
ATOM     17  O   LIG    1        0.002  -0.004   0.002  0.00  0.00    -0.495 OA
ENDBRANCH   1  17
TORSDOF 2
