REMARK  Name = ZINC00403035
REMARK                            x       y       z     vdW  Elec       q    Type
REMARK                         _______ _______ _______ _____ _____    ______ ____
ROOT
ATOM      1  C   LIG    1       -1.414  -2.036   0.129  0.00  0.00    -0.049 A 
ATOM      2  C   LIG    1       -1.374  -2.816  -1.013  0.00  0.00    +0.007 A 
ATOM      3  C   LIG    1       -1.356  -4.193  -0.910  0.00  0.00    +0.046 A 
ATOM      4  C   LIG    1       -1.378  -4.794   0.341  0.00  0.00    +0.120 A 
ATOM      5  C   LIG    1       -1.417  -4.010   1.484  0.00  0.00    +0.046 A 
ATOM      6  C   LIG    1       -1.429  -2.633   1.376  0.00  0.00    +0.007 A 
ENDROOT
BRANCH   4   7
ATOM      7  O   LIG    1       -1.361  -6.149   0.445  0.00  0.00    -0.495 OA
ATOM      8  C   LIG    1       -1.385  -6.699   1.764  0.00  0.00    +0.277 C 
ENDBRANCH   4   7
BRANCH   1   9
ATOM      9  C   LIG    1       -1.433  -0.534   0.013  0.00  0.00    +0.018 C 
BRANCH   9  11
ATOM     10  C   LIG    1       -0.019   1.526   0.010  0.00  0.00    -0.014 C 
ATOM     11  C   LIG    1        0.002  -0.004   0.002  0.00  0.00    -0.074 C 
BRANCH  11  12
ATOM     12  N   LIG    1        0.690  -0.478  -1.207  0.00  0.00    +0.380 N 
ATOM     13  H   LIG    1        0.202  -0.144  -2.024  0.00  0.00    -0.090 HD
ATOM     14  H   LIG    1        0.703  -1.487  -1.212  0.00  0.00    -0.090 HD
ATOM     15  H   LIG    1        1.636  -0.129  -1.214  0.00  0.00    -0.090 HD
ENDBRANCH  11  12
ENDBRANCH   9  11
ENDBRANCH   1   9
TORSDOF 4
