REMARK  Name = ZINC00356482
REMARK                            x       y       z     vdW  Elec       q    Type
REMARK                         _______ _______ _______ _____ _____    ______ ____
ROOT
ATOM      1  C   LIG    1       -1.281  -0.517  -0.060  0.00  0.00    +0.220 A 
ATOM      2  N   LIG    1       -2.297   0.325  -0.097  0.00  0.00    -0.214 NA
ATOM      3  C   LIG    1       -3.556  -0.134  -0.162  0.00  0.00    +0.078 A 
ATOM      4  C   LIG    1       -4.657   0.732  -0.207  0.00  0.00    +0.028 A 
ATOM      5  C   LIG    1       -5.917   0.214  -0.267  0.00  0.00    +0.002 A 
ATOM      6  C   LIG    1       -6.128  -1.161  -0.285  0.00  0.00    +0.001 A 
ATOM      7  C   LIG    1       -5.078  -2.031  -0.243  0.00  0.00    +0.013 A 
ATOM      8  C   LIG    1       -3.772  -1.533  -0.180  0.00  0.00    +0.040 A 
ATOM      9  C   LIG    1       -2.643  -2.388  -0.134  0.00  0.00    +0.132 A 
ATOM     10  N   LIG    1       -1.439  -1.837  -0.076  0.00  0.00    -0.199 NA
ENDROOT
BRANCH   1  16
ATOM     11  C   LIG    1        3.501   2.017   1.237  0.00  0.00    -0.096 C 
ATOM     12  N   LIG    1        2.123   1.480   1.193  0.00  0.00    +0.380 N 
ATOM     13  H   LIG    1        1.620   1.785   2.034  0.00  0.00    -0.082 HD
ATOM     14  C   LIG    1        2.158   0.003   1.162  0.00  0.00    -0.060 C 
ATOM     15  C   LIG    1        0.721  -0.525   1.173  0.00  0.00    +0.089 C 
ATOM     16  N   LIG    1        0.002  -0.004   0.002  0.00  0.00    -0.303 N 
ATOM     17  C   LIG    1       -0.018   1.465   0.010  0.00  0.00    +0.089 C 
ATOM     18  C   LIG    1        1.419   1.992  -0.001  0.00  0.00    -0.060 C 
ENDBRANCH   1  16
BRANCH   9  19
ATOM     19  N   LIG    1       -2.793  -3.758  -0.150  0.00  0.00    -0.324 N 
ATOM     20  H   LIG    1       -3.680  -4.149  -0.193  0.00  0.00    +0.148 HD
BRANCH  19  21
ATOM     21  C   LIG    1       -1.613  -4.625  -0.102  0.00  0.00    +0.138 C 
BRANCH  21  22
ATOM     22  C   LIG    1       -2.047  -6.068  -0.131  0.00  0.00    -0.030 A 
ATOM     23  C   LIG    1       -2.296  -6.739   1.052  0.00  0.00    +0.005 A 
ATOM     24  C   LIG    1       -2.700  -8.060   1.025  0.00  0.00    +0.000 A 
ATOM     25  C   LIG    1       -2.845  -8.714  -0.184  0.00  0.00    +0.000 A 
ATOM     26  C   LIG    1       -2.591  -8.045  -1.367  0.00  0.00    +0.000 A 
ATOM     27  C   LIG    1       -2.192  -6.721  -1.340  0.00  0.00    +0.005 A 
ENDBRANCH  21  22
ENDBRANCH  19  21
ENDBRANCH   9  19
TORSDOF 4
