REMARK  Name = ZINC00608180
REMARK                            x       y       z     vdW  Elec       q    Type
REMARK                         _______ _______ _______ _____ _____    ______ ____
ROOT
ATOM      1  C   LIG    1        0.127   1.363  -0.214  0.00  0.00    +0.088 C 
ATOM      2  C   LIG    1        0.080  -0.141  -0.129  0.00  0.00    +0.135 A 
ATOM      3  N   LIG    1        0.042  -0.978  -1.135  0.00  0.00    -0.134 NA
ATOM      4  N   LIG    1        0.016  -2.189  -0.698  0.00  0.00    -0.132 NA
ATOM      5  C   LIG    1        0.041  -2.189   0.602  0.00  0.00    +0.158 A 
ATOM      6  C   LIG    1        0.046  -3.370   1.536  0.00  0.00    +0.189 C 
ATOM      7  N   LIG    1        1.258  -3.325   2.366  0.00  0.00    -0.376 N 
ATOM      8  H   LIG    1        1.907  -4.041   2.279  0.00  0.00    +0.160 HD
ATOM      9  C   LIG    1        1.498  -2.377   3.210  0.00  0.00    +0.054 C 
ATOM     10  C   LIG    1        0.689  -1.150   3.389  0.00  0.00    +0.030 A 
ATOM     11  C   LIG    1        0.485  -0.522   4.686  0.00  0.00    +0.023 A 
ATOM     12  C   LIG    1       -0.228   0.617   4.704  0.00  0.00    -0.007 A 
ATOM     13  S   LIG    1       -0.637   0.864   2.990  0.00  0.00    -0.075 S 
ATOM     14  C   LIG    1        0.081  -0.490   2.327  0.00  0.00    +0.097 A 
ATOM     15  N   LIG    1        0.075  -0.885   1.003  0.00  0.00    -0.275 N 
ENDROOT
BRANCH   9  16
ATOM     16  C   LIG    1        2.689  -2.530   4.077  0.00  0.00    +0.017 A 
ATOM     17  C   LIG    1        2.740  -3.555   5.023  0.00  0.00    +0.011 A 
ATOM     18  C   LIG    1        3.852  -3.693   5.827  0.00  0.00    +0.001 A 
ATOM     19  C   LIG    1        4.916  -2.818   5.699  0.00  0.00    +0.001 A 
ATOM     20  C   LIG    1        4.873  -1.800   4.764  0.00  0.00    +0.020 A 
ATOM     21  C   LIG    1        3.768  -1.654   3.948  0.00  0.00    +0.050 A 
ATOM     22 CL   LIG    1        3.717  -0.380   2.770  0.00  0.00    -0.083 Cl
ENDBRANCH   9  16
BRANCH  12  23
ATOM     23  C   LIG    1       -0.592   1.475   5.888  0.00  0.00    +0.051 C 
BRANCH  23  24
ATOM     24  C   LIG    1        0.496   2.527   6.109  0.00  0.00    +0.101 C 
BRANCH  24  25
ATOM     25  C   LIG    1        0.132   3.386   7.293  0.00  0.00    +0.216 C 
ATOM     26  N   LIG    1        0.949   4.386   7.677  0.00  0.00    -0.297 N 
ATOM     27  C   LIG    1        2.200   4.662   6.953  0.00  0.00    +0.136 C 
ATOM     28  C   LIG    1        2.244   6.158   6.619  0.00  0.00    +0.179 C 
ATOM     29  O   LIG    1        2.021   6.914   7.811  0.00  0.00    -0.377 OA
ATOM     30  C   LIG    1        0.739   6.701   8.407  0.00  0.00    +0.179 C 
ATOM     31  C   LIG    1        0.614   5.237   8.830  0.00  0.00    +0.136 C 
ATOM     32  O   LIG    1       -0.898   3.177   7.900  0.00  0.00    -0.276 OA
ENDBRANCH  24  25
ENDBRANCH  23  24
ENDBRANCH  12  23
TORSDOF 4
