REMARK  Name = ZINC00365215
REMARK                            x       y       z     vdW  Elec       q    Type
REMARK                         _______ _______ _______ _____ _____    ______ ____
ROOT
ATOM      1  C   LIG    1       -0.018   1.503   0.010  0.00  0.00    +0.045 C 
ATOM      2  C   LIG    1        0.002  -0.004   0.002  0.00  0.00    -0.034 A 
ATOM      3  C   LIG    1        0.006  -0.697  -1.220  0.00  0.00    +0.008 A 
ATOM      4  C   LIG    1        0.025  -2.057  -1.224  0.00  0.00    +0.045 A 
ATOM      5  C   LIG    1        0.040  -2.751   0.003  0.00  0.00    +0.116 A 
ATOM      6  N   LIG    1        0.059  -4.044   0.292  0.00  0.00    -0.339 N 
ATOM      7  H   LIG    1        0.066  -4.765  -0.357  0.00  0.00    +0.167 HD
ATOM      8  C   LIG    1        0.067  -4.196   1.625  0.00  0.00    +0.065 A 
ATOM      9  C   LIG    1        0.053  -2.960   2.197  0.00  0.00    +0.118 A 
ATOM     10  N   LIG    1        0.036  -2.047   1.180  0.00  0.00    -0.307 N 
ATOM     11  C   LIG    1        0.022  -0.682   1.169  0.00  0.00    +0.096 A 
ENDROOT
BRANCH   8  12
ATOM     12  C   LIG    1        0.087  -5.490   2.352  0.00  0.00    -0.000 A 
ATOM     13  C   LIG    1        0.087  -5.509   3.745  0.00  0.00    +0.011 A 
ATOM     14  C   LIG    1        0.106  -6.714   4.417  0.00  0.00    +0.016 A 
ATOM     15  C   LIG    1        0.125  -7.903   3.708  0.00  0.00    +0.018 A 
ATOM     16 BR   LIG    1        0.151  -9.552   4.635  0.00  0.00    -0.050 Br
ATOM     17  C   LIG    1        0.125  -7.890   2.324  0.00  0.00    +0.016 A 
ATOM     18  C   LIG    1        0.100  -6.690   1.644  0.00  0.00    +0.011 A 
ENDBRANCH   8  12
TORSDOF 1
