REMARK  Name = ZINC00538505
REMARK                            x       y       z     vdW  Elec       q    Type
REMARK                         _______ _______ _______ _____ _____    ______ ____
ROOT
ATOM      1  C   LIG    1        3.672   2.182  -0.022  0.00  0.00    +0.088 C 
ATOM      2  C   LIG    1        4.121   2.446   1.418  0.00  0.00    +0.021 C 
ATOM      3  C   LIG    1        5.393   3.297   1.402  0.00  0.00    -0.076 C 
ATOM      4  N   LIG    1        5.123   4.574   0.730  0.00  0.00    +0.380 N 
ATOM      5  H   LIG    1        4.362   5.044   1.197  0.00  0.00    -0.082 HD
ATOM      6  C   LIG    1        4.761   4.332  -0.672  0.00  0.00    -0.076 C 
ATOM      7  C   LIG    1        3.465   3.521  -0.736  0.00  0.00    +0.021 C 
ENDROOT
BRANCH   1  10
ATOM      8  C   LIG    1       -0.017   1.378   0.010  0.00  0.00    +0.001 A 
ATOM      9  C   LIG    1        1.171   2.085   0.002  0.00  0.00    +0.006 A 
ATOM     10  C   LIG    1        2.377   1.411  -0.013  0.00  0.00    -0.016 A 
ATOM     11  C   LIG    1        2.396   0.028  -0.020  0.00  0.00    +0.018 A 
ATOM     12  C   LIG    1        1.209  -0.679  -0.012  0.00  0.00    +0.055 A 
ATOM     13  C   LIG    1        0.002  -0.004   0.002  0.00  0.00    +0.012 A 
BRANCH  12  14
ATOM     14  C   LIG    1        1.229  -2.186  -0.020  0.00  0.00    +0.417 C 
ATOM     15  F   LIG    1        2.371  -2.633  -0.694  0.00  0.00    -0.166 F 
ATOM     16  F   LIG    1        0.086  -2.664  -0.671  0.00  0.00    -0.166 F 
ATOM     17  F   LIG    1        1.249  -2.660   1.296  0.00  0.00    -0.166 F 
ENDBRANCH  12  14
ENDBRANCH   1  10
BRANCH   1  18
ATOM     18  O   LIG    1        4.674   1.426  -0.706  0.00  0.00    -0.384 OA
ATOM     19  H   LIG    1        4.858   0.565  -0.306  0.00  0.00    +0.211 HD
ENDBRANCH   1  18
BRANCH   4  20
ATOM     20  C   LIG    1        6.324   5.418   0.786  0.00  0.00    -0.078 C 
BRANCH  20  21
ATOM     21  C   LIG    1        6.007   6.794   0.198  0.00  0.00    -0.011 C 
BRANCH  21  22
ATOM     22  C   LIG    1        7.258   7.674   0.256  0.00  0.00    +0.078 C 
BRANCH  22  23
ATOM     23  C   LIG    1        6.946   9.030  -0.324  0.00  0.00    +0.163 C 
ATOM     24  O   LIG    1        5.833   9.269  -0.742  0.00  0.00    -0.292 OA
BRANCH  23  25
ATOM     25  C   LIG    1        7.991  10.062  -0.382  0.00  0.00    +0.018 A 
ATOM     26  C   LIG    1        9.278   9.787   0.095  0.00  0.00    +0.014 A 
ATOM     27  C   LIG    1       10.253  10.759   0.037  0.00  0.00    +0.039 A 
ATOM     28  C   LIG    1        9.961  12.008  -0.491  0.00  0.00    +0.123 A 
ATOM     29  F   LIG    1       10.921  12.957  -0.544  0.00  0.00    -0.205 F 
ATOM     30  C   LIG    1        8.687  12.287  -0.965  0.00  0.00    +0.039 A 
ATOM     31  C   LIG    1        7.705  11.322  -0.919  0.00  0.00    +0.014 A 
ENDBRANCH  23  25
ENDBRANCH  22  23
ENDBRANCH  21  22
ENDBRANCH  20  21
ENDBRANCH   4  20
TORSDOF 8
