REMARK  Name = ZINC00584092
REMARK                            x       y       z     vdW  Elec       q    Type
REMARK                         _______ _______ _______ _____ _____    ______ ____
ROOT
ATOM      1  C   LIG    1       -4.538  -4.104  -0.605  0.00  0.00    +0.122 A 
ATOM      2  C   LIG    1       -5.684  -3.336  -0.433  0.00  0.00    +0.046 A 
ATOM      3  C   LIG    1       -6.917  -3.853  -0.761  0.00  0.00    +0.015 A 
ATOM      4  C   LIG    1       -7.015  -5.153  -1.267  0.00  0.00    +0.022 A 
ATOM      5  C   LIG    1       -5.859  -5.922  -1.437  0.00  0.00    +0.015 A 
ATOM      6  C   LIG    1       -4.630  -5.395  -1.112  0.00  0.00    +0.046 A 
ENDROOT
BRANCH   4   7
ATOM      7  C   LIG    1       -8.334  -5.712  -1.619  0.00  0.00    +0.193 C 
ATOM      8  O   LIG    1       -9.262  -4.968  -1.870  0.00  0.00    -0.287 OA
BRANCH   7   9
ATOM      9  C   LIG    1       -8.527  -7.176  -1.667  0.00  0.00    +0.022 A 
ATOM     10  C   LIG    1       -7.676  -8.020  -0.948  0.00  0.00    +0.013 A 
ATOM     11  C   LIG    1       -7.862  -9.385  -0.997  0.00  0.00    +0.021 A 
ATOM     12  C   LIG    1       -8.889  -9.921  -1.755  0.00  0.00    +0.041 A 
ATOM     13 CL   LIG    1       -9.116 -11.641  -1.811  0.00  0.00    -0.084 Cl
ATOM     14  C   LIG    1       -9.737  -9.089  -2.470  0.00  0.00    +0.021 A 
ATOM     15  C   LIG    1       -9.565  -7.722  -2.426  0.00  0.00    +0.013 A 
ENDBRANCH   7   9
ENDBRANCH   4   7
BRANCH   1  16
ATOM     16  O   LIG    1       -3.324  -3.590  -0.281  0.00  0.00    -0.475 OA
BRANCH  16  17
ATOM     17  C   LIG    1       -3.311  -2.308   0.351  0.00  0.00    +0.200 C 
ATOM     18  C   LIG    1       -4.095  -2.377   1.663  0.00  0.00    +0.067 C 
ATOM     19  C   LIG    1       -1.865  -1.898   0.641  0.00  0.00    +0.067 C 
BRANCH  17  20
ATOM     20  C   LIG    1       -3.947  -1.292  -0.562  0.00  0.00    +0.351 C 
ATOM     21  O   LIG    1       -4.370  -1.630  -1.642  0.00  0.00    -0.246 OA
BRANCH  20  22
ATOM     22  O   LIG    1       -4.046  -0.010  -0.174  0.00  0.00    -0.459 OA
BRANCH  22  24
ATOM     23  C   LIG    1       -5.352   2.019  -0.309  0.00  0.00    +0.052 C 
ATOM     24  C   LIG    1       -4.661   0.899  -1.089  0.00  0.00    +0.170 C 
ATOM     25  C   LIG    1       -3.593   1.500  -2.006  0.00  0.00    +0.052 C 
ENDBRANCH  22  24
ENDBRANCH  20  22
ENDBRANCH  17  20
ENDBRANCH  16  17
ENDBRANCH   1  16
TORSDOF 7
