REMARK  Name = ZINC00475678
REMARK                            x       y       z     vdW  Elec       q    Type
REMARK                         _______ _______ _______ _____ _____    ______ ____
ROOT
ATOM      1  C   LIG    1        3.972  -2.668  -4.098  0.00  0.00    +0.222 C 
ATOM      2  N   LIG    1        4.766  -3.306  -4.981  0.00  0.00    -0.284 N 
ATOM      3  H   LIG    1        4.385  -3.692  -5.785  0.00  0.00    +0.155 HD
ATOM      4  O   LIG    1        4.431  -2.268  -3.049  0.00  0.00    -0.275 OA
ENDROOT
BRANCH   2   5
ATOM      5  C   LIG    1        6.136  -3.412  -4.737  0.00  0.00    +0.055 A 
ATOM      6  C   LIG    1        6.704  -3.025  -3.540  0.00  0.00    +0.032 A 
ATOM      7  C   LIG    1        8.041  -3.156  -3.373  0.00  0.00    +0.048 A 
ATOM      8  S   LIG    1        8.581  -3.807  -4.825  0.00  0.00    -0.088 S 
ATOM      9  C   LIG    1        7.024  -3.922  -5.684  0.00  0.00    +0.117 A 
BRANCH   9  10
ATOM     10  C   LIG    1        6.758  -4.404  -6.988  0.00  0.00    +0.347 C 
ATOM     11  O   LIG    1        5.619  -4.405  -7.416  0.00  0.00    -0.244 OA
BRANCH  10  12
ATOM     12  O   LIG    1        7.769  -4.861  -7.757  0.00  0.00    -0.464 OA
ATOM     13  C   LIG    1        7.428  -5.332  -9.063  0.00  0.00    +0.280 C 
ENDBRANCH  10  12
ENDBRANCH   9  10
ENDBRANCH   2   5
BRANCH   1  14
ATOM     14  C   LIG    1        2.515  -2.452  -4.415  0.00  0.00    +0.131 C 
BRANCH  14  18
ATOM     15  C   LIG    1        0.646  -0.378  -1.180  0.00  0.00    +0.120 A 
ATOM     16  C   LIG    1        1.218   0.335  -2.224  0.00  0.00    +0.046 A 
ATOM     17  C   LIG    1        1.822  -0.338  -3.268  0.00  0.00    +0.007 A 
ATOM     18  C   LIG    1        1.856  -1.720  -3.274  0.00  0.00    -0.038 A 
ATOM     19  C   LIG    1        1.286  -2.433  -2.235  0.00  0.00    +0.007 A 
ATOM     20  C   LIG    1        0.686  -1.764  -1.185  0.00  0.00    +0.046 A 
BRANCH  15  22
ATOM     21  C   LIG    1        0.047   1.709  -0.212  0.00  0.00    +0.277 C 
ATOM     22  O   LIG    1        0.051   0.282  -0.151  0.00  0.00    -0.495 OA
ENDBRANCH  15  22
ENDBRANCH  14  18
ENDBRANCH   1  14
TORSDOF 6
