REMARK  Name = ZINC00529402
REMARK                            x       y       z     vdW  Elec       q    Type
REMARK                         _______ _______ _______ _____ _____    ______ ____
ROOT
ATOM      1  N   LIG    1        0.153  -4.171  -0.077  0.00  0.00    -0.214 N 
ATOM      2  C   LIG    1        0.104  -4.948  -1.199  0.00  0.00    +0.168 A 
ATOM      3  C   LIG    1        0.208  -6.285  -0.766  0.00  0.00    +0.079 A 
ATOM      4  C   LIG    1        0.183  -7.304  -1.737  0.00  0.00    +0.135 A 
ATOM      5  N   LIG    1        0.064  -6.957  -3.014  0.00  0.00    -0.220 NA
ATOM      6  C   LIG    1       -0.031  -5.689  -3.373  0.00  0.00    +0.225 A 
ATOM      7  C   LIG    1        0.319  -6.256   0.641  0.00  0.00    +0.148 A 
ATOM      8  N   LIG    1       -0.013  -4.703  -2.503  0.00  0.00    -0.216 NA
ATOM      9  N   LIG    1        0.291  -5.014   1.033  0.00  0.00    -0.172 NA
ENDROOT
BRANCH   1  14
ATOM     10  C   LIG    1       -0.132   1.494   0.060  0.00  0.00    +0.044 C 
ATOM     11  C   LIG    1       -0.057  -0.010   0.024  0.00  0.00    -0.050 A 
ATOM     12  C   LIG    1        0.789  -0.637  -0.873  0.00  0.00    +0.005 A 
ATOM     13  C   LIG    1        0.861  -2.016  -0.909  0.00  0.00    +0.028 A 
ATOM     14  C   LIG    1        0.083  -2.773  -0.043  0.00  0.00    +0.071 A 
ATOM     15  C   LIG    1       -0.766  -2.140   0.856  0.00  0.00    -0.025 A 
ATOM     16  C   LIG    1       -1.612  -2.958   1.797  0.00  0.00    +0.046 C 
ATOM     17  C   LIG    1       -0.829  -0.761   0.891  0.00  0.00    +0.008 A 
ENDBRANCH   1  14
BRANCH   4  18
ATOM     18  N   LIG    1        0.282  -8.632  -1.371  0.00  0.00    -0.314 N 
ATOM     19  C   LIG    1       -0.925  -9.448  -1.181  0.00  0.00    +0.106 C 
ATOM     20  C   LIG    1       -0.809 -10.709  -2.043  0.00  0.00    +0.019 C 
ATOM     21  C   LIG    1        0.498 -11.432  -1.710  0.00  0.00    +0.006 C 
ATOM     22  C   LIG    1        1.684 -10.519  -2.027  0.00  0.00    +0.003 C 
ATOM     23  C   LIG    1        2.991 -11.255  -1.725  0.00  0.00    +0.009 C 
ATOM     24  C   LIG    1        1.597  -9.258  -1.170  0.00  0.00    +0.109 C 
ENDBRANCH   4  18
TORSDOF 2
