REMARK  Name = ZINC00394970
REMARK                            x       y       z     vdW  Elec       q    Type
REMARK                         _______ _______ _______ _____ _____    ______ ____
ROOT
ATOM      1  C   LIG    1        2.988  10.209  -0.270  0.00  0.00    +0.001 A 
ATOM      2  C   LIG    1        4.253   9.624  -0.313  0.00  0.00    +0.001 A 
ATOM      3  C   LIG    1        4.401   8.272  -0.270  0.00  0.00    +0.008 A 
ATOM      4  C   LIG    1        3.264   7.450  -0.180  0.00  0.00    -0.016 A 
ATOM      5  C   LIG    1        3.381   6.051  -0.134  0.00  0.00    +0.031 A 
ATOM      6  C   LIG    1        2.243   5.279  -0.046  0.00  0.00    +0.032 A 
ATOM      7  C   LIG    1        0.976   5.874  -0.009  0.00  0.00    +0.024 A 
ATOM      8  C   LIG    1        0.839   7.226  -0.046  0.00  0.00    +0.010 A 
ATOM      9  C   LIG    1        1.978   8.044  -0.136  0.00  0.00    -0.018 A 
ATOM     10  C   LIG    1        1.865   9.444  -0.183  0.00  0.00    +0.008 A 
ENDROOT
BRANCH   6  11
ATOM     11  N   LIG    1        2.355   3.887   0.000  0.00  0.00    -0.314 N 
ATOM     12  H   LIG    1        3.086   3.444  -0.458  0.00  0.00    +0.152 HD
BRANCH  11  13
ATOM     13  C   LIG    1        1.413   3.134   0.706  0.00  0.00    +0.033 A 
ATOM     14  C   LIG    1        1.117   1.837   0.305  0.00  0.00    +0.023 A 
ATOM     15  C   LIG    1        0.186   1.095   1.004  0.00  0.00    +0.003 A 
ATOM     16  C   LIG    1       -0.457   1.643   2.099  0.00  0.00    +0.020 A 
ATOM     17  C   LIG    1       -0.161   2.933   2.504  0.00  0.00    +0.043 A 
ATOM     18 CL   LIG    1       -0.966   3.614   3.884  0.00  0.00    -0.083 Cl
ATOM     19  C   LIG    1        0.770   3.681   1.809  0.00  0.00    +0.043 A 
ENDBRANCH  11  13
ENDBRANCH   6  11
TORSDOF 2
