REMARK  Name = ZINC00633304
REMARK                            x       y       z     vdW  Elec       q    Type
REMARK                         _______ _______ _______ _____ _____    ______ ____
ROOT
ATOM      1  N   LIG    1        0.025  -0.016   2.415  0.00  0.00    -0.333 N 
ATOM      2  C   LIG    1       -1.235   0.335   3.088  0.00  0.00    +0.086 C 
ATOM      3  C   LIG    1       -1.150  -0.123   4.548  0.00  0.00    -0.060 C 
ATOM      4  N   LIG    1        0.049   0.450   5.171  0.00  0.00    +0.382 N 
ATOM      5  H   LIG    1        0.030   1.454   5.073  0.00  0.00    -0.082 HD
ATOM      6  C   LIG    1        1.254  -0.081   4.519  0.00  0.00    -0.060 C 
ATOM      7  C   LIG    1        1.288   0.374   3.061  0.00  0.00    +0.086 C 
ENDROOT
BRANCH   1  14
ATOM      8  C   LIG    1       -0.018   1.503   0.010  0.00  0.00    +0.045 C 
ATOM      9  C   LIG    1        0.002  -0.004   0.002  0.00  0.00    -0.029 A 
ATOM     10  C   LIG    1        0.006  -0.689  -1.198  0.00  0.00    +0.005 A 
ATOM     11  C   LIG    1        0.024  -2.071  -1.206  0.00  0.00    +0.000 A 
ATOM     12  C   LIG    1        0.039  -2.773  -0.014  0.00  0.00    +0.002 A 
ATOM     13  C   LIG    1        0.036  -2.095   1.188  0.00  0.00    +0.023 A 
ATOM     14  C   LIG    1        0.023  -0.706   1.200  0.00  0.00    +0.033 A 
ENDBRANCH   1  14
BRANCH   4  15
ATOM     15  C   LIG    1        0.072   0.101   6.598  0.00  0.00    -0.077 C 
BRANCH  15  16
ATOM     16  C   LIG    1        1.253   0.800   7.274  0.00  0.00    +0.001 C 
BRANCH  16  17
ATOM     17  C   LIG    1        1.277   0.437   8.761  0.00  0.00    +0.116 C 
BRANCH  17  18
ATOM     18  N   LIG    1        2.408   1.106   9.409  0.00  0.00    -0.224 N 
ATOM     19  C   LIG    1        3.644   0.575   9.514  0.00  0.00    +0.244 C 
ATOM     20  C   LIG    1        4.487   1.635  10.188  0.00  0.00    +0.164 C 
ATOM     21  C   LIG    1        5.107   1.096  11.480  0.00  0.00    +0.032 C 
ATOM     22  C   LIG    1        5.622   2.278  12.308  0.00  0.00    +0.004 C 
ATOM     23  C   LIG    1        4.463   3.184  12.725  0.00  0.00    +0.019 C 
ATOM     24  C   LIG    1        3.789   3.772  11.476  0.00  0.00    +0.110 C 
ATOM     25  N   LIG    1        3.493   2.667  10.553  0.00  0.00    -0.274 N 
ATOM     26  O   LIG    1        4.005  -0.522   9.145  0.00  0.00    -0.273 OA
ATOM     27  C   LIG    1        2.343   2.325   9.966  0.00  0.00    +0.312 C 
ATOM     28  O   LIG    1        1.355   3.032   9.942  0.00  0.00    -0.252 OA
ENDBRANCH  17  18
ENDBRANCH  16  17
ENDBRANCH  15  16
ENDBRANCH   4  15
TORSDOF 5
