REMARK  Name = ZINC00485986
REMARK                            x       y       z     vdW  Elec       q    Type
REMARK                         _______ _______ _______ _____ _____    ______ ____
ROOT
ATOM      1  C   LIG    1        3.132   4.967  -0.000  0.00  0.00    +0.068 C 
ATOM      2  C   LIG    1        2.546   3.579  -0.002  0.00  0.00    +0.064 A 
ATOM      3  C   LIG    1        3.279   2.376  -0.015  0.00  0.00    +0.001 A 
ATOM      4  C   LIG    1        2.403   1.357  -0.014  0.00  0.00    +0.052 A 
ATOM      5  C   LIG    1        3.115   0.027  -0.030  0.00  0.00    +0.060 C 
ATOM      6  C   LIG    1        4.621   0.333  -0.049  0.00  0.00    +0.009 C 
ATOM      7  C   LIG    1        5.205   1.114  -1.261  0.00  0.00    -0.024 C 
ATOM      8  C   LIG    1        6.719   1.043  -1.474  0.00  0.00    +0.012 C 
ATOM      9  C   LIG    1        4.364   1.202  -2.536  0.00  0.00    +0.012 C 
ATOM     10  N   LIG    1        1.144   1.894   0.001  0.00  0.00    -0.204 N 
ATOM     11  C   LIG    1       -0.014   1.204   0.009  0.00  0.00    +0.248 C 
ATOM     12  O   LIG    1        0.002  -0.004   0.002  0.00  0.00    -0.271 OA
ATOM     13  C   LIG    1        4.700   1.866  -0.029  0.00  0.00    +0.033 C 
ATOM     14  N   LIG    1        1.274   3.287   0.001  0.00  0.00    -0.169 NA
ENDROOT
BRANCH  11  15
ATOM     15  C   LIG    1       -1.329   1.940   0.019  0.00  0.00    +0.105 C 
BRANCH  15  16
ATOM     16  C   LIG    1       -2.479   0.930   0.019  0.00  0.00    +0.044 C 
BRANCH  16  17
ATOM     17  C   LIG    1       -3.794   1.665   0.029  0.00  0.00    -0.047 A 
ATOM     18  C   LIG    1       -4.394   1.991   1.231  0.00  0.00    +0.003 A 
ATOM     19  C   LIG    1       -5.598   2.670   1.240  0.00  0.00    +0.000 A 
ATOM     20  C   LIG    1       -6.207   3.014   0.048  0.00  0.00    +0.000 A 
ATOM     21  C   LIG    1       -5.609   2.684  -1.154  0.00  0.00    +0.000 A 
ATOM     22  C   LIG    1       -4.403   2.009  -1.163  0.00  0.00    +0.003 A 
ENDBRANCH  16  17
ENDBRANCH  15  16
ENDBRANCH  11  15
TORSDOF 3
