REMARK  Name = ZINC00403582
REMARK                            x       y       z     vdW  Elec       q    Type
REMARK                         _______ _______ _______ _____ _____    ______ ____
ROOT
ATOM      1  C   LIG    1       -1.333  -4.915   0.005  0.00  0.00    +0.132 C 
ENDROOT
BRANCH   1   7
ATOM      2  C   LIG    1       -0.592  -0.706  -0.212  0.00  0.00    +0.121 A 
ATOM      3  C   LIG    1       -1.650   0.208  -0.224  0.00  0.00    +0.048 A 
ATOM      4  C   LIG    1       -2.941  -0.214  -0.166  0.00  0.00    +0.032 A 
ATOM      5  C   LIG    1       -3.225  -1.590  -0.093  0.00  0.00    +0.072 A 
ATOM      6  C   LIG    1       -2.152  -2.516  -0.082  0.00  0.00    +0.009 A 
ATOM      7  C   LIG    1       -2.440  -3.892  -0.009  0.00  0.00    -0.010 A 
ATOM      8  C   LIG    1       -3.750  -4.275   0.047  0.00  0.00    +0.026 A 
ATOM      9  C   LIG    1       -4.756  -3.312   0.032  0.00  0.00    +0.112 A 
ATOM     10  N   LIG    1       -4.485  -2.031  -0.036  0.00  0.00    -0.255 NA
ATOM     11  C   LIG    1       -0.830  -2.049  -0.148  0.00  0.00    +0.056 A 
BRANCH   2  13
ATOM     12  C   LIG    1        0.872   1.163  -0.336  0.00  0.00    +0.277 C 
ATOM     13  O   LIG    1        0.688  -0.253  -0.271  0.00  0.00    -0.495 OA
ENDBRANCH   2  13
ENDBRANCH   1   7
BRANCH   1  14
ATOM     14  C   LIG    1       -0.831  -5.102   1.438  0.00  0.00    -0.035 C 
ATOM     15  C   LIG    1       -1.918  -5.783   2.273  0.00  0.00    -0.009 C 
ATOM     16  C   LIG    1       -1.368  -7.108   2.817  0.00  0.00    -0.009 C 
ATOM     17  C   LIG    1       -0.969  -7.991   1.628  0.00  0.00    -0.015 C 
ATOM     18  C   LIG    1        0.080  -7.251   0.793  0.00  0.00    -0.078 C 
ATOM     19  C   LIG    1       -0.122  -6.804   3.661  0.00  0.00    -0.003 C 
ATOM     20  C   LIG    1        0.906  -6.093   2.782  0.00  0.00    -0.071 C 
ATOM     21  N   LIG    1        0.379  -5.928   1.425  0.00  0.00    +0.384 N 
ATOM     22  H   LIG    1        1.081  -5.458   0.873  0.00  0.00    -0.081 HD
BRANCH  19  23
ATOM     23  C   LIG    1        0.463  -8.093   4.179  0.00  0.00    -0.033 C 
ATOM     24  C   LIG    1        0.566  -8.293   5.470  0.00  0.00    +0.004 C 
ENDBRANCH  19  23
ENDBRANCH   1  14
BRANCH   1  25
ATOM     25  O   LIG    1       -1.828  -6.160  -0.492  0.00  0.00    -0.389 OA
ATOM     26  H   LIG    1       -2.562  -6.525   0.022  0.00  0.00    +0.210 HD
ENDBRANCH   1  25
TORSDOF 5
