REMARK  Name = ZINC00380804
REMARK                            x       y       z     vdW  Elec       q    Type
REMARK                         _______ _______ _______ _____ _____    ______ ____
ROOT
ATOM      1  C   LIG    1        1.153   4.087   1.434  0.00  0.00    +0.015 A 
ATOM      2  C   LIG    1       -0.029   4.398   2.078  0.00  0.00    +0.121 A 
ATOM      3  N   LIG    1        0.010   4.830   3.330  0.00  0.00    -0.223 NA
ATOM      4  C   LIG    1        1.164   4.967   3.968  0.00  0.00    +0.214 A 
ATOM      5  N   LIG    1        2.318   4.679   3.386  0.00  0.00    -0.200 NA
ATOM      6  C   LIG    1        2.352   4.236   2.133  0.00  0.00    +0.125 A 
ENDROOT
BRANCH   4   7
ATOM      7  N   LIG    1        1.162   5.421   5.276  0.00  0.00    -0.327 N 
ATOM      8  H   LIG    1        1.999   5.525   5.754  0.00  0.00    +0.145 HD
ATOM      9  H   LIG    1        0.323   5.635   5.713  0.00  0.00    +0.145 HD
ENDBRANCH   4   7
BRANCH   6  10
ATOM     10  N   LIG    1        3.561   3.931   1.529  0.00  0.00    -0.343 N 
ATOM     11  H   LIG    1        4.390   4.037   2.021  0.00  0.00    +0.144 HD
ATOM     12  H   LIG    1        3.578   3.611   0.613  0.00  0.00    +0.144 HD
ENDBRANCH   6  10
BRANCH   1  13
ATOM     13  C   LIG    1        1.147   3.593   0.011  0.00  0.00    +0.075 C 
BRANCH  13  17
ATOM     14  C   LIG    1        1.213  -0.680  -0.013  0.00  0.00    +0.120 A 
ATOM     15  C   LIG    1        0.002  -0.004   0.002  0.00  0.00    +0.046 A 
ATOM     16  C   LIG    1       -0.017   1.377   0.010  0.00  0.00    +0.007 A 
ATOM     17  C   LIG    1        1.171   2.086   0.002  0.00  0.00    -0.043 A 
ATOM     18  C   LIG    1        2.379   1.415  -0.013  0.00  0.00    +0.007 A 
ATOM     19  C   LIG    1        2.403   0.033  -0.021  0.00  0.00    +0.046 A 
BRANCH  14  21
ATOM     20  C   LIG    1        2.518  -2.668  -0.036  0.00  0.00    +0.277 C 
ATOM     21  O   LIG    1        1.234  -2.039  -0.020  0.00  0.00    -0.495 OA
ENDBRANCH  14  21
ENDBRANCH  13  17
ENDBRANCH   1  13
TORSDOF 5
