REMARK  Name = ZINC00527204
REMARK                            x       y       z     vdW  Elec       q    Type
REMARK                         _______ _______ _______ _____ _____    ______ ____
ROOT
ATOM      1  C   LIG    1       -4.466  -2.659  -1.166  0.00  0.00    +0.152 A 
ATOM      2  C   LIG    1       -4.462  -4.071  -1.251  0.00  0.00    +0.026 A 
ATOM      3  C   LIG    1       -3.283  -4.818  -1.347  0.00  0.00    +0.012 A 
ATOM      4  C   LIG    1       -3.358  -6.178  -1.424  0.00  0.00    +0.001 A 
ATOM      5  C   LIG    1       -4.587  -6.831  -1.411  0.00  0.00    +0.001 A 
ATOM      6  C   LIG    1       -5.755  -6.131  -1.319  0.00  0.00    +0.011 A 
ATOM      7  C   LIG    1       -5.713  -4.736  -1.236  0.00  0.00    +0.013 A 
ATOM      8  C   LIG    1       -6.882  -3.940  -1.138  0.00  0.00    +0.101 A 
ATOM      9  N   LIG    1       -6.755  -2.626  -1.064  0.00  0.00    -0.147 NA
ATOM     10  N   LIG    1       -5.623  -2.026  -1.072  0.00  0.00    -0.133 NA
ENDROOT
BRANCH   1  16
ATOM     11  C   LIG    1        0.027   1.396  -2.527  0.00  0.00    +0.109 C 
ATOM     12  C   LIG    1       -0.618   1.024  -1.217  0.00  0.00    +0.213 C 
ATOM     13  N   LIG    1       -1.776   0.334  -1.208  0.00  0.00    -0.299 N 
ATOM     14  C   LIG    1       -2.418  -0.067  -2.467  0.00  0.00    +0.126 C 
ATOM     15  C   LIG    1       -2.633  -1.585  -2.446  0.00  0.00    +0.125 C 
ATOM     16  N   LIG    1       -3.277  -1.950  -1.175  0.00  0.00    -0.310 N 
ATOM     17  C   LIG    1       -2.635  -1.549   0.084  0.00  0.00    +0.125 C 
ATOM     18  C   LIG    1       -2.417  -0.035   0.063  0.00  0.00    +0.126 C 
ATOM     19  O   LIG    1       -0.096   1.345  -0.171  0.00  0.00    -0.276 OA
ENDBRANCH   1  16
BRANCH   8  20
ATOM     20  C   LIG    1       -8.222  -4.569  -1.117  0.00  0.00    +0.003 A 
ATOM     21  C   LIG    1       -8.455  -5.695  -0.328  0.00  0.00    +0.010 A 
ATOM     22  C   LIG    1       -9.706  -6.276  -0.313  0.00  0.00    +0.001 A 
ATOM     23  C   LIG    1      -10.728  -5.745  -1.079  0.00  0.00    +0.000 A 
ATOM     24  C   LIG    1      -10.503  -4.629  -1.864  0.00  0.00    +0.001 A 
ATOM     25  C   LIG    1       -9.258  -4.035  -1.884  0.00  0.00    +0.010 A 
ENDBRANCH   8  20
TORSDOF 2
