REMARK  Name = ZINC00641742
REMARK                            x       y       z     vdW  Elec       q    Type
REMARK                         _______ _______ _______ _____ _____    ______ ____
ROOT
ATOM      1  N   LIG    1       -7.806   9.551  -0.528  0.00  0.00    -0.331 N 
ATOM      2  C   LIG    1       -7.368   9.765   0.858  0.00  0.00    +0.086 C 
ATOM      3  C   LIG    1       -5.860   9.522   0.957  0.00  0.00    -0.060 C 
ATOM      4  N   LIG    1       -5.572   8.136   0.533  0.00  0.00    +0.382 N 
ATOM      5  H   LIG    1       -6.095   7.487   1.134  0.00  0.00    -0.082 HD
ATOM      6  C   LIG    1       -5.996   7.939  -0.869  0.00  0.00    -0.060 C 
ATOM      7  C   LIG    1       -7.503   8.182  -0.968  0.00  0.00    +0.086 C 
ENDROOT
BRANCH   1  13
ATOM      8  C   LIG    1       -9.587  10.828  -1.556  0.00  0.00    +0.141 A 
ATOM      9  C   LIG    1      -10.937  11.104  -1.694  0.00  0.00    +0.047 A 
ATOM     10  C   LIG    1      -11.867  10.394  -0.958  0.00  0.00    +0.004 A 
ATOM     11  C   LIG    1      -11.454   9.408  -0.082  0.00  0.00    +0.002 A 
ATOM     12  C   LIG    1      -10.109   9.123   0.059  0.00  0.00    +0.027 A 
ATOM     13  C   LIG    1       -9.169   9.834  -0.672  0.00  0.00    +0.072 A 
BRANCH   8  15
ATOM     14  C   LIG    1       -9.171  12.528  -3.166  0.00  0.00    +0.277 C 
ATOM     15  O   LIG    1       -8.670  11.524  -2.280  0.00  0.00    -0.493 OA
ENDBRANCH   8  15
ENDBRANCH   1  13
BRANCH   4  16
ATOM     16  C   LIG    1       -4.127   7.856   0.669  0.00  0.00    -0.077 C 
BRANCH  16  17
ATOM     17  C   LIG    1       -3.890   6.361   0.442  0.00  0.00    +0.001 C 
BRANCH  17  18
ATOM     18  C   LIG    1       -2.400   6.052   0.600  0.00  0.00    +0.116 C 
BRANCH  18  19
ATOM     19  N   LIG    1       -2.172   4.621   0.383  0.00  0.00    -0.224 N 
ATOM     20  C   LIG    1       -2.210   3.686   1.359  0.00  0.00    +0.244 C 
ATOM     21  C   LIG    1       -1.984   2.368   0.657  0.00  0.00    +0.164 C 
ATOM     22  C   LIG    1       -0.782   1.607   1.244  0.00  0.00    +0.033 C 
ATOM     23  C   LIG    1       -0.013   1.086   0.008  0.00  0.00    +0.021 C 
ATOM     24  C   LIG    1       -0.806   1.621  -1.209  0.00  0.00    +0.110 C 
ATOM     25  N   LIG    1       -1.513   2.799  -0.689  0.00  0.00    -0.274 N 
ATOM     26  O   LIG    1       -2.388   3.867   2.544  0.00  0.00    -0.273 OA
ATOM     27  C   LIG    1       -1.901   4.069  -0.812  0.00  0.00    +0.312 C 
ATOM     28  O   LIG    1       -1.996   4.654  -1.873  0.00  0.00    -0.252 OA
ENDBRANCH  18  19
ENDBRANCH  17  18
ENDBRANCH  16  17
ENDBRANCH   4  16
TORSDOF 6
