REMARK  Name = ZINC00357329
REMARK                            x       y       z     vdW  Elec       q    Type
REMARK                         _______ _______ _______ _____ _____    ______ ____
ROOT
ATOM      1  C   LIG    1        3.586  -4.846  -0.057  0.00  0.00    +0.139 C 
ATOM      2  N   LIG    1        2.449  -4.215  -0.045  0.00  0.00    -0.187 NA
ENDROOT
BRANCH   1   6
ATOM      3  C   LIG    1        3.684  -9.132  -0.083  0.00  0.00    +0.128 A 
ATOM      4  C   LIG    1        4.838  -8.388  -0.193  0.00  0.00    +0.047 A 
ATOM      5  C   LIG    1        4.813  -7.002  -0.190  0.00  0.00    +0.013 A 
ATOM      6  C   LIG    1        3.610  -6.316  -0.065  0.00  0.00    +0.002 A 
ATOM      7  C   LIG    1        2.370  -7.081   0.053  0.00  0.00    -0.006 A 
ATOM      8  C   LIG    1        1.129  -6.444   0.175  0.00  0.00    +0.009 A 
ATOM      9  C   LIG    1       -0.005  -7.194   0.284  0.00  0.00    +0.001 A 
ATOM     10  C   LIG    1        0.054  -8.585   0.273  0.00  0.00    +0.001 A 
ATOM     11  C   LIG    1        1.245  -9.236   0.155  0.00  0.00    +0.012 A 
ATOM     12  C   LIG    1        2.433  -8.495   0.042  0.00  0.00    +0.024 A 
BRANCH   3  14
ATOM     13  C   LIG    1        5.051 -11.071  -0.223  0.00  0.00    +0.277 C 
ATOM     14  O   LIG    1        3.753 -10.487  -0.094  0.00  0.00    -0.495 OA
ENDBRANCH   3  14
ENDBRANCH   1   6
BRANCH   2  15
ATOM     15  N   LIG    1        2.426  -2.814  -0.038  0.00  0.00    -0.203 N 
ATOM     16  H   LIG    1        3.257  -2.315  -0.042  0.00  0.00    +0.178 HD
ATOM     17  C   LIG    1        1.248  -2.160  -0.026  0.00  0.00    +0.263 C 
ATOM     18  O   LIG    1        0.204  -2.785  -0.021  0.00  0.00    -0.268 OA
BRANCH  17  19
ATOM     19  C   LIG    1        1.223  -0.684  -0.018  0.00  0.00    +0.039 A 
ATOM     20  C   LIG    1        0.002  -0.004  -0.005  0.00  0.00    +0.016 A 
ATOM     21  C   LIG    1       -0.017   1.373   0.003  0.00  0.00    +0.046 A 
ATOM     22  C   LIG    1        1.176   2.086  -0.003  0.00  0.00    +0.117 A 
ATOM     23  C   LIG    1        2.393   1.413  -0.015  0.00  0.00    +0.046 A 
ATOM     24  C   LIG    1        2.420   0.037  -0.023  0.00  0.00    +0.016 A 
BRANCH  22  25
ATOM     25  O   LIG    1        1.154   3.443   0.005  0.00  0.00    -0.507 OA
ATOM     26  H   LIG    1        1.154   3.831   0.890  0.00  0.00    +0.292 HD
ENDBRANCH  22  25
ENDBRANCH  17  19
ENDBRANCH   2  15
TORSDOF 5
