REMARK  Name = ZINC00517558
REMARK                            x       y       z     vdW  Elec       q    Type
REMARK                         _______ _______ _______ _____ _____    ______ ____
ROOT
ATOM      1  C   LIG    1        3.474   2.142   1.275  0.00  0.00    -0.095 C 
ATOM      2  N   LIG    1        2.120   1.556   1.203  0.00  0.00    +0.382 N 
ATOM      3  H   LIG    1        1.590   1.839   2.037  0.00  0.00    -0.081 HD
ATOM      4  C   LIG    1        2.208   0.081   1.168  0.00  0.00    -0.037 C 
ATOM      5  C   LIG    1        0.794  -0.503   1.214  0.00  0.00    -0.011 C 
ATOM      6  C   LIG    1        0.002  -0.004   0.002  0.00  0.00    -0.003 C 
ATOM      7  C   LIG    1       -0.019   1.527   0.010  0.00  0.00    -0.019 C 
ATOM      8  C   LIG    1        1.419   2.052  -0.001  0.00  0.00    -0.078 C 
ENDROOT
BRANCH   4   9
ATOM      9  C   LIG    1        2.986  -0.391   2.370  0.00  0.00    -0.043 A 
ATOM     10  C   LIG    1        3.881  -1.443   2.257  0.00  0.00    +0.005 A 
ATOM     11  C   LIG    1        4.574  -1.844   3.389  0.00  0.00    +0.020 A 
ATOM     12  C   LIG    1        4.351  -1.185   4.584  0.00  0.00    +0.111 A 
ATOM     13  N   LIG    1        3.491  -0.188   4.654  0.00  0.00    -0.263 NA
ATOM     14  C   LIG    1        2.819   0.223   3.596  0.00  0.00    +0.112 A 
ENDBRANCH   4   9
TORSDOF 1
