REMARK  Name = ZINC00457646
REMARK                            x       y       z     vdW  Elec       q    Type
REMARK                         _______ _______ _______ _____ _____    ______ ____
ROOT
ATOM      1  C   LIG    1       -1.450   3.614  -0.147  0.00  0.00    +0.045 C 
ATOM      2  C   LIG    1       -1.317   2.117  -0.039  0.00  0.00    -0.030 A 
ATOM      3  C   LIG    1       -0.001   1.474  -0.065  0.00  0.00    +0.021 A 
ATOM      4  C   LIG    1        1.169   2.233  -0.185  0.00  0.00    +0.015 A 
ATOM      5  C   LIG    1        2.383   1.609  -0.201  0.00  0.00    +0.047 A 
ATOM      6  C   LIG    1        2.465   0.222  -0.098  0.00  0.00    +0.135 A 
ATOM      7  C   LIG    1        1.318  -0.544   0.022  0.00  0.00    +0.093 A 
ATOM      8  C   LIG    1        0.076   0.073   0.040  0.00  0.00    +0.143 A 
ATOM      9  O   LIG    1       -1.055  -0.655   0.157  0.00  0.00    -0.422 OA
ATOM     10  C   LIG    1       -2.265  -0.073   0.176  0.00  0.00    +0.341 A 
ATOM     11  O   LIG    1       -3.257  -0.771   0.283  0.00  0.00    -0.245 OA
ATOM     12  C   LIG    1       -2.415   1.325   0.076  0.00  0.00    +0.045 A 
ENDROOT
BRANCH   6  13
ATOM     13  O   LIG    1        3.680  -0.383  -0.116  0.00  0.00    -0.426 OA
BRANCH  13  14
ATOM     14  C   LIG    1        4.475  -0.187   0.949  0.00  0.00    +0.315 C 
ATOM     15  O   LIG    1        4.059   0.414   1.911  0.00  0.00    -0.250 OA
BRANCH  14  16
ATOM     16  C   LIG    1        5.885  -0.718   0.945  0.00  0.00    +0.098 C 
ATOM     17  C   LIG    1        6.210  -1.870   1.897  0.00  0.00    +0.015 C 
ATOM     18  C   LIG    1        6.739  -0.464   2.188  0.00  0.00    +0.015 C 
ENDBRANCH  14  16
ENDBRANCH  13  14
ENDBRANCH   6  13
BRANCH  12  19
ATOM     19  C   LIG    1       -3.791   1.941   0.103  0.00  0.00    +0.077 C 
BRANCH  19  20
ATOM     20  C   LIG    1       -4.362   1.955  -1.292  0.00  0.00    -0.043 A 
ATOM     21  C   LIG    1       -4.231   3.082  -2.081  0.00  0.00    +0.004 A 
ATOM     22  C   LIG    1       -4.751   3.093  -3.362  0.00  0.00    +0.000 A 
ATOM     23  C   LIG    1       -5.410   1.980  -3.850  0.00  0.00    +0.000 A 
ATOM     24  C   LIG    1       -5.546   0.855  -3.058  0.00  0.00    +0.000 A 
ATOM     25  C   LIG    1       -5.022   0.842  -1.779  0.00  0.00    +0.004 A 
ENDBRANCH  19  20
ENDBRANCH  12  19
TORSDOF 5
