REMARK  Name = ZINC00600748
REMARK                            x       y       z     vdW  Elec       q    Type
REMARK                         _______ _______ _______ _____ _____    ______ ____
ROOT
ATOM      1  S   LIG    1       -0.216  -2.928  -0.012  0.00  0.00    +0.072 S 
ATOM      2  O   LIG    1       -0.857  -2.651  -1.250  0.00  0.00    -0.150 OA
ATOM      3  O   LIG    1       -0.833  -2.665   1.241  0.00  0.00    -0.150 OA
ENDROOT
BRANCH   1   4
ATOM      4  C   LIG    1        0.185  -4.643  -0.025  0.00  0.00    +0.109 A 
ATOM      5  C   LIG    1        0.337  -5.308  -1.228  0.00  0.00    +0.031 A 
ATOM      6  C   LIG    1        0.652  -6.654  -1.239  0.00  0.00    +0.030 A 
ATOM      7  C   LIG    1        0.816  -7.335  -0.047  0.00  0.00    +0.105 A 
ATOM      8  C   LIG    1        0.665  -6.670   1.155  0.00  0.00    +0.030 A 
ATOM      9  C   LIG    1        0.355  -5.323   1.166  0.00  0.00    +0.031 A 
BRANCH   7  10
ATOM     10  S   LIG    1        1.217  -9.051  -0.060  0.00  0.00    +0.056 S 
ATOM     11  O   LIG    1        0.765  -9.563  -1.307  0.00  0.00    -0.153 OA
ATOM     12  O   LIG    1        0.780  -9.579   1.184  0.00  0.00    -0.153 OA
BRANCH  10  13
ATOM     13  N   LIG    1        2.868  -9.168  -0.071  0.00  0.00    -0.204 NA
ATOM     14  H   LIG    1        3.401  -8.474  -0.489  0.00  0.00    +0.144 HD
ATOM     15  H   LIG    1        3.303  -9.931   0.342  0.00  0.00    +0.144 HD
ENDBRANCH  10  13
ENDBRANCH   7  10
ENDBRANCH   1   4
BRANCH   1  16
ATOM     16  N   LIG    1        1.212  -2.090  -0.021  0.00  0.00    -0.214 N 
ATOM     17  H   LIG    1        2.068  -2.577  -0.032  0.00  0.00    +0.174 HD
BRANCH  16  27
ATOM     18  C   LIG    1       -0.017   1.383   0.010  0.00  0.00    +0.003 A 
ATOM     19  C   LIG    1        1.150   2.095   0.002  0.00  0.00    +0.011 A 
ATOM     20  C   LIG    1        2.376   1.423  -0.013  0.00  0.00    +0.020 A 
ATOM     21  C   LIG    1        3.774   1.859  -0.024  0.00  0.00    +0.066 A 
ATOM     22 CL   LIG    1        4.344   3.499  -0.021  0.00  0.00    -0.081 Cl
ATOM     23  C   LIG    1        4.532   0.750  -0.037  0.00  0.00    +0.103 A 
ATOM     24  N   LIG    1        3.731  -0.361  -0.035  0.00  0.00    -0.358 N 
ATOM     25  H   LIG    1        4.049  -1.277  -0.043  0.00  0.00    +0.165 HD
ATOM     26  C   LIG    1        2.406   0.018  -0.021  0.00  0.00    +0.071 A 
ATOM     27  C   LIG    1        1.203  -0.692  -0.013  0.00  0.00    +0.072 A 
ATOM     28  C   LIG    1        0.002  -0.004   0.002  0.00  0.00    +0.026 A 
ENDBRANCH  16  27
ENDBRANCH   1  16
TORSDOF 5
