REMARK  Name = ZINC00406590
REMARK                            x       y       z     vdW  Elec       q    Type
REMARK                         _______ _______ _______ _____ _____    ______ ____
ROOT
ATOM      1  C   LIG    1        0.286  -1.735  -1.734  0.00  0.00    +0.285 C 
ATOM      2  C   LIG    1        1.163  -2.279  -2.646  0.00  0.00    +0.065 C 
ATOM      3  C   LIG    1        1.157  -3.764  -2.962  0.00  0.00    +0.096 C 
ATOM      4  C   LIG    1        2.177  -4.226  -3.988  0.00  0.00    +0.069 C 
ATOM      5  C   LIG    1        3.000  -3.281  -4.530  0.00  0.00    +0.049 C 
ATOM      6  C   LIG    1        4.022  -3.709  -5.551  0.00  0.00    +0.066 C 
ATOM      7  N   LIG    1        2.932  -2.002  -4.193  0.00  0.00    -0.256 NA
ATOM      8  C   LIG    1        2.091  -1.488  -3.326  0.00  0.00    +0.049 C 
ATOM      9  C   LIG    1        2.132  -0.006  -3.052  0.00  0.00    +0.066 C 
ENDROOT
BRANCH   3  10
ATOM     10  C   LIG    1       -0.213  -4.133  -3.468  0.00  0.00    -0.035 A 
ATOM     11  C   LIG    1       -0.713  -3.532  -4.609  0.00  0.00    +0.008 A 
ATOM     12  C   LIG    1       -1.970  -3.868  -5.074  0.00  0.00    +0.046 A 
ATOM     13  C   LIG    1       -2.730  -4.810  -4.396  0.00  0.00    +0.120 A 
ATOM     14  C   LIG    1       -2.226  -5.412  -3.252  0.00  0.00    +0.046 A 
ATOM     15  C   LIG    1       -0.967  -5.076  -2.794  0.00  0.00    +0.008 A 
BRANCH  13  16
ATOM     16  O   LIG    1       -3.967  -5.142  -4.851  0.00  0.00    -0.495 OA
ATOM     17  C   LIG    1       -4.693  -6.119  -4.103  0.00  0.00    +0.277 C 
ENDBRANCH  13  16
ENDBRANCH   3  10
BRANCH   1  18
ATOM     18  O   LIG    1       -0.661  -2.508  -1.165  0.00  0.00    -0.480 OA
ATOM     19  H   LIG    1       -1.257  -2.138  -0.545  0.00  0.00    +0.295 HD
ENDBRANCH   1  18
BRANCH   4  20
ATOM     20  C   LIG    1        2.271  -5.577  -4.364  0.00  0.00    +0.338 C 
ATOM     21  O   LIG    1        3.018  -5.907  -5.268  0.00  0.00    -0.245 OA
BRANCH  20  22
ATOM     22  O   LIG    1        1.533  -6.510  -3.724  0.00  0.00    -0.465 OA
ATOM     23  C   LIG    1        1.678  -7.863  -4.159  0.00  0.00    +0.280 C 
ENDBRANCH  20  22
ENDBRANCH   4  20
BRANCH   1  24
ATOM     24  O   LIG    1        0.375  -0.430  -1.409  0.00  0.00    -0.464 OA
BRANCH  24  26
ATOM     25  C   LIG    1       -0.312   1.556  -0.215  0.00  0.00    +0.048 C 
ATOM     26  C   LIG    1       -0.567   0.067  -0.455  0.00  0.00    +0.229 C 
ENDBRANCH  24  26
ENDBRANCH   1  24
TORSDOF 7
