REMARK  Name = ZINC00601305
REMARK                            x       y       z     vdW  Elec       q    Type
REMARK                         _______ _______ _______ _____ _____    ______ ____
ROOT
ATOM      1  N   LIG    1        0.440  -0.278   2.491  0.00  0.00    -0.230 N 
ATOM      2  H   LIG    1        0.610   0.591   2.889  0.00  0.00    +0.173 HD
ATOM      3  C   LIG    1       -0.106  -1.262   3.232  0.00  0.00    +0.260 C 
ATOM      4  O   LIG    1       -0.319  -2.351   2.734  0.00  0.00    -0.269 OA
ENDROOT
BRANCH   1  14
ATOM      5  C   LIG    1       -0.019   1.526   0.010  0.00  0.00    +0.030 C 
ATOM      6  C   LIG    1        0.002  -0.004   0.002  0.00  0.00    +0.096 C 
ATOM      7  C   LIG    1        0.748  -0.521  -1.239  0.00  0.00    +0.061 C 
ATOM      8  C   LIG    1        1.915  -1.304  -0.682  0.00  0.00    -0.023 A 
ATOM      9  C   LIG    1        2.929  -1.995  -1.317  0.00  0.00    +0.005 A 
ATOM     10  C   LIG    1        3.899  -2.643  -0.576  0.00  0.00    +0.000 A 
ATOM     11  C   LIG    1        3.853  -2.598   0.806  0.00  0.00    +0.002 A 
ATOM     12  C   LIG    1        2.844  -1.909   1.444  0.00  0.00    +0.025 A 
ATOM     13  C   LIG    1        1.860  -1.252   0.702  0.00  0.00    +0.051 A 
ATOM     14  N   LIG    1        0.764  -0.508   1.148  0.00  0.00    -0.247 N 
ENDBRANCH   1  14
BRANCH   3  15
ATOM     15  C   LIG    1       -0.448  -1.019   4.649  0.00  0.00    +0.040 A 
ATOM     16  C   LIG    1       -0.210   0.232   5.222  0.00  0.00    +0.014 A 
ATOM     17  C   LIG    1       -0.531   0.453   6.544  0.00  0.00    +0.023 A 
ATOM     18  C   LIG    1       -1.087  -0.562   7.304  0.00  0.00    +0.067 A 
ATOM     19 CL   LIG    1       -1.488  -0.276   8.969  0.00  0.00    -0.082 Cl
ATOM     20  C   LIG    1       -1.325  -1.805   6.742  0.00  0.00    +0.124 A 
ATOM     21  C   LIG    1       -1.014  -2.037   5.418  0.00  0.00    +0.043 A 
BRANCH  20  22
ATOM     22  S   LIG    1       -2.032  -3.091   7.716  0.00  0.00    +0.057 S 
ATOM     23  O   LIG    1       -2.125  -4.234   6.876  0.00  0.00    -0.153 OA
ATOM     24  O   LIG    1       -3.164  -2.531   8.368  0.00  0.00    -0.153 OA
BRANCH  22  25
ATOM     25  N   LIG    1       -0.939  -3.464   8.903  0.00  0.00    -0.203 NA
ATOM     26  H   LIG    1        0.011  -3.355   8.739  0.00  0.00    +0.144 HD
ATOM     27  H   LIG    1       -1.248  -3.791   9.762  0.00  0.00    +0.144 HD
ENDBRANCH  22  25
ENDBRANCH  20  22
ENDBRANCH   3  15
TORSDOF 4
