REMARK  Name = ZINC00391976
REMARK                            x       y       z     vdW  Elec       q    Type
REMARK                         _______ _______ _______ _____ _____    ______ ____
ROOT
ATOM      1  C   LIG    1       -2.504   0.998   0.020  0.00  0.00    +0.064 A 
ATOM      2  C   LIG    1       -3.478   1.285   0.921  0.00  0.00    +0.208 A 
ATOM      3  O   LIG    1       -4.640   0.627   0.957  0.00  0.00    -0.462 OA
ATOM      4  C   LIG    1       -4.950  -0.374   0.110  0.00  0.00    +0.142 A 
ATOM      5  C   LIG    1       -6.177  -1.019   0.198  0.00  0.00    +0.092 A 
ATOM      6  C   LIG    1       -6.480  -2.045  -0.681  0.00  0.00    +0.120 A 
ATOM      7  C   LIG    1       -5.564  -2.438  -1.655  0.00  0.00    +0.046 A 
ATOM      8  C   LIG    1       -4.354  -1.814  -1.755  0.00  0.00    +0.019 A 
ATOM      9  C   LIG    1       -4.034  -0.778  -0.876  0.00  0.00    +0.065 A 
ATOM     10  C   LIG    1       -2.740  -0.077  -0.959  0.00  0.00    +0.200 A 
ATOM     11  O   LIG    1       -1.904  -0.375  -1.795  0.00  0.00    -0.286 OA
ENDROOT
BRANCH   1  17
ATOM     12  C   LIG    1       -0.013   1.076   0.008  0.00  0.00    +0.012 A 
ATOM     13  C   LIG    1        1.174   1.782   0.000  0.00  0.00    +0.050 A 
ATOM     14  C   LIG    1        1.158   3.168   0.007  0.00  0.00    +0.158 A 
ATOM     15  C   LIG    1       -0.054   3.853   0.021  0.00  0.00    +0.159 A 
ATOM     16  C   LIG    1       -1.245   3.150   0.029  0.00  0.00    +0.058 A 
ATOM     17  C   LIG    1       -1.229   1.756   0.017  0.00  0.00    -0.008 A 
BRANCH  14  18
ATOM     18  O   LIG    1        2.329   3.860  -0.001  0.00  0.00    -0.503 OA
ATOM     19  H   LIG    1        2.659   4.064  -0.886  0.00  0.00    +0.292 HD
ENDBRANCH  14  18
BRANCH  15  20
ATOM     20  O   LIG    1       -0.067   5.213   0.028  0.00  0.00    -0.503 OA
ATOM     21  H   LIG    1       -0.079   5.610  -0.854  0.00  0.00    +0.292 HD
ENDBRANCH  15  20
ENDBRANCH   1  17
BRANCH   6  22
ATOM     22  O   LIG    1       -7.680  -2.674  -0.593  0.00  0.00    -0.507 OA
ATOM     23  H   LIG    1       -7.679  -3.441  -0.004  0.00  0.00    +0.292 HD
ENDBRANCH   6  22
TORSDOF 4
