REMARK  Name = ZINC00596881
REMARK                            x       y       z     vdW  Elec       q    Type
REMARK                         _______ _______ _______ _____ _____    ______ ____
ROOT
ATOM      1  C   LIG    1       -2.941  -1.740  -1.438  0.00  0.00    +0.170 C 
ENDROOT
BRANCH   1   2
ATOM      2  C   LIG    1       -3.663  -1.329  -2.695  0.00  0.00    +0.001 A 
ATOM      3  C   LIG    1       -2.952  -0.820  -3.766  0.00  0.00    +0.009 A 
ATOM      4  C   LIG    1       -3.614  -0.443  -4.919  0.00  0.00    +0.020 A 
ATOM      5  C   LIG    1       -4.989  -0.575  -5.003  0.00  0.00    +0.042 A 
ATOM      6 CL   LIG    1       -5.821  -0.101  -6.451  0.00  0.00    -0.083 Cl
ATOM      7  C   LIG    1       -5.701  -1.085  -3.932  0.00  0.00    +0.040 A 
ATOM      8  C   LIG    1       -5.037  -1.466  -2.780  0.00  0.00    +0.048 A 
ATOM      9 CL   LIG    1       -5.929  -2.112  -1.437  0.00  0.00    -0.083 Cl
ENDBRANCH   1   2
BRANCH   1  10
ATOM     10  O   LIG    1       -1.715  -1.011  -1.334  0.00  0.00    -0.366 OA
BRANCH  10  11
ATOM     11  C   LIG    1       -1.293  -0.775   0.011  0.00  0.00    +0.196 C 
BRANCH  11  18
ATOM     12  C   LIG    1       -0.017   1.378   0.010  0.00  0.00    +0.007 A 
ATOM     13  C   LIG    1        1.171   2.086   0.002  0.00  0.00    +0.020 A 
ATOM     14  C   LIG    1        2.378   1.410  -0.013  0.00  0.00    +0.041 A 
ATOM     15 CL   LIG    1        3.870   2.298  -0.023  0.00  0.00    -0.084 Cl
ATOM     16  C   LIG    1        2.396   0.027  -0.021  0.00  0.00    +0.020 A 
ATOM     17  C   LIG    1        1.208  -0.679  -0.013  0.00  0.00    +0.007 A 
ATOM     18  C   LIG    1        0.002  -0.004   0.002  0.00  0.00    -0.022 A 
ENDBRANCH  11  18
ENDBRANCH  10  11
ENDBRANCH   1  10
BRANCH   1  19
ATOM     19  C   LIG    1       -2.640  -3.239  -1.490  0.00  0.00    +0.159 C 
BRANCH  19  20
ATOM     20  N   LIG    1       -2.045  -3.661  -0.219  0.00  0.00    -0.334 N 
ATOM     21  C   LIG    1       -0.712  -3.675   0.088  0.00  0.00    +0.107 A 
ATOM     22  C   LIG    1       -0.608  -4.131   1.351  0.00  0.00    +0.130 A 
ATOM     23  N   LIG    1       -1.845  -4.388   1.803  0.00  0.00    -0.244 NA
ATOM     24  C   LIG    1       -2.711  -4.104   0.869  0.00  0.00    +0.199 A 
ENDBRANCH  19  20
ENDBRANCH   1  19
TORSDOF 6
