REMARK  Name = ZINC00603064
REMARK                            x       y       z     vdW  Elec       q    Type
REMARK                         _______ _______ _______ _____ _____    ______ ____
ROOT
ATOM      1  N   LIG    1        1.110   2.017   0.015  0.00  0.00    -0.268 N 
ATOM      2  H   LIG    1        1.035   3.112  -0.050  0.00  0.00    +0.156 HD
ATOM      3  C   LIG    1       -0.006   1.262   0.001  0.00  0.00    +0.308 C 
ATOM      4  N   LIG    1       -1.218   1.852  -0.003  0.00  0.00    -0.267 N 
ATOM      5  H   LIG    1       -1.297   2.946  -0.084  0.00  0.00    +0.156 HD
ATOM      6  O   LIG    1        0.080   0.050  -0.014  0.00  0.00    -0.252 OA
ENDROOT
BRANCH   4   7
ATOM      7  C   LIG    1       -2.370   1.076   0.095  0.00  0.00    +0.064 A 
ATOM      8  C   LIG    1       -2.316  -0.171   0.695  0.00  0.00    +0.027 A 
ATOM      9  C   LIG    1       -3.450  -0.953   0.801  0.00  0.00    +0.023 A 
ATOM     10  C   LIG    1       -4.670  -0.496   0.303  0.00  0.00    +0.079 A 
ATOM     11  C   LIG    1       -4.742   0.767  -0.309  0.00  0.00    +0.105 A 
ATOM     12  N   LIG    1       -5.760   1.495  -0.868  0.00  0.00    -0.256 N 
ATOM     13  H   LIG    1       -6.778   1.079  -0.904  0.00  0.00    +0.191 HD
ATOM     14  N   LIG    1       -5.197   2.706  -1.297  0.00  0.00    -0.067 NA
ATOM     15  N   LIG    1       -3.940   2.712  -1.021  0.00  0.00    -0.128 NA
ATOM     16  C   LIG    1       -3.591   1.562  -0.410  0.00  0.00    +0.135 A 
BRANCH  10  17
ATOM     17  C   LIG    1       -5.843  -1.310   0.415  0.00  0.00    +0.101 C 
ATOM     18  N   LIG    1       -6.773  -1.956   0.503  0.00  0.00    -0.191 NA
ENDBRANCH  10  17
ENDBRANCH   4   7
BRANCH   1  24
ATOM     19  C   LIG    1        3.835  -0.418  -0.400  0.00  0.00    +0.002 A 
ATOM     20  C   LIG    1        4.849   0.200   0.308  0.00  0.00    +0.001 A 
ATOM     21  C   LIG    1        4.626   1.419   0.920  0.00  0.00    +0.017 A 
ATOM     22  C   LIG    1        3.387   2.025   0.825  0.00  0.00    +0.039 A 
ATOM     23 BR   LIG    1        3.082   3.693   1.663  0.00  0.00    -0.048 Br
ATOM     24  C   LIG    1        2.366   1.407   0.114  0.00  0.00    +0.049 A 
ATOM     25  C   LIG    1        2.593   0.179  -0.495  0.00  0.00    +0.024 A 
ENDBRANCH   1  24
TORSDOF 3
