REMARK  Name = ZINC00503623
REMARK                            x       y       z     vdW  Elec       q    Type
REMARK                         _______ _______ _______ _____ _____    ______ ____
ROOT
ATOM      1  C   LIG    1        2.620  -4.182   0.291  0.00  0.00    +0.255 C 
ATOM      2  N   LIG    1        3.825  -4.750   0.493  0.00  0.00    -0.281 N 
ATOM      3  H   LIG    1        4.620  -4.197   0.544  0.00  0.00    +0.155 HD
ATOM      4  O   LIG    1        1.635  -4.881   0.140  0.00  0.00    -0.270 OA
ENDROOT
BRANCH   1  11
ATOM      5  C   LIG    1       -0.013   1.362  -0.002  0.00  0.00    +0.001 A 
ATOM      6  C   LIG    1        1.173   2.083  -0.017  0.00  0.00    +0.004 A 
ATOM      7  C   LIG    1        2.390   1.434  -0.046  0.00  0.00    +0.047 A 
ATOM      8  C   LIG    1        2.432   0.047  -0.054  0.00  0.00    +0.139 A 
ATOM      9  C   LIG    1        1.230  -0.684  -0.011  0.00  0.00    +0.018 A 
ATOM     10  C   LIG    1        1.266  -2.101   0.046  0.00  0.00    +0.031 A 
ATOM     11  C   LIG    1        2.494  -2.715   0.252  0.00  0.00    +0.122 A 
ATOM     12  C   LIG    1        3.668  -1.841   0.432  0.00  0.00    +0.350 A 
ATOM     13  O   LIG    1        4.647  -2.220   1.047  0.00  0.00    -0.244 OA
ATOM     14  O   LIG    1        3.620  -0.603  -0.111  0.00  0.00    -0.422 OA
ATOM     15  C   LIG    1        0.004  -0.003  -0.004  0.00  0.00    +0.011 A 
ENDBRANCH   1  11
BRANCH   2  16
ATOM     16  C   LIG    1        3.930  -6.138   0.629  0.00  0.00    +0.034 A 
ATOM     17  C   LIG    1        4.865  -6.684   1.499  0.00  0.00    +0.025 A 
ATOM     18  C   LIG    1        4.965  -8.055   1.631  0.00  0.00    +0.030 A 
ATOM     19  C   LIG    1        4.136  -8.884   0.898  0.00  0.00    +0.105 A 
ATOM     20  C   LIG    1        3.204  -8.344   0.031  0.00  0.00    +0.030 A 
ATOM     21  C   LIG    1        3.095  -6.974  -0.102  0.00  0.00    +0.025 A 
BRANCH  19  22
ATOM     22  S   LIG    1        4.268 -10.633   1.069  0.00  0.00    +0.056 S 
ATOM     23  O   LIG    1        5.585 -10.897   1.533  0.00  0.00    -0.153 OA
ATOM     24  O   LIG    1        3.755 -11.198  -0.129  0.00  0.00    -0.153 OA
BRANCH  22  25
ATOM     25  N   LIG    1        3.239 -11.085   2.285  0.00  0.00    -0.204 NA
ATOM     26  H   LIG    1        3.165 -12.019   2.535  0.00  0.00    +0.144 HD
ATOM     27  H   LIG    1        2.710 -10.416   2.746  0.00  0.00    +0.144 HD
ENDBRANCH  22  25
ENDBRANCH  19  22
ENDBRANCH   2  16
TORSDOF 4
