REMARK  Name = ZINC00405262
REMARK                            x       y       z     vdW  Elec       q    Type
REMARK                         _______ _______ _______ _____ _____    ______ ____
ROOT
ATOM      1  C   LIG    1        1.150   3.593   0.010  0.00  0.00    +0.128 C 
ENDROOT
BRANCH   1   2
ATOM      2  C   LIG    1        1.171   2.087   0.002  0.00  0.00    -0.019 A 
ATOM      3  C   LIG    1        2.378   1.412  -0.013  0.00  0.00    +0.007 A 
ATOM      4  C   LIG    1        2.398   0.030  -0.021  0.00  0.00    +0.022 A 
ATOM      5  C   LIG    1        1.211  -0.679  -0.013  0.00  0.00    +0.059 A 
ATOM      6 CL   LIG    1        1.236  -2.415  -0.023  0.00  0.00    -0.082 Cl
ATOM      7  C   LIG    1        0.002  -0.004   0.002  0.00  0.00    +0.060 A 
ATOM      8 CL   LIG    1       -1.489  -0.893   0.011  0.00  0.00    -0.082 Cl
ATOM      9  C   LIG    1       -0.017   1.379   0.010  0.00  0.00    +0.027 A 
ENDBRANCH   1   2
BRANCH   1  10
ATOM     10  O   LIG    1        2.254   4.081   0.775  0.00  0.00    -0.389 OA
ATOM     11  H   LIG    1        3.118   3.809   0.436  0.00  0.00    +0.210 HD
ENDBRANCH   1  10
BRANCH   1  12
ATOM     12  C   LIG    1        1.255   4.112  -1.426  0.00  0.00    -0.046 C 
BRANCH  12  13
ATOM     13  N   LIG    1        1.234   5.587  -1.409  0.00  0.00    +0.382 N 
ATOM     14  H   LIG    1        2.027   5.931  -0.855  0.00  0.00    -0.085 HD
ATOM     15  H   LIG    1        0.355   5.909  -0.986  0.00  0.00    -0.085 HD
BRANCH  13  17
ATOM     16  C   LIG    1       -0.059   6.165  -3.414  0.00  0.00    -0.014 C 
ATOM     17  C   LIG    1        1.334   6.116  -2.783  0.00  0.00    -0.078 C 
ATOM     18  C   LIG    1        1.923   7.527  -2.735  0.00  0.00    -0.014 C 
ENDBRANCH  13  17
ENDBRANCH  12  13
ENDBRANCH   1  12
TORSDOF 5
