REMARK  Name = ZINC00480585
REMARK                            x       y       z     vdW  Elec       q    Type
REMARK                         _______ _______ _______ _____ _____    ______ ____
ROOT
ATOM      1  C   LIG    1        0.000   1.080   2.488  0.00  0.00    +0.235 C 
ATOM      2  N   LIG    1       -0.453   1.393   3.718  0.00  0.00    -0.185 N 
ATOM      3  C   LIG    1        0.160   0.973   4.988  0.00  0.00    +0.137 C 
ATOM      4  C   LIG    1       -0.755   1.604   6.057  0.00  0.00    +0.087 C 
ATOM      5  C   LIG    1       -1.810   2.328   5.251  0.00  0.00    +0.069 C 
ATOM      6  N   LIG    1       -1.575   2.171   3.995  0.00  0.00    -0.181 NA
ATOM      7  O   LIG    1        0.995   0.397   2.363  0.00  0.00    -0.274 OA
ENDROOT
BRANCH   3   8
ATOM      8  C   LIG    1        0.157  -0.529   5.108  0.00  0.00    -0.025 A 
ATOM      9  C   LIG    1       -0.932  -1.255   4.663  0.00  0.00    +0.008 A 
ATOM     10  C   LIG    1       -0.933  -2.634   4.767  0.00  0.00    +0.038 A 
ATOM     11  C   LIG    1        0.152  -3.286   5.327  0.00  0.00    +0.123 A 
ATOM     12  F   LIG    1        0.150  -4.633   5.435  0.00  0.00    -0.205 F 
ATOM     13  C   LIG    1        1.240  -2.557   5.777  0.00  0.00    +0.038 A 
ATOM     14  C   LIG    1        1.242  -1.179   5.667  0.00  0.00    +0.008 A 
ENDBRANCH   3   8
BRANCH   5  15
ATOM     15  C   LIG    1       -2.931   3.101   5.818  0.00  0.00    -0.002 A 
ATOM     16  C   LIG    1       -3.085   3.202   7.202  0.00  0.00    +0.010 A 
ATOM     17  C   LIG    1       -4.133   3.931   7.725  0.00  0.00    +0.001 A 
ATOM     18  C   LIG    1       -5.037   4.551   6.881  0.00  0.00    +0.000 A 
ATOM     19  C   LIG    1       -4.894   4.450   5.508  0.00  0.00    +0.001 A 
ATOM     20  C   LIG    1       -3.848   3.730   4.972  0.00  0.00    +0.010 A 
ENDBRANCH   5  15
BRANCH   1  22
ATOM     21  C   LIG    1       -0.013   1.086   0.008  0.00  0.00    +0.013 C 
ATOM     22  C   LIG    1       -0.729   1.579   1.267  0.00  0.00    +0.094 C 
ENDBRANCH   1  22
TORSDOF 3
