REMARK  Name = ZINC00642085
REMARK                            x       y       z     vdW  Elec       q    Type
REMARK                         _______ _______ _______ _____ _____    ______ ____
ROOT
ATOM      1  C   LIG    1        6.269   2.487  -0.044  0.00  0.00    +0.001 A 
ATOM      2  C   LIG    1        6.160   1.109  -0.049  0.00  0.00    +0.001 A 
ATOM      3  C   LIG    1        4.913   0.504  -0.041  0.00  0.00    +0.012 A 
ATOM      4  C   LIG    1        3.765   1.288  -0.026  0.00  0.00    +0.036 A 
ATOM      5  C   LIG    1        3.876   2.690  -0.020  0.00  0.00    +0.029 A 
ATOM      6  C   LIG    1        2.649   3.518  -0.004  0.00  0.00    +0.174 C 
ATOM      7  O   LIG    1        2.733   4.731   0.001  0.00  0.00    -0.291 OA
ATOM      8  C   LIG    1        1.332   2.874   0.005  0.00  0.00    +0.134 C 
ATOM      9  C   LIG    1        1.218   1.530  -0.001  0.00  0.00    +0.213 C 
ATOM     10  O   LIG    1       -0.011   0.963   0.007  0.00  0.00    -0.288 OA
ATOM     11  C   LIG    1        2.423   0.668  -0.011  0.00  0.00    +0.229 C 
ATOM     12  O   LIG    1        2.309  -0.541  -0.012  0.00  0.00    -0.284 OA
ATOM     13  C   LIG    1        5.133   3.282  -0.028  0.00  0.00    +0.012 A 
ENDROOT
BRANCH   8  14
ATOM     14  C   LIG    1        0.089   3.726   0.021  0.00  0.00    +0.019 C 
BRANCH  14  15
ATOM     15  C   LIG    1       -0.248   4.110   1.463  0.00  0.00    +0.001 C 
BRANCH  15  16
ATOM     16  C   LIG    1       -1.510   4.974   1.479  0.00  0.00    +0.003 C 
BRANCH  16  17
ATOM     17  C   LIG    1       -1.846   5.359   2.921  0.00  0.00    -0.011 C 
ATOM     18  C   LIG    1       -2.207   4.100   3.713  0.00  0.00    +0.004 C 
ATOM     19  C   LIG    1       -2.544   4.485   5.156  0.00  0.00    +0.004 C 
ATOM     20  C   LIG    1       -3.731   5.450   5.162  0.00  0.00    -0.008 C 
ATOM     21  C   LIG    1       -4.943   4.772   4.519  0.00  0.00    +0.004 C 
ATOM     22  C   LIG    1       -6.130   5.737   4.526  0.00  0.00    +0.000 C 
ATOM     23  C   LIG    1       -5.769   6.996   3.734  0.00  0.00    +0.000 C 
ATOM     24  C   LIG    1       -4.557   7.673   4.377  0.00  0.00    +0.004 C 
ATOM     25  C   LIG    1       -3.370   6.708   4.370  0.00  0.00    -0.008 C 
ATOM     26  C   LIG    1       -3.034   6.324   2.928  0.00  0.00    +0.007 C 
ENDBRANCH  16  17
ENDBRANCH  15  16
ENDBRANCH  14  15
ENDBRANCH   8  14
TORSDOF 4
