REMARK  Name = ZINC00402954
REMARK                            x       y       z     vdW  Elec       q    Type
REMARK                         _______ _______ _______ _____ _____    ______ ____
ROOT
ATOM      1  C   LIG    1       -0.213   0.921   4.924  0.00  0.00    -0.096 C 
ATOM      2  N   LIG    1       -0.789   1.523   3.705  0.00  0.00    +0.380 N 
ATOM      3  H   LIG    1       -1.807   1.385   3.715  0.00  0.00    -0.082 HD
ATOM      4  C   LIG    1       -0.229   0.862   2.503  0.00  0.00    -0.060 C 
ATOM      5  C   LIG    1        1.284   0.989   2.455  0.00  0.00    +0.020 C 
ATOM      6  C   LIG    1        1.759   2.206   1.730  0.00  0.00    -0.041 A 
ATOM      7  C   LIG    1        3.086   2.555   1.553  0.00  0.00    +0.007 A 
ATOM      8  C   LIG    1        3.421   3.649   0.771  0.00  0.00    +0.049 A 
ATOM      9  C   LIG    1        2.478   4.439   0.117  0.00  0.00    +0.159 A 
ATOM     10  C   LIG    1        1.132   4.096   0.289  0.00  0.00    +0.167 A 
ATOM     11  O   LIG    1       -0.006   4.621  -0.214  0.00  0.00    -0.476 OA
ATOM     12  C   LIG    1       -1.078   3.641  -0.070  0.00  0.00    +0.250 C 
ATOM     13  C   LIG    1       -1.036   2.751  -1.277  0.00  0.00    +0.174 C 
ATOM     14  C   LIG    1       -1.192   1.262  -1.200  0.00  0.00    +0.078 C 
ATOM     15  C   LIG    1       -0.432   0.716   0.010  0.00  0.00    +0.010 C 
ATOM     16  O   LIG    1       -0.867   3.257  -2.361  0.00  0.00    -0.293 OA
ATOM     17  C   LIG    1       -0.665   2.903   1.197  0.00  0.00    +0.043 C 
ATOM     18  C   LIG    1       -1.183   3.600   2.453  0.00  0.00    -0.003 C 
ATOM     19  C   LIG    1        0.838   3.028   1.124  0.00  0.00    +0.011 A 
ATOM     20  C   LIG    1       -0.946   1.412   1.270  0.00  0.00    -0.009 C 
ATOM     21  C   LIG    1       -0.503   2.975   3.676  0.00  0.00    -0.078 C 
ENDROOT
BRANCH   9  22
ATOM     22  O   LIG    1        2.849   5.496  -0.655  0.00  0.00    -0.503 OA
ATOM     23  H   LIG    1        2.911   6.332  -0.173  0.00  0.00    +0.292 HD
ENDBRANCH   9  22
TORSDOF 1
