REMARK  Name = ZINC00580328
REMARK                            x       y       z     vdW  Elec       q    Type
REMARK                         _______ _______ _______ _____ _____    ______ ____
ROOT
ATOM      1  S   LIG    1       -3.264   0.844   1.403  0.00  0.00    +0.062 S 
ATOM      2  O   LIG    1       -3.237   1.403   0.097  0.00  0.00    -0.153 OA
ATOM      3  O   LIG    1       -3.254   1.646   2.575  0.00  0.00    -0.153 OA
ENDROOT
BRANCH   1   8
ATOM      4  C   LIG    1       -0.003   1.371  -0.035  0.00  0.00    +0.024 C 
ATOM      5  C   LIG    1        0.060  -0.149   0.125  0.00  0.00    +0.037 C 
ATOM      6  C   LIG    1        0.720  -0.769  -1.108  0.00  0.00    +0.024 C 
ATOM      7  C   LIG    1       -1.358  -0.708   0.289  0.00  0.00    +0.183 C 
ATOM      8  N   LIG    1       -1.957  -0.168   1.511  0.00  0.00    -0.163 NA
ATOM      9  C   LIG    1       -1.415  -0.510   2.826  0.00  0.00    +0.121 C 
ATOM     10  C   LIG    1       -0.003   0.072   2.965  0.00  0.00    +0.087 C 
ATOM     11  S   LIG    1        1.025  -0.567   1.608  0.00  0.00    -0.151 S 
BRANCH   7  12
ATOM     12  C   LIG    1       -2.195  -0.311  -0.899  0.00  0.00    +0.256 C 
ATOM     13  N   LIG    1       -3.280  -1.038  -1.232  0.00  0.00    -0.196 N 
ATOM     14  H   LIG    1       -3.522  -1.817  -0.707  0.00  0.00    +0.182 HD
ATOM     15  O   LIG    1       -1.893   0.663  -1.556  0.00  0.00    -0.272 OA
BRANCH  13  16
ATOM     16  O   LIG    1       -4.067  -0.665  -2.349  0.00  0.00    -0.295 OA
ATOM     17  H   LIG    1       -4.824  -1.246  -2.509  0.00  0.00    +0.241 HD
ENDBRANCH  13  16
ENDBRANCH   7  12
ENDBRANCH   1   8
BRANCH   1  18
ATOM     18  C   LIG    1       -4.709  -0.161   1.491  0.00  0.00    +0.106 A 
ATOM     19  C   LIG    1       -5.375  -0.514   0.333  0.00  0.00    +0.032 A 
ATOM     20  C   LIG    1       -6.508  -1.302   0.399  0.00  0.00    +0.047 A 
ATOM     21  C   LIG    1       -6.977  -1.738   1.630  0.00  0.00    +0.121 A 
ATOM     22  C   LIG    1       -6.306  -1.382   2.791  0.00  0.00    +0.047 A 
ATOM     23  C   LIG    1       -5.171  -0.599   2.719  0.00  0.00    +0.032 A 
BRANCH  21  24
ATOM     24  O   LIG    1       -8.092  -2.512   1.699  0.00  0.00    -0.489 OA
BRANCH  24  25
ATOM     25  C   LIG    1       -9.247  -1.931   2.110  0.00  0.00    +0.176 C 
ATOM     26  C   LIG    1      -10.396  -2.692   2.315  0.00  0.00    +0.059 C 
ATOM     27  C   LIG    1      -11.551  -2.063   2.734  0.00  0.00    +0.084 C 
ATOM     28  N   LIG    1      -11.575  -0.760   2.938  0.00  0.00    -0.316 NA
ATOM     29  H   LIG    1      -12.401  -0.344   3.232  0.00  0.00    +0.122 HD
ATOM     30  C   LIG    1      -10.508  -0.005   2.754  0.00  0.00    +0.084 C 
ATOM     31  C   LIG    1       -9.313  -0.559   2.342  0.00  0.00    +0.059 C 
ENDBRANCH  24  25
ENDBRANCH  21  24
ENDBRANCH   1  18
TORSDOF 6
