REMARK  Name = ZINC00643032
REMARK                            x       y       z     vdW  Elec       q    Type
REMARK                         _______ _______ _______ _____ _____    ______ ____
ROOT
ATOM      1  C   LIG    1        0.131   1.708   0.147  0.00  0.00    +0.132 C 
ATOM      2  N   LIG    1        0.061   0.251   0.012  0.00  0.00    -0.303 N 
ATOM      3  C   LIG    1       -0.060  -0.307  -1.208  0.00  0.00    +0.220 C 
ATOM      4  O   LIG    1       -0.118  -1.514  -1.320  0.00  0.00    -0.275 OA
ENDROOT
BRANCH   2   5
ATOM      5  C   LIG    1        0.124  -0.598   1.204  0.00  0.00    +0.062 C 
ATOM      6  C   LIG    1       -1.109  -0.347   2.075  0.00  0.00    +0.021 C 
ATOM      7  C   LIG    1       -1.044  -1.234   3.319  0.00  0.00    +0.002 C 
ATOM      8  C   LIG    1        0.220  -0.903   4.116  0.00  0.00    -0.001 C 
ATOM      9  C   LIG    1        1.452  -1.155   3.245  0.00  0.00    -0.013 C 
ATOM     10  C   LIG    1        1.387  -0.267   2.001  0.00  0.00    -0.048 C 
BRANCH  10  11
ATOM     11  N   LIG    1        2.571  -0.509   1.165  0.00  0.00    +0.383 N 
ATOM     12  H   LIG    1        2.544   0.079   0.345  0.00  0.00    -0.081 HD
ATOM     13  C   LIG    1        3.809  -0.249   1.942  0.00  0.00    -0.078 C 
ATOM     14  C   LIG    1        4.886  -1.055   1.174  0.00  0.00    -0.020 C 
ATOM     15  C   LIG    1        4.122  -2.328   0.742  0.00  0.00    -0.020 C 
ATOM     16  C   LIG    1        2.634  -1.933   0.769  0.00  0.00    -0.078 C 
ENDBRANCH  10  11
ENDBRANCH   2   5
BRANCH   3  17
ATOM     17  C   LIG    1       -0.124   0.567  -2.434  0.00  0.00    +0.131 C 
BRANCH  17  18
ATOM     18  C   LIG    1       -0.259  -0.298  -3.661  0.00  0.00    -0.037 A 
ATOM     19  C   LIG    1        0.873  -0.747  -4.317  0.00  0.00    +0.005 A 
ATOM     20  C   LIG    1        0.751  -1.540  -5.443  0.00  0.00    +0.022 A 
ATOM     21  C   LIG    1       -0.503  -1.885  -5.914  0.00  0.00    +0.059 A 
ATOM     22 CL   LIG    1       -0.656  -2.880  -7.328  0.00  0.00    -0.082 Cl
ATOM     23  C   LIG    1       -1.636  -1.435  -5.257  0.00  0.00    +0.060 A 
ATOM     24 CL   LIG    1       -3.211  -1.867  -5.847  0.00  0.00    -0.082 Cl
ATOM     25  C   LIG    1       -1.512  -0.646  -4.127  0.00  0.00    +0.025 A 
ENDBRANCH  17  18
ENDBRANCH   3  17
TORSDOF 4
