REMARK  Name = ZINC00597316
REMARK                            x       y       z     vdW  Elec       q    Type
REMARK                         _______ _______ _______ _____ _____    ______ ____
ROOT
ATOM      1  C   LIG    1        2.705  -0.521  -2.524  0.00  0.00    +0.171 A 
ATOM      2  C   LIG    1        3.967  -0.144  -2.863  0.00  0.00    +0.078 A 
ATOM      3  N   LIG    1        4.288  -0.786  -4.017  0.00  0.00    -0.299 N 
ATOM      4  C   LIG    1        5.500  -0.719  -4.704  0.00  0.00    +0.061 A 
ATOM      5  C   LIG    1        5.964  -1.890  -5.302  0.00  0.00    +0.027 A 
ATOM      6  C   LIG    1        7.161  -1.903  -5.986  0.00  0.00    +0.003 A 
ATOM      7  C   LIG    1        7.916  -0.747  -6.085  0.00  0.00    +0.016 A 
ATOM      8  C   LIG    1        7.472   0.420  -5.505  0.00  0.00    +0.032 A 
ATOM      9 BR   LIG    1        8.512   1.993  -5.646  0.00  0.00    -0.049 Br
ATOM     10  C   LIG    1        6.250   0.452  -4.809  0.00  0.00    +0.075 A 
ATOM     11  C   LIG    1        5.826   1.738  -4.244  0.00  0.00    +0.250 C 
ATOM     12  N   LIG    1        5.231   1.892  -3.057  0.00  0.00    -0.289 N 
ATOM     13  C   LIG    1        4.798   3.175  -2.473  0.00  0.00    +0.109 C 
ATOM     14  C   LIG    1        4.650   2.906  -0.956  0.00  0.00    +0.021 C 
ATOM     15  C   LIG    1        4.115   1.449  -0.947  0.00  0.00    +0.030 C 
ATOM     16  O   LIG    1        6.030   2.738  -4.905  0.00  0.00    -0.270 OA
ATOM     17  C   LIG    1        3.204  -1.532  -4.376  0.00  0.00    +0.205 A 
ATOM     18  C   LIG    1        4.870   0.808  -2.127  0.00  0.00    +0.126 C 
ATOM     19  N   LIG    1        2.269  -1.381  -3.483  0.00  0.00    -0.228 NA
ENDROOT
BRANCH   1  20
ATOM     20  C   LIG    1        1.954  -0.084  -1.337  0.00  0.00    +0.360 C 
ATOM     21  O   LIG    1        2.226  -0.540  -0.243  0.00  0.00    -0.243 OA
BRANCH  20  22
ATOM     22  O   LIG    1        0.963   0.821  -1.462  0.00  0.00    -0.454 OA
BRANCH  22  24
ATOM     23  C   LIG    1        1.269   1.812   0.721  0.00  0.00    +0.055 C 
ATOM     24  C   LIG    1        0.275   1.199  -0.268  0.00  0.00    +0.106 C 
ATOM     25  C   LIG    1       -0.807   2.227  -0.606  0.00  0.00    +0.055 C 
ATOM     26  C   LIG    1       -0.373  -0.036   0.361  0.00  0.00    +0.055 C 
ENDBRANCH  22  24
ENDBRANCH  20  22
ENDBRANCH   1  20
TORSDOF 3
