REMARK  Name = ZINC00453884
REMARK                            x       y       z     vdW  Elec       q    Type
REMARK                         _______ _______ _______ _____ _____    ______ ____
ROOT
ATOM      1  C   LIG    1        1.476   1.578   2.433  0.00  0.00    +0.045 C 
ATOM      2  C   LIG    1       -0.013   1.802   2.386  0.00  0.00    -0.030 A 
ATOM      3  C   LIG    1       -0.718   1.572   1.248  0.00  0.00    +0.037 A 
ATOM      4  C   LIG    1       -0.013   1.086   0.008  0.00  0.00    +0.051 C 
ATOM      5  C   LIG    1       -2.110   1.794   1.228  0.00  0.00    +0.340 A 
ATOM      6  O   LIG    1       -2.772   2.222   2.314  0.00  0.00    -0.422 OA
ATOM      7  C   LIG    1       -2.131   2.470   3.477  0.00  0.00    +0.143 A 
ATOM      8  C   LIG    1       -2.829   2.917   4.589  0.00  0.00    +0.092 A 
ATOM      9  C   LIG    1       -2.152   3.165   5.772  0.00  0.00    +0.125 A 
ATOM     10  C   LIG    1       -0.775   2.969   5.854  0.00  0.00    +0.046 A 
ATOM     11  C   LIG    1       -0.073   2.530   4.769  0.00  0.00    +0.015 A 
ATOM     12  O   LIG    1       -2.729   1.588   0.199  0.00  0.00    -0.245 OA
ATOM     13  C   LIG    1       -0.740   2.274   3.566  0.00  0.00    +0.021 A 
ENDROOT
BRANCH   9  14
ATOM     14  O   LIG    1       -2.836   3.602   6.860  0.00  0.00    -0.487 OA
BRANCH  14  15
ATOM     15  C   LIG    1       -2.080   3.839   8.049  0.00  0.00    +0.264 C 
BRANCH  15  16
ATOM     16  C   LIG    1       -3.001   4.316   9.143  0.00  0.00    -0.009 A 
ATOM     17  C   LIG    1       -3.604   3.401   9.986  0.00  0.00    +0.007 A 
ATOM     18  C   LIG    1       -4.448   3.837  10.990  0.00  0.00    +0.002 A 
ATOM     19  C   LIG    1       -4.690   5.189  11.152  0.00  0.00    +0.020 A 
ATOM     20  C   LIG    1       -4.087   6.104  10.308  0.00  0.00    +0.041 A 
ATOM     21 CL   LIG    1       -4.390   7.802  10.511  0.00  0.00    -0.084 Cl
ATOM     22  C   LIG    1       -3.238   5.667   9.307  0.00  0.00    +0.027 A 
ENDBRANCH  15  16
ENDBRANCH  14  15
ENDBRANCH   9  14
TORSDOF 3
