REMARK  Name = ZINC00503641
REMARK                            x       y       z     vdW  Elec       q    Type
REMARK                         _______ _______ _______ _____ _____    ______ ____
ROOT
ATOM      1  N   LIG    1       -1.195  -1.174   0.033  0.00  0.00    -0.249 N 
ATOM      2  C   LIG    1       -1.909  -1.032   1.169  0.00  0.00    +0.257 C 
ATOM      3  C   LIG    1       -3.261  -1.615   1.220  0.00  0.00    +0.100 C 
ATOM      4  C   LIG    1       -3.735  -2.315   0.013  0.00  0.00    +0.257 C 
ATOM      5  N   LIG    1       -2.911  -2.379  -1.053  0.00  0.00    -0.249 N 
ATOM      6  O   LIG    1       -4.841  -2.822  -0.021  0.00  0.00    -0.269 OA
ATOM      7  C   LIG    1       -4.055  -1.509   2.356  0.00  0.00    +0.033 C 
ATOM      8  O   LIG    1       -1.448  -0.439   2.127  0.00  0.00    -0.269 OA
ATOM      9  C   LIG    1       -1.693  -1.820  -1.030  0.00  0.00    +0.149 C 
ATOM     10  S   LIG    1       -0.718  -1.946  -2.432  0.00  0.00    -0.018 S 
ENDROOT
BRANCH   7  11
ATOM     11  C   LIG    1       -5.404  -1.893   2.308  0.00  0.00    +0.013 A 
ATOM     12  C   LIG    1       -6.144  -2.630   3.236  0.00  0.00    +0.016 A 
ATOM     13  C   LIG    1       -7.456  -2.848   2.908  0.00  0.00    +0.011 A 
ATOM     14  C   LIG    1       -7.938  -2.349   1.739  0.00  0.00    -0.013 A 
ATOM     15  C   LIG    1       -9.336  -2.470   1.188  0.00  0.00    +0.051 C 
ATOM     16  S   LIG    1       -6.624  -1.561   1.050  0.00  0.00    -0.094 S 
ENDBRANCH   7  11
BRANCH   1  18
ATOM     17  C   LIG    1        0.068   0.834  -0.562  0.00  0.00    +0.025 C 
ATOM     18  C   LIG    1        0.152  -0.603  -0.042  0.00  0.00    +0.112 C 
ENDBRANCH   1  18
BRANCH   5  19
ATOM     19  C   LIG    1       -3.360  -3.070  -2.264  0.00  0.00    +0.112 C 
ATOM     20  C   LIG    1       -4.067  -2.075  -3.186  0.00  0.00    +0.025 C 
ENDBRANCH   5  19
TORSDOF 3
