REMARK  Name = ZINC00362494
REMARK                            x       y       z     vdW  Elec       q    Type
REMARK                         _______ _______ _______ _____ _____    ______ ____
ROOT
ATOM      1  N   LIG    1        4.851   0.008  -0.046  0.00  0.00    -0.266 N 
ATOM      2  H   LIG    1        4.837   0.976  -0.114  0.00  0.00    +0.157 HD
ATOM      3  C   LIG    1        3.695  -0.684  -0.037  0.00  0.00    +0.249 C 
ATOM      4  O   LIG    1        3.715  -1.900  -0.045  0.00  0.00    -0.270 OA
ENDROOT
BRANCH   1   9
ATOM      5  C   LIG    1        9.711  -2.795   0.311  0.00  0.00    +0.045 C 
ATOM      6  C   LIG    1        8.428  -2.011   0.217  0.00  0.00    -0.032 A 
ATOM      7  C   LIG    1        8.451  -0.623   0.229  0.00  0.00    +0.008 A 
ATOM      8  C   LIG    1        7.251   0.059   0.141  0.00  0.00    +0.044 A 
ATOM      9  C   LIG    1        6.068  -0.665   0.043  0.00  0.00    +0.125 A 
ATOM     10  N   LIG    1        6.086  -1.989   0.040  0.00  0.00    -0.240 NA
ATOM     11  C   LIG    1        7.216  -2.665   0.118  0.00  0.00    +0.116 A 
ENDBRANCH   1   9
BRANCH   3  12
ATOM     12  C   LIG    1        2.404   0.034  -0.018  0.00  0.00    +0.037 A 
ATOM     13  C   LIG    1        1.204  -0.680  -0.009  0.00  0.00    +0.013 A 
ATOM     14  C   LIG    1        0.002  -0.004   0.008  0.00  0.00    +0.001 A 
ATOM     15  C   LIG    1       -0.017   1.380   0.017  0.00  0.00    +0.000 A 
ATOM     16  C   LIG    1        1.169   2.094   0.008  0.00  0.00    +0.001 A 
ATOM     17  C   LIG    1        2.378   1.430  -0.009  0.00  0.00    +0.013 A 
ENDBRANCH   3  12
TORSDOF 2
