REMARK  Name = ZINC00362949
REMARK                            x       y       z     vdW  Elec       q    Type
REMARK                         _______ _______ _______ _____ _____    ______ ____
ROOT
ATOM      1  N   LIG    1        1.200  -2.090  -0.021  0.00  0.00    -0.280 N 
ATOM      2  H   LIG    1        1.969  -2.574   0.316  0.00  0.00    +0.155 HD
ATOM      3  C   LIG    1        0.139  -2.765  -0.508  0.00  0.00    +0.248 C 
ATOM      4  O   LIG    1       -0.782  -2.161  -1.023  0.00  0.00    -0.270 OA
ENDROOT
BRANCH   1  13
ATOM      5  C   LIG    1       -0.028   1.383   0.038  0.00  0.00    +0.003 A 
ATOM      6  C   LIG    1        1.127   2.103   0.033  0.00  0.00    +0.010 A 
ATOM      7  C   LIG    1        2.365   1.441   0.010  0.00  0.00    +0.002 A 
ATOM      8  C   LIG    1        3.578   2.157   0.005  0.00  0.00    +0.011 A 
ATOM      9  C   LIG    1        4.745   1.448  -0.017  0.00  0.00    +0.020 A 
ATOM     10  C   LIG    1        4.712   0.055  -0.035  0.00  0.00    +0.111 A 
ATOM     11  N   LIG    1        3.581  -0.608  -0.031  0.00  0.00    -0.253 NA
ATOM     12  C   LIG    1        2.405   0.026  -0.008  0.00  0.00    +0.092 A 
ATOM     13  C   LIG    1        1.190  -0.694  -0.003  0.00  0.00    +0.060 A 
ATOM     14  C   LIG    1       -0.005  -0.008   0.020  0.00  0.00    +0.025 A 
ENDBRANCH   1  13
BRANCH   3  15
ATOM     15  C   LIG    1        0.096  -4.239  -0.416  0.00  0.00    +0.037 A 
ATOM     16  C   LIG    1        1.149  -4.935   0.180  0.00  0.00    +0.014 A 
ATOM     17  C   LIG    1        1.103  -6.311   0.263  0.00  0.00    +0.021 A 
ATOM     18  C   LIG    1        0.015  -7.002  -0.243  0.00  0.00    +0.041 A 
ATOM     19 CL   LIG    1       -0.036  -8.734  -0.135  0.00  0.00    -0.084 Cl
ATOM     20  C   LIG    1       -1.033  -6.317  -0.836  0.00  0.00    +0.021 A 
ATOM     21  C   LIG    1       -1.001  -4.941  -0.919  0.00  0.00    +0.014 A 
ENDBRANCH   3  15
TORSDOF 2
