REMARK  Name = ZINC00482059
REMARK                            x       y       z     vdW  Elec       q    Type
REMARK                         _______ _______ _______ _____ _____    ______ ____
ROOT
ATOM      1  C   LIG    1        1.158   1.696   0.000  0.00  0.00    +0.330 C 
ATOM      2  N   LIG    1        1.264   2.862  -0.560  0.00  0.00    -0.039 NA
ATOM      3  C   LIG    1        0.270   3.525  -1.221  0.00  0.00    +0.193 A 
ATOM      4  C   LIG    1        0.578   4.585  -2.071  0.00  0.00    +0.058 A 
ATOM      5  C   LIG    1       -0.432   5.253  -2.740  0.00  0.00    +0.024 A 
ATOM      6  C   LIG    1       -1.753   4.878  -2.574  0.00  0.00    +0.042 A 
ATOM      7 CL   LIG    1       -3.008   5.725  -3.423  0.00  0.00    -0.084 Cl
ATOM      8  C   LIG    1       -2.077   3.823  -1.730  0.00  0.00    +0.042 A 
ATOM      9  C   LIG    1       -1.076   3.154  -1.059  0.00  0.00    +0.102 A 
ATOM     10  S   LIG    1       -1.448   1.810   0.019  0.00  0.00    +0.089 S 
ATOM     11  N   LIG    1       -0.011   0.966   0.007  0.00  0.00    -0.166 N 
ATOM     12  H   LIG    1        0.002  -0.004   0.002  0.00  0.00    +0.308 HD
ENDROOT
BRANCH   1  16
ATOM     13  C   LIG    1        4.578   0.051   1.906  0.00  0.00    +0.000 A 
ATOM     14  C   LIG    1        4.658   1.292   1.298  0.00  0.00    +0.001 A 
ATOM     15  C   LIG    1        3.551   1.831   0.678  0.00  0.00    +0.016 A 
ATOM     16  C   LIG    1        2.348   1.123   0.663  0.00  0.00    +0.066 A 
ATOM     17  C   LIG    1        2.273  -0.125   1.283  0.00  0.00    +0.016 A 
ATOM     18  C   LIG    1        3.389  -0.656   1.895  0.00  0.00    +0.001 A 
ENDBRANCH   1  16
TORSDOF 1
