REMARK  Name = ZINC00598590
REMARK                            x       y       z     vdW  Elec       q    Type
REMARK                         _______ _______ _______ _____ _____    ______ ____
ROOT
ATOM      1  C   LIG    1       -0.548   1.458   3.635  0.00  0.00    +0.148 A 
ATOM      2  C   LIG    1       -1.686   2.246   3.706  0.00  0.00    +0.052 A 
ATOM      3  C   LIG    1       -2.209   2.600   4.936  0.00  0.00    -0.036 A 
ATOM      4  C   LIG    1       -1.594   2.179   6.100  0.00  0.00    +0.052 A 
ATOM      5  C   LIG    1       -0.452   1.395   6.039  0.00  0.00    +0.148 A 
ATOM      6  C   LIG    1        0.075   1.031   4.804  0.00  0.00    +0.130 A 
ENDROOT
BRANCH   6   7
ATOM      7  N   LIG    1        1.232   0.237   4.737  0.00  0.00    -0.317 N 
ATOM      8  C   LIG    1        1.298  -1.031   4.237  0.00  0.00    +0.091 A 
ATOM      9  C   LIG    1        2.574  -1.459   4.341  0.00  0.00    +0.019 A 
ATOM     10  C   LIG    1        3.320  -0.422   4.934  0.00  0.00    +0.019 A 
ATOM     11  C   LIG    1        2.474   0.604   5.166  0.00  0.00    +0.091 A 
ENDBRANCH   6   7
BRANCH   1  12
ATOM     12  O   LIG    1       -0.038   1.106   2.425  0.00  0.00    -0.490 OA
BRANCH  12  14
ATOM     13  C   LIG    1       -0.013   1.086   0.008  0.00  0.00    +0.048 C 
ATOM     14  C   LIG    1       -0.729   1.579   1.267  0.00  0.00    +0.226 C 
ENDBRANCH  12  14
ENDBRANCH   1  12
BRANCH   3  15
ATOM     15  C   LIG    1       -3.449   3.452   5.008  0.00  0.00    +0.075 C 
BRANCH  15  16
ATOM     16  C   LIG    1       -3.058   4.907   5.030  0.00  0.00    +0.015 A 
ATOM     17  C   LIG    1       -2.928   5.585   6.226  0.00  0.00    +0.121 A 
ATOM     18  N   LIG    1       -2.583   6.864   6.213  0.00  0.00    -0.223 NA
ATOM     19  C   LIG    1       -2.362   7.498   5.070  0.00  0.00    +0.214 A 
ATOM     20  N   LIG    1       -2.476   6.884   3.902  0.00  0.00    -0.200 NA
ATOM     21  C   LIG    1       -2.814   5.600   3.842  0.00  0.00    +0.125 A 
BRANCH  19  22
ATOM     22  N   LIG    1       -2.003   8.834   5.098  0.00  0.00    -0.327 N 
ATOM     23  H   LIG    1       -1.838   9.309   4.268  0.00  0.00    +0.145 HD
ATOM     24  H   LIG    1       -1.916   9.295   5.947  0.00  0.00    +0.145 HD
ENDBRANCH  19  22
BRANCH  21  25
ATOM     25  N   LIG    1       -2.928   4.959   2.619  0.00  0.00    -0.343 N 
ATOM     26  H   LIG    1       -2.757   5.447   1.798  0.00  0.00    +0.144 HD
ATOM     27  H   LIG    1       -3.179   4.023   2.584  0.00  0.00    +0.144 HD
ENDBRANCH  21  25
ENDBRANCH  15  16
ENDBRANCH   3  15
BRANCH   5  28
ATOM     28  O   LIG    1        0.152   0.982   7.185  0.00  0.00    -0.490 OA
BRANCH  28  29
ATOM     29  C   LIG    1       -0.444   1.392   8.417  0.00  0.00    +0.226 C 
ATOM     30  C   LIG    1        0.370   0.836   9.587  0.00  0.00    +0.048 C 
ENDBRANCH  28  29
ENDBRANCH   5  28
TORSDOF 9
