REMARK  Name = ZINC00596596
REMARK                            x       y       z     vdW  Elec       q    Type
REMARK                         _______ _______ _______ _____ _____    ______ ____
ROOT
ATOM      1  C   LIG    1       -0.116   1.099  -0.907  0.00  0.00    +0.068 C 
ATOM      2  C   LIG    1       -0.207  -0.387  -0.669  0.00  0.00    +0.071 A 
ATOM      3  C   LIG    1       -0.446  -1.337  -1.610  0.00  0.00    +0.152 A 
ATOM      4  C   LIG    1       -0.684  -1.329  -3.059  0.00  0.00    +0.299 A 
ATOM      5  N   LIG    1       -0.890  -2.509  -3.685  0.00  0.00    -0.193 NA
ATOM      6  C   LIG    1       -0.881  -3.639  -3.032  0.00  0.00    +0.130 A 
ATOM      7  N   LIG    1       -0.669  -3.714  -1.702  0.00  0.00    -0.278 N 
ATOM      8  H   LIG    1       -0.672  -4.579  -1.263  0.00  0.00    +0.189 HD
ATOM      9  O   LIG    1       -0.695  -0.283  -3.683  0.00  0.00    -0.263 OA
ATOM     10  N   LIG    1       -0.443  -2.555  -0.954  0.00  0.00    -0.232 N 
ATOM     11  C   LIG    1       -0.207  -2.301   0.341  0.00  0.00    +0.135 A 
ATOM     12  N   LIG    1       -0.061  -1.008   0.505  0.00  0.00    -0.235 NA
ENDROOT
BRANCH   6  13
ATOM     13  C   LIG    1       -1.119  -4.915  -3.797  0.00  0.00    +0.111 C 
BRANCH  13  14
ATOM     14  C   LIG    1       -1.332  -4.595  -5.254  0.00  0.00    -0.036 A 
ATOM     15  C   LIG    1       -2.606  -4.340  -5.726  0.00  0.00    +0.008 A 
ATOM     16  C   LIG    1       -2.806  -4.046  -7.062  0.00  0.00    +0.049 A 
ATOM     17  C   LIG    1       -1.728  -4.005  -7.931  0.00  0.00    +0.161 A 
ATOM     18  C   LIG    1       -0.446  -4.261  -7.457  0.00  0.00    +0.162 A 
ATOM     19  C   LIG    1       -0.251  -4.551  -6.116  0.00  0.00    +0.053 A 
BRANCH  17  20
ATOM     20  O   LIG    1       -1.924  -3.717  -9.246  0.00  0.00    -0.491 OA
ATOM     21  C   LIG    1       -3.268  -3.465  -9.662  0.00  0.00    +0.277 C 
ENDBRANCH  17  20
BRANCH  18  22
ATOM     22  O   LIG    1        0.616  -4.223  -8.306  0.00  0.00    -0.491 OA
ATOM     23  C   LIG    1        1.903  -4.497  -7.750  0.00  0.00    +0.277 C 
ENDBRANCH  18  22
ENDBRANCH  13  14
ENDBRANCH   6  13
BRANCH  11  24
ATOM     24  C   LIG    1       -0.117  -3.336   1.433  0.00  0.00    +0.085 C 
BRANCH  24  25
ATOM     25  C   LIG    1       -1.189  -3.058   2.488  0.00  0.00    +0.122 C 
ATOM     26  C   LIG    1       -1.175  -4.175   3.535  0.00  0.00    +0.038 C 
BRANCH  25  27
ATOM     27  O   LIG    1       -0.920  -1.807   3.123  0.00  0.00    -0.391 OA
ATOM     28  H   LIG    1       -1.561  -1.566   3.806  0.00  0.00    +0.210 HD
ENDBRANCH  25  27
ENDBRANCH  24  25
BRANCH  24  29
ATOM     29  C   LIG    1        1.267  -3.273   2.082  0.00  0.00    +0.014 C 
BRANCH  29  30
ATOM     30  C   LIG    1        2.329  -3.687   1.061  0.00  0.00    +0.005 C 
BRANCH  30  31
ATOM     31  C   LIG    1        3.704  -3.701   1.732  0.00  0.00    +0.035 C 
BRANCH  31  32
ATOM     32  C   LIG    1        4.749  -4.108   0.727  0.00  0.00    -0.047 A 
ATOM     33  C   LIG    1        5.067  -5.443   0.562  0.00  0.00    +0.003 A 
ATOM     34  C   LIG    1        6.026  -5.817  -0.360  0.00  0.00    +0.000 A 
ATOM     35  C   LIG    1        6.668  -4.856  -1.118  0.00  0.00    +0.000 A 
ATOM     36  C   LIG    1        6.350  -3.520  -0.954  0.00  0.00    +0.000 A 
ATOM     37  C   LIG    1        5.387  -3.147  -0.035  0.00  0.00    +0.003 A 
ENDBRANCH  31  32
ENDBRANCH  30  31
ENDBRANCH  29  30
ENDBRANCH  24  29
ENDBRANCH  11  24
TORSDOF 11
