REMARK  Name = ZINC00596712
REMARK                            x       y       z     vdW  Elec       q    Type
REMARK                         _______ _______ _______ _____ _____    ______ ____
ROOT
ATOM      1  C   LIG    1        5.243  -3.525   4.578  0.00  0.00    +0.109 C 
ATOM      2  C   LIG    1        4.351  -4.368   3.704  0.00  0.00    +0.212 C 
ATOM      3  N   LIG    1        3.367  -3.788   2.988  0.00  0.00    -0.301 N 
ATOM      4  C   LIG    1        2.415  -4.612   2.232  0.00  0.00    +0.112 C 
ATOM      5  C   LIG    1        2.471  -4.203   0.755  0.00  0.00    +0.050 C 
ATOM      6  C   LIG    1        2.359  -2.696   0.672  0.00  0.00    -0.057 C 
ATOM      7  C   LIG    1        3.317  -1.858   1.490  0.00  0.00    +0.050 C 
ATOM      8  C   LIG    1        1.439  -2.119  -0.110  0.00  0.00    +0.007 C 
ATOM      9  C   LIG    1        0.435  -2.965  -0.794  0.00  0.00    -0.013 A 
ATOM     10  C   LIG    1        0.812  -3.933  -1.720  0.00  0.00    +0.010 A 
ATOM     11  C   LIG    1       -0.166  -4.707  -2.317  0.00  0.00    +0.020 A 
ATOM     12  C   LIG    1       -1.497  -4.512  -1.989  0.00  0.00    +0.041 A 
ATOM     13 CL   LIG    1       -2.719  -5.492  -2.738  0.00  0.00    -0.084 Cl
ATOM     14  C   LIG    1       -1.862  -3.544  -1.069  0.00  0.00    +0.024 A 
ATOM     15  C   LIG    1       -0.885  -2.764  -0.472  0.00  0.00    -0.038 A 
ATOM     16  C   LIG    1       -1.269  -1.708   0.517  0.00  0.00    +0.040 C 
ATOM     17  C   LIG    1       -1.115  -0.310  -0.020  0.00  0.00    +0.042 C 
ATOM     18  C   LIG    1        0.306   0.129  -0.258  0.00  0.00    -0.021 A 
ATOM     19  C   LIG    1        0.455   1.506  -0.465  0.00  0.00    +0.007 A 
ATOM     20  C   LIG    1        1.712   2.040  -0.668  0.00  0.00    +0.020 A 
ATOM     21  C   LIG    1        2.810   1.199  -0.653  0.00  0.00    +0.111 A 
ATOM     22  N   LIG    1        2.648  -0.088  -0.457  0.00  0.00    -0.255 NA
ATOM     23  C   LIG    1        1.447  -0.649  -0.273  0.00  0.00    +0.075 A 
ATOM     24  C   LIG    1        3.236  -2.326   2.953  0.00  0.00    +0.112 C 
ATOM     25  O   LIG    1        4.518  -5.568   3.645  0.00  0.00    -0.276 OA
ENDROOT
TORSDOF 0
