REMARK  Name = ZINC00643143
REMARK                            x       y       z     vdW  Elec       q    Type
REMARK                         _______ _______ _______ _____ _____    ______ ____
ROOT
ATOM      1  C   LIG    1        1.283  -6.616  -9.468  0.00  0.00    +0.185 C 
ATOM      2  C   LIG    1        1.442  -8.157  -9.441  0.00  0.00    +0.198 C 
ATOM      3  O   LIG    1        2.026  -8.448 -10.727  0.00  0.00    -0.341 OA
ATOM      4  C   LIG    1        2.643  -7.242 -11.197  0.00  0.00    +0.217 C 
ATOM      5  O   LIG    1        2.459  -6.213 -10.210  0.00  0.00    -0.334 OA
ENDROOT
BRANCH   4   6
ATOM      6  C   LIG    1        4.115  -7.478 -11.415  0.00  0.00    +0.031 A 
ATOM      7  C   LIG    1        4.668  -7.282 -12.667  0.00  0.00    +0.012 A 
ATOM      8  C   LIG    1        6.018  -7.498 -12.868  0.00  0.00    +0.020 A 
ATOM      9  C   LIG    1        6.817  -7.910 -11.816  0.00  0.00    +0.042 A 
ATOM     10 CL   LIG    1        8.513  -8.182 -12.069  0.00  0.00    -0.083 Cl
ATOM     11  C   LIG    1        6.265  -8.105 -10.564  0.00  0.00    +0.040 A 
ATOM     12  C   LIG    1        4.914  -7.884 -10.362  0.00  0.00    +0.051 A 
ATOM     13 CL   LIG    1        4.221  -8.123  -8.788  0.00  0.00    -0.083 Cl
ENDBRANCH   4   6
BRANCH   1  14
ATOM     14  C   LIG    1        1.304  -6.038  -8.052  0.00  0.00    +0.263 C 
BRANCH  14  15
ATOM     15  O   LIG    1        1.184  -4.616  -8.116  0.00  0.00    -0.489 OA
BRANCH  15  19
ATOM     16  C   LIG    1        1.189  -2.571  -4.529  0.00  0.00    +0.030 A 
ATOM     17  C   LIG    1        1.074  -1.875  -5.725  0.00  0.00    +0.027 A 
ATOM     18  C   LIG    1        1.073  -2.560  -6.924  0.00  0.00    +0.047 A 
ATOM     19  C   LIG    1        1.186  -3.942  -6.934  0.00  0.00    +0.121 A 
ATOM     20  C   LIG    1        1.300  -4.638  -5.740  0.00  0.00    +0.047 A 
ATOM     21  C   LIG    1        1.307  -3.954  -4.540  0.00  0.00    +0.027 A 
BRANCH  16  27
ATOM     22  C   LIG    1        2.395  -0.757   1.294  0.00  0.00    +0.109 C 
ATOM     23  C   LIG    1        2.391   0.004  -0.007  0.00  0.00    +0.213 C 
ATOM     24  N   LIG    1        2.389  -0.664  -1.177  0.00  0.00    -0.299 N 
ATOM     25  C   LIG    1        2.385  -2.133  -1.201  0.00  0.00    +0.126 C 
ATOM     26  C   LIG    1        1.189  -2.606  -2.037  0.00  0.00    +0.124 C 
ATOM     27  N   LIG    1        1.191  -1.878  -3.313  0.00  0.00    -0.327 N 
ATOM     28  C   LIG    1        1.195  -0.408  -3.290  0.00  0.00    +0.124 C 
ATOM     29  C   LIG    1        2.385   0.065  -2.454  0.00  0.00    +0.126 C 
ATOM     30  O   LIG    1        2.390   1.217   0.000  0.00  0.00    -0.276 OA
ENDBRANCH  16  27
ENDBRANCH  15  19
ENDBRANCH  14  15
ENDBRANCH   1  14
BRANCH   4  31
ATOM     31  C   LIG    1        1.993  -6.812 -12.514  0.00  0.00    +0.193 C 
BRANCH  31  32
ATOM     32  N   LIG    1        0.560  -6.592 -12.303  0.00  0.00    -0.333 N 
ATOM     33  C   LIG    1       -0.432  -7.527 -12.426  0.00  0.00    +0.104 A 
ATOM     34  C   LIG    1       -1.592  -6.903 -12.144  0.00  0.00    +0.101 A 
ATOM     35  N   LIG    1       -1.316  -5.623 -11.856  0.00  0.00    -0.352 N 
ATOM     36  H   LIG    1       -1.969  -4.947 -11.616  0.00  0.00    +0.166 HD
ATOM     37  C   LIG    1       -0.028  -5.430 -11.944  0.00  0.00    +0.173 A 
ENDBRANCH  31  32
ENDBRANCH   4  31
TORSDOF 7
