REMARK  Name = ZINC00393133
REMARK                            x       y       z     vdW  Elec       q    Type
REMARK                         _______ _______ _______ _____ _____    ______ ____
ROOT
ATOM      1  C   LIG    1       -0.018   1.503   0.010  0.00  0.00    +0.086 C 
ATOM      2  C   LIG    1        0.002  -0.004   0.002  0.00  0.00    +0.102 A 
ATOM      3  C   LIG    1       -1.078  -0.805   0.003  0.00  0.00    +0.044 A 
ATOM      4  C   LIG    1       -0.601  -2.136  -0.007  0.00  0.00    +0.043 A 
ATOM      5  C   LIG    1        0.742  -2.069  -0.013  0.00  0.00    +0.089 A 
ATOM      6  O   LIG    1        1.102  -0.775  -0.013  0.00  0.00    -0.467 OA
ENDROOT
BRANCH   5   7
ATOM      7  C   LIG    1        1.684  -3.245  -0.023  0.00  0.00    -0.001 C 
BRANCH   7   8
ATOM      8  N   LIG    1        1.984  -3.621  -1.411  0.00  0.00    +0.379 N 
ATOM      9  C   LIG    1        0.738  -3.985  -2.099  0.00  0.00    -0.092 C 
ATOM     10  C   LIG    1        2.902  -4.768  -1.421  0.00  0.00    -0.092 C 
ATOM     11  C   LIG    1        2.611  -2.486  -2.101  0.00  0.00    -0.092 C 
ENDBRANCH   7   8
ENDBRANCH   5   7
TORSDOF 2
