REMARK  Name = ZINC00659271
REMARK                            x       y       z     vdW  Elec       q    Type
REMARK                         _______ _______ _______ _____ _____    ______ ____
ROOT
ATOM      1  C   LIG    1       -2.509   3.749   0.039  0.00  0.00    +0.101 C 
ATOM      2  C   LIG    1       -1.211   2.991   0.030  0.00  0.00    +0.098 C 
ATOM      3  C   LIG    1       -1.209   1.636   0.017  0.00  0.00    +0.198 C 
ATOM      4  O   LIG    1       -2.354   0.935   0.018  0.00  0.00    -0.445 OA
ATOM      5  C   LIG    1       -3.489   1.509   0.460  0.00  0.00    +0.115 C 
ATOM      6  C   LIG    1       -4.604   0.605   0.931  0.00  0.00    +0.083 C 
ATOM      7  C   LIG    1       -5.955   1.267   0.655  0.00  0.00    +0.035 C 
ATOM      8  C   LIG    1       -5.995   2.613   1.387  0.00  0.00    +0.088 C 
ATOM      9  C   LIG    1       -4.825   3.446   0.939  0.00  0.00    +0.164 C 
ATOM     10  O   LIG    1       -4.910   4.657   0.966  0.00  0.00    -0.292 OA
ATOM     11  C   LIG    1       -3.632   2.847   0.489  0.00  0.00    +0.046 C 
ENDROOT
BRANCH   7  12
ATOM     12  C   LIG    1       -7.066   0.383   1.160  0.00  0.00    -0.025 A 
ATOM     13  C   LIG    1       -7.125   0.044   2.499  0.00  0.00    +0.005 A 
ATOM     14  C   LIG    1       -8.146  -0.763   2.963  0.00  0.00    +0.000 A 
ATOM     15  C   LIG    1       -9.103  -1.241   2.087  0.00  0.00    +0.001 A 
ATOM     16  C   LIG    1       -9.042  -0.907   0.747  0.00  0.00    +0.020 A 
ATOM     17  C   LIG    1       -8.023  -0.095   0.283  0.00  0.00    +0.044 A 
ATOM     18 CL   LIG    1       -7.945   0.325  -1.400  0.00  0.00    -0.083 Cl
ENDBRANCH   7  12
BRANCH   1  22
ATOM     19  C   LIG    1       -3.343   5.194  -3.896  0.00  0.00    +0.120 A 
ATOM     20  C   LIG    1       -3.188   6.087  -2.846  0.00  0.00    +0.046 A 
ATOM     21  C   LIG    1       -2.919   5.618  -1.575  0.00  0.00    +0.008 A 
ATOM     22  C   LIG    1       -2.803   4.259  -1.349  0.00  0.00    -0.034 A 
ATOM     23  C   LIG    1       -2.951   3.366  -2.394  0.00  0.00    +0.008 A 
ATOM     24  C   LIG    1       -3.227   3.830  -3.666  0.00  0.00    +0.046 A 
BRANCH  19  26
ATOM     25  C   LIG    1       -3.754   4.676  -6.179  0.00  0.00    +0.277 C 
ATOM     26  O   LIG    1       -3.607   5.653  -5.147  0.00  0.00    -0.495 OA
ENDBRANCH  19  26
ENDBRANCH   1  22
BRANCH   3  27
ATOM     27  N   LIG    1       -0.011   0.966   0.007  0.00  0.00    -0.328 N 
ATOM     28  H   LIG    1        0.822   1.462   0.002  0.00  0.00    +0.145 HD
ATOM     29  H   LIG    1        0.002  -0.004   0.002  0.00  0.00    +0.145 HD
ENDBRANCH   3  27
BRANCH   2  30
ATOM     30  C   LIG    1        0.030   3.705   0.029  0.00  0.00    +0.101 C 
ATOM     31  N   LIG    1        1.015   4.271   0.029  0.00  0.00    -0.191 NA
ENDBRANCH   2  30
TORSDOF 5
